                                  MODFLOW-2005     
      U.S. GEOLOGICAL SURVEY MODULAR FINITE-DIFFERENCE GROUND-WATER FLOW MODEL
                            VERSION 1.11.00 8/8/2013

 LIST FILE: supply2.lst
                         UNIT   10

 OPENING ..\data\supply.dis
 FILE TYPE:DIS   UNIT   11   STATUS:OLD    
 FORMAT:FORMATTED              ACCESS:SEQUENTIAL          

 OPENING ..\data\supply.ba6
 FILE TYPE:BAS6   UNIT   12   STATUS:OLD    
 FORMAT:FORMATTED              ACCESS:SEQUENTIAL          

 OPENING ..\data\supply_het.bc6
 FILE TYPE:BCF6   UNIT   13   STATUS:OLD    
 FORMAT:FORMATTED              ACCESS:SEQUENTIAL          

 OPENING ..\data\supply.rch
 FILE TYPE:RCH   UNIT   15   STATUS:OLD    
 FORMAT:FORMATTED              ACCESS:SEQUENTIAL          

 OPENING ..\data\supply2.sfr
 FILE TYPE:SFR   UNIT   16   STATUS:OLD    
 FORMAT:FORMATTED              ACCESS:SEQUENTIAL          

 OPENING ..\data\supply.oc
 FILE TYPE:OC   UNIT   17   STATUS:OLD    
 FORMAT:FORMATTED              ACCESS:SEQUENTIAL          

 OPENING ..\data\supply.pcg
 FILE TYPE:PCG   UNIT   18   STATUS:OLD    
 FORMAT:FORMATTED              ACCESS:SEQUENTIAL          

 OPENING supply2.wel
 FILE TYPE:WEL   UNIT   19   STATUS:OLD    
 FORMAT:FORMATTED              ACCESS:SEQUENTIAL          

 OPENING supply2sf.cbc
 FILE TYPE:DATA(BINARY)   UNIT   50   STATUS:UNKNOWN
 FORMAT:BINARY                 ACCESS:SEQUENTIAL          

 OPENING supply2hd.bhd
 FILE TYPE:DATA(BINARY)   UNIT   51   STATUS:UNKNOWN
 FORMAT:BINARY                 ACCESS:SEQUENTIAL          

 BAS -- BASIC PACKAGE, VERSION 7, 5/2/2005 INPUT READ FROM UNIT   12
 
 MODFLOW was compiled using uniform precision
 Precision of REAL and DOUBLE PRECISION variables:          15

 DISCRETIZATION INPUT DATA READ FROM UNIT   11
    1 LAYERS        25 ROWS        30 COLUMNS
   12 STRESS PERIOD(S) IN SIMULATION
 MODEL TIME UNIT IS DAYS
 MODEL LENGTH UNIT IS UNDEFINED
  Confining bed flag for each layer:
   0

                     DELR =   200.000    

                     DELC =   200.000    

 TOP ELEVATION OF LAYER 1 =  100.0000    

   MODEL LAYER BOTTOM EL. =   0.00000     FOR LAYER   1


 STRESS PERIOD     LENGTH       TIME STEPS     MULTIPLIER FOR DELT    SS FLAG
 ----------------------------------------------------------------------------
        1         92.00000          1                    1.500         TR
        2         91.00000          1                    1.500         TR
        3         91.00000          1                    1.500         TR
        4         91.00000          1                    1.500         TR
        5         92.00000          1                    1.500         TR
        6         91.00000          1                    1.500         TR
        7         91.00000          1                    1.500         TR
        8         91.00000          1                    1.500         TR
        9         92.00000          1                    1.500         TR
       10         91.00000          1                    1.500         TR
       11         91.00000          1                    1.500         TR
       12         91.00000          1                    1.500         TR

 TRANSIENT SIMULATION



 
 #MODOFC transient water supply sample problem                                   
 #                                                                               
 THE FREE FORMAT OPTION HAS BEEN SELECTED



                     BOUNDARY ARRAY FOR LAYER   1
 READING ON UNIT   12 WITH FORMAT: (20I4)              

 AQUIFER HEAD WILL BE SET TO   0.0000     AT ALL NO-FLOW NODES (IBOUND=0).



                       INITIAL HEAD FOR LAYER   1
 READING ON UNIT   12 WITH FORMAT: (10F13.0)           

 OUTPUT CONTROL IS SPECIFIED ONLY AT TIME STEPS FOR WHICH OUTPUT IS DESIRED
 COMPACT CELL-BY-CELL BUDGET FILES WILL BE WRITTEN
 HEAD PRINT FORMAT CODE IS  18    DRAWDOWN PRINT FORMAT CODE IS   0
 HEADS WILL BE SAVED ON UNIT   51    DRAWDOWNS WILL BE SAVED ON UNIT    0

 BCF -- BLOCK-CENTERED FLOW PACKAGE, VERSION 7, 5/2/2005
         INPUT READ FROM UNIT 13
 TRANSIENT SIMULATION
 HEAD AT CELLS THAT CONVERT TO DRY=   0.0000    
 WETTING CAPABILITY IS NOT ACTIVE
      LAYER  LAYER-TYPE CODE     INTERBLOCK T
      --------------------------------------------
         1            0          0 -- HARMONIC    

 COLUMN TO ROW ANISOTROPY =  1.000000    

     PRIMARY STORAGE COEF =  5.000000E-02 FOR LAYER   1



               TRANSMIS. ALONG ROWS FOR LAYER   1
 READING ON UNIT   13 WITH FORMAT: (FREE)              

 WEL -- WELL PACKAGE, VERSION 7, 5/2/2005 INPUT READ FROM UNIT   19
 # Well package input file written by MMProc
 No named parameters
 MAXIMUM OF      4 ACTIVE WELLS AT ONE TIME


     0 Well parameters

 RCH -- RECHARGE PACKAGE, VERSION 7, 5/2/2005 INPUT READ FROM UNIT   15
 No named parameters
 OPTION 1 -- RECHARGE TO TOP LAYER


     0 Recharge parameters

 SFR7 -- STREAMFLOW ROUTING PACKAGE, VERSION 1.0.7, 2013-01-15
         INPUT READ FROM UNIT  16
 #  Supply2 test problem for GWM-VI
 #  The eighth entry in the first data line is ISTCB2 -
 #    Setting this to a negative number indicates that
 #    streamflows out of the reach will be saved to a
 #    binary file.  The absolute value of ISTCB2 is the
 #    unit to which unformatted flows will be written.
 #
 No named parameters
 Segment information will not be 
 read by reach
 No named parameters
 No specifed inflow files


 NUMBER OF STREAM REACHES IS   40

 NUMBER OF STREAM SEGMENTS IS    3

 NUMBER OF STREAM PARAMETERS IS    0

 NUMBER OF STREAM SEGMENTS DEFINED USING PARAMETERS IS              0

 MAXIMUM ERROR FOR STREAM LEAKAGE RATES IS  1.00E-04

 CONSTANT FOR MANNINGS EQUATION IS  1.2839E+05





   STREAM NETWORK DESCRIPTION: 

   LAYER    ROW    COL   SEGMENT   REACH     LENGTH
                          NUMBER   NUMBER    IN CELL        
   --------------------------------------------------
      1     13      1       1        1    2.0000E+02
      1     13      2       1        2    2.0000E+02
      1     14      3       1        3    2.0000E+02
      1     15      4       1        4    2.0000E+02
      1     16      5       1        5    2.0000E+02
      1     16      6       1        6    2.0000E+02
      1     16      7       1        7    2.0000E+02
      1     16      8       1        8    2.0000E+02
      1     16      9       1        9    2.0000E+02
      1     16     10       1       10    2.0000E+02
      1     16     11       1       11    2.0000E+02
      1     16     12       1       12    2.0000E+02
      1     15     13       1       13    2.0000E+02
      1     14     14       1       14    2.0000E+02
      1     13     15       1       15    2.0000E+02
      1     12     16       1       16    2.0000E+02
      1     12     17       1       17    2.0000E+02
      1     12     18       1       18    2.0000E+02
      1     12     19       1       19    2.0000E+02
      1     13     20       1       20    2.0000E+02
      1     14     21       1       21    2.0000E+02
      1     14     22       1       22    2.0000E+02
      1      9     30       2        1    2.0000E+02
      1      9     29       2        2    2.0000E+02
      1      9     28       2        3    2.0000E+02
      1      9     27       2        4    2.0000E+02
      1     10     26       2        5    2.0000E+02
      1     11     25       2        6    2.0000E+02
      1     12     24       2        7    2.0000E+02
      1     13     23       2        8    2.0000E+02
      1     14     22       2        9    2.0000E+02
      1     14     22       3        1    2.0000E+02
      1     15     23       3        2    2.0000E+02
      1     15     24       3        3    2.0000E+02
      1     15     25       3        4    2.0000E+02
      1     15     26       3        5    2.0000E+02
      1     16     27       3        6    2.0000E+02
      1     17     28       3        7    2.0000E+02
      1     18     29       3        8    2.0000E+02
      1     18     30       3        9    2.0000E+02




 PCG -- CONJUGATE-GRADIENT SOLUTION PACKAGE, VERSION 7, 5/2/2005
 MAXIMUM OF    500 CALLS OF SOLUTION ROUTINE
 MAXIMUM OF      5 INTERNAL ITERATIONS PER CALL TO SOLUTION ROUTINE
 MATRIX PRECONDITIONING TYPE :    1



                                    SOLUTION BY THE CONJUGATE-GRADIENT METHOD
                                   -------------------------------------------
                    MAXIMUM NUMBER OF CALLS TO PCG ROUTINE =      500
                        MAXIMUM ITERATIONS PER CALL TO PCG =        5
                               MATRIX PRECONDITIONING TYPE =        1
        RELAXATION FACTOR (ONLY USED WITH PRECOND. TYPE 1) =    0.10000E+01
 PARAMETER OF POLYNOMIAL PRECOND. = 2 (2) OR IS CALCULATED :        0
                         HEAD CHANGE CRITERION FOR CLOSURE =    0.10000E-05
                     RESIDUAL CHANGE CRITERION FOR CLOSURE =    0.10000E+01
            PCG HEAD AND RESIDUAL CHANGE PRINTOUT INTERVAL =        1
     PRINTING FROM SOLVER IS LIMITED(1) OR SUPPRESSED (>1) =        1
                            STEADY-STATE DAMPING PARAMETER =    0.10000E+01
                               TRANSIENT DAMPING PARAMETER =    0.10000E+01
1
                            STRESS PERIOD NO.    1, LENGTH =   92.00000    
                            -----------------------------------------------

                              NUMBER OF TIME STEPS =     1

                               MULTIPLIER FOR DELT =     1.500

                            INITIAL TIME STEP SIZE =   92.00000    

 WELL NO.  LAYER   ROW   COL   STRESS RATE         
 --------------------------------------------------
      1      1      4     17     -0.1182E+05
      2      1     12     28      -9652.    
      3      1      7      8      -7590.    
      4      1     12      7      -1463.    

      4 WELLS

                 RECHARGE =  5.000000E-04



 CLASSIFICATION & COUNT OF STREAM SEGMENTS BASED ON SOURCE OF INFLOW:

                HEADWATER     DIVERSION     RECEIVES TRIBUTARY FLOW
                ---------     ---------     -----------------------
                     2              0               1



                    INPUT DATA FOR EACH STREAM SEGMENT
 ---------------------------------------------------------------------------------------------

 SEGMENT    SEG.     INFLOW   OVERLAND   STREAM    STREAM   ICALC  OUTFLOW  DIVERSION PRIORITY
    NO.    LENGTH     RATE     RUNOFF      ET       PPT.    METH.  TO SEG.  FROM SEG.    NO.

      1  4.400E+03 1.000E+05 0.000E+00 0.000E+00 0.000E+00    1        3        0        0
      2  1.800E+03 5.000E+04 0.000E+00 0.000E+00 0.000E+00    1        3        0        0
      3  1.800E+03 0.000E+00 0.000E+00 0.000E+00 0.000E+00    1        0        0        0


         STREAMBED PROPERTIES AND STREAM DIMENSIONS

 SEGMENT     BED HYD. COND.      BED THICKNESS     ELEV.-TOP OF BED     WIDTH OF STREAM     DEPTH OF STREAM    STREAM ROUGHNESS
    No.     UPPER     LOWER     UPPER     LOWER     UPPER     LOWER     UPPER     LOWER     UPPER     LOWER   CHANNEL      BANK

     1  5.000E+00 5.000E+00 1.000E+00 1.000E+00 4.850E+01 3.800E+01 2.000E+01 2.000E+01                     5.000E-02
     2  5.000E+00 5.000E+00 1.000E+00 1.000E+00 4.025E+01 3.800E+01 2.000E+01 2.000E+01                     5.000E-02
     3  5.000E+00 5.000E+00 1.000E+00 1.000E+00 3.800E+01 3.000E+01 2.000E+01 2.000E+01                     5.000E-02



 
 SOLVING FOR HEAD 


     9 CALLS TO PCG ROUTINE FOR TIME STEP   1 IN STRESS PERIOD    1
    36 TOTAL ITERATIONS

 OUTPUT CONTROL FOR STRESS PERIOD    1   TIME STEP    1
    SAVE BUDGET
    SAVE HEAD FOR ALL LAYERS
    PRINT HEAD FOR ALL LAYERS
 UBDSV2 SAVING "STREAMFLOW OUT  " ON UNIT  50 AT TIME STEP  1, STRESS PERIOD   1



 STREAM LISTING     PERIOD      1   STEP        1

 LAYER ROW COL. STREAM  RCH.  FLOW INTO     FLOW TO   FLOW OUT OF   OVRLND.     DIRECT     STREAM       STREAM     STREAM     STREAM   STREAMBED  STREAMBED
                SEG.NO.  NO.  STRM. RCH.    AQUIFER    STRM. RCH.    RUNOFF     PRECIP       ET          HEAD       DEPTH      WIDTH   CONDCTNC.   GRADIENT

   1   13    1     1     1    1.0000E+05 -5.9933E+03   1.0599E+05  0.000E+00  0.000E+00  0.000E+00  4.84086E+01  1.472E-01  2.000E+01  2.000E+04 -2.997E-01
   1   13    2     1     2    1.0599E+05 -7.4457E+03   1.1344E+05  0.000E+00  0.000E+00  0.000E+00  4.79370E+01  1.529E-01  2.000E+01  2.000E+04 -3.723E-01
   1   14    3     1     3    1.1344E+05 -2.1783E+03   1.1562E+05  0.000E+00  0.000E+00  0.000E+00  4.74637E+01  1.569E-01  2.000E+01  2.000E+04 -1.089E-01
   1   15    4     1     4    1.1562E+05 -2.2509E+03   1.1787E+05  0.000E+00  0.000E+00  0.000E+00  4.69883E+01  1.587E-01  2.000E+01  2.000E+04 -1.125E-01
   1   16    5     1     5    1.1787E+05 -7.1726E+03   1.2504E+05  0.000E+00  0.000E+00  0.000E+00  4.65148E+01  1.625E-01  2.000E+01  2.000E+04 -3.586E-01
   1   16    6     1     6    1.2504E+05 -4.2805E+03   1.2932E+05  0.000E+00  0.000E+00  0.000E+00  4.60421E+01  1.671E-01  2.000E+01  2.000E+04 -2.140E-01
   1   16    7     1     7    1.2932E+05 -4.1091E+03   1.3343E+05  0.000E+00  0.000E+00  0.000E+00  4.55681E+01  1.704E-01  2.000E+01  2.000E+04 -2.055E-01
   1   16    8     1     8    1.3343E+05 -4.0747E+03   1.3751E+05  0.000E+00  0.000E+00  0.000E+00  4.50940E+01  1.736E-01  2.000E+01  2.000E+04 -2.037E-01
   1   16    9     1     9    1.3751E+05 -4.0736E+03   1.4158E+05  0.000E+00  0.000E+00  0.000E+00  4.46198E+01  1.767E-01  2.000E+01  2.000E+04 -2.037E-01
   1   16   10     1    10    1.4158E+05 -4.0790E+03   1.4566E+05  0.000E+00  0.000E+00  0.000E+00  4.41457E+01  1.797E-01  2.000E+01  2.000E+04 -2.039E-01
   1   16   11     1    11    1.4566E+05 -4.1202E+03   1.4978E+05  0.000E+00  0.000E+00  0.000E+00  4.36714E+01  1.828E-01  2.000E+01  2.000E+04 -2.060E-01
   1   16   12     1    12    1.4978E+05 -6.9889E+03   1.5677E+05  0.000E+00  0.000E+00  0.000E+00  4.31983E+01  1.869E-01  2.000E+01  2.000E+04 -3.494E-01
   1   15   13     1    13    1.5677E+05 -7.2437E+03   1.6401E+05  0.000E+00  0.000E+00  0.000E+00  4.27261E+01  1.921E-01  2.000E+01  2.000E+04 -3.622E-01
   1   14   14     1    14    1.6401E+05 -7.6718E+03   1.7168E+05  0.000E+00  0.000E+00  0.000E+00  4.22542E+01  1.974E-01  2.000E+01  2.000E+04 -3.836E-01
   1   13   15     1    15    1.7168E+05 -7.9238E+03   1.7961E+05  0.000E+00  0.000E+00  0.000E+00  4.17824E+01  2.028E-01  2.000E+01  2.000E+04 -3.962E-01
   1   12   16     1    16    1.7961E+05 -8.3725E+03   1.8798E+05  0.000E+00  0.000E+00  0.000E+00  4.13107E+01  2.084E-01  2.000E+01  2.000E+04 -4.186E-01
   1   12   17     1    17    1.8798E+05 -6.0062E+03   1.9398E+05  0.000E+00  0.000E+00  0.000E+00  4.08383E+01  2.133E-01  2.000E+01  2.000E+04 -3.003E-01
   1   12   18     1    18    1.9398E+05 -5.8824E+03   1.9987E+05  0.000E+00  0.000E+00  0.000E+00  4.03650E+01  2.172E-01  2.000E+01  2.000E+04 -2.941E-01
   1   12   19     1    19    1.9987E+05 -7.4185E+03   2.0729E+05  0.000E+00  0.000E+00  0.000E+00  3.98921E+01  2.216E-01  2.000E+01  2.000E+04 -3.709E-01
   1   13   20     1    20    2.0729E+05 -6.7385E+03   2.1402E+05  0.000E+00  0.000E+00  0.000E+00  3.94194E+01  2.262E-01  2.000E+01  2.000E+04 -3.369E-01
   1   14   21     1    21    2.1402E+05 -6.4112E+03   2.2044E+05  0.000E+00  0.000E+00  0.000E+00  3.89463E+01  2.304E-01  2.000E+01  2.000E+04 -3.206E-01
   1   14   22     1    22    2.2044E+05  3.7053E+03   2.1673E+05  0.000E+00  0.000E+00  0.000E+00  3.84699E+01  2.313E-01  2.000E+01  2.000E+04  1.853E-01
   1    9   30     2     1    5.0000E+04 -4.0250E+03   5.4025E+04  0.000E+00  0.000E+00  0.000E+00  4.02436E+01  1.186E-01  2.000E+01  2.000E+04 -2.013E-01
   1    9   29     2     2    5.4025E+04 -4.2354E+03   5.8260E+04  0.000E+00  0.000E+00  0.000E+00  3.99992E+01  1.242E-01  2.000E+01  2.000E+04 -2.118E-01
   1    9   28     2     3    5.8260E+04 -4.4698E+03   6.2730E+04  0.000E+00  0.000E+00  0.000E+00  3.97549E+01  1.299E-01  2.000E+01  2.000E+04 -2.235E-01
   1    9   27     2     4    6.2730E+04 -7.5430E+03   7.0273E+04  0.000E+00  0.000E+00  0.000E+00  3.95125E+01  1.375E-01  2.000E+01  2.000E+04 -3.771E-01
   1   10   26     2     5    7.0273E+04 -5.9923E+03   7.6265E+04  0.000E+00  0.000E+00  0.000E+00  3.92707E+01  1.457E-01  2.000E+01  2.000E+04 -2.996E-01
   1   11   25     2     6    7.6265E+04 -5.6613E+03   8.1927E+04  0.000E+00  0.000E+00  0.000E+00  3.90276E+01  1.526E-01  2.000E+01  2.000E+04 -2.831E-01
   1   12   24     2     7    8.1927E+04 -5.7739E+03   8.7701E+04  0.000E+00  0.000E+00  0.000E+00  3.87841E+01  1.591E-01  2.000E+01  2.000E+04 -2.887E-01
   1   13   23     2     8    8.7701E+04 -1.6217E+03   8.9322E+04  0.000E+00  0.000E+00  0.000E+00  3.85382E+01  1.632E-01  2.000E+01  2.000E+04 -8.108E-02
   1   14   22     2     9    8.9322E+04  8.8793E+01   8.9233E+04  0.000E+00  0.000E+00  0.000E+00  3.82891E+01  1.641E-01  2.000E+01  2.000E+04  4.440E-03
   1   14   22     3     1    3.0596E+05 -9.8402E+03   3.1580E+05  0.000E+00  0.000E+00  0.000E+00  3.77926E+01  2.371E-01  2.000E+01  2.000E+04 -4.920E-01
   1   15   23     3     2    3.1580E+05 -1.9881E+03   3.1779E+05  0.000E+00  0.000E+00  0.000E+00  3.69064E+01  2.398E-01  2.000E+01  2.000E+04 -9.940E-02
   1   15   24     3     3    3.1779E+05 -1.5226E+03   3.1931E+05  0.000E+00  0.000E+00  0.000E+00  3.60183E+01  2.406E-01  2.000E+01  2.000E+04 -7.613E-02
   1   15   25     3     4    3.1931E+05 -1.5568E+03   3.2087E+05  0.000E+00  0.000E+00  0.000E+00  3.51301E+01  2.412E-01  2.000E+01  2.000E+04 -7.784E-02
   1   15   26     3     5    3.2087E+05 -1.7649E+03   3.2264E+05  0.000E+00  0.000E+00  0.000E+00  3.42420E+01  2.420E-01  2.000E+01  2.000E+04 -8.824E-02
   1   16   27     3     6    3.2264E+05 -1.9989E+03   3.2464E+05  0.000E+00  0.000E+00  0.000E+00  3.33540E+01  2.428E-01  2.000E+01  2.000E+04 -9.994E-02
   1   17   28     3     7    3.2464E+05 -5.8204E+03   3.3046E+05  0.000E+00  0.000E+00  0.000E+00  3.24668E+01  2.446E-01  2.000E+01  2.000E+04 -2.910E-01
   1   18   29     3     8    3.3046E+05 -7.7525E+03   3.3821E+05  0.000E+00  0.000E+00  0.000E+00  3.15810E+01  2.476E-01  2.000E+01  2.000E+04 -3.876E-01
   1   18   30     3     9    3.3821E+05 -6.8786E+03   3.4509E+05  0.000E+00  0.000E+00  0.000E+00  3.06953E+01  2.509E-01  2.000E+01  2.000E+04 -3.439E-01



1
              HEAD IN LAYER   1 AT END OF TIME STEP   1 IN STRESS PERIOD    1
  ---------------------------------------------------------------------------

          1      2      3      4      5      6      7      8      9     10
         11     12     13     14     15     16     17     18     19     20
         21     22     23     24     25     26     27     28     29     30
 .........................................................................
   1  ****** ****** ****** ****** ****** ****** ****** ****** ****** ******
      ****** ****** ****** ****** ****** ****** ****** ****** ****** ******
      ****** ****** ****** ****** ****** ****** ****** ****** ****** ******
   2  ****** ****** ****** ****** ****** ****** ****** ****** ****** ******
      ****** ****** ****** ****** ****** ****** ****** ****** ****** ******
      ****** ****** ****** ****** ****** ****** ****** ****** ****** ******
   3  ****** ****** ****** ****** ****** ****** ****** ****** ****** ******
      ****** ****** ****** ****** ****** ****** ****** ****** ****** ******
      ****** ****** ****** ****** ****** ****** ****** ****** ****** ******
   4  ****** ****** ****** ****** ****** ****** ****** ****** ****** ******
      ****** ****** ****** ****** ****** ****** ****** ****** ****** ******
      ****** ****** ****** ****** ****** ****** ****** ****** ****** ******
   5  ****** ****** ****** ****** ****** ****** ****** ****** ****** ******
      ****** ****** ****** ****** ****** ****** ****** ****** ****** ******
      ****** ****** ****** ****** ****** ****** ****** ****** ****** ******
   6  ****** ****** ****** ****** ****** ****** ****** ****** ****** ******
      ****** ****** ****** ****** ****** ****** ****** ****** ****** ******
      ****** ****** ****** ****** ****** ****** ****** ****** ****** ******
   7  ****** ****** ****** ****** ****** ****** ****** ****** ****** ******
      ****** ****** ****** ****** ****** ****** ****** ****** ****** ******
      ****** ****** ****** ****** ****** ****** ****** ****** ****** ******
   8  ****** ****** ****** ****** ****** ****** ****** ****** ****** ******
      ****** ****** ****** ****** ****** ****** ****** ****** ****** ******
      ****** ****** ****** ****** ****** ****** ****** ****** ****** ******
   9  ****** ****** ****** ****** ****** ****** ****** ****** ****** ******
      ****** ****** ****** ****** ****** ****** ****** ****** ****** ******
      ****** ****** ****** ****** ****** ****** ****** ****** ****** ******
  10  ****** ****** ****** ****** ****** ****** ****** ****** ****** ******
      ****** ****** ****** ****** ****** ****** ****** ****** ****** ******
      ****** ****** ****** ****** ****** ****** ****** ****** ****** ******
  11  ****** ****** ****** ****** ****** ****** ****** ****** ****** ******
      ****** ****** ****** ****** ****** ****** ****** ****** ****** ******
      ****** ****** ****** ****** ****** ****** ****** ****** ****** ******
  12  ****** ****** ****** ****** ****** ****** ****** ****** ****** ******
      ****** ****** ****** ****** ****** ****** ****** ****** ****** ******
      ****** ****** ****** ****** ****** ****** ****** ****** ****** ******
  13  ****** ****** ****** ****** ****** ****** ****** ****** ****** ******
      ****** ****** ****** ****** ****** ****** ****** ****** ****** ******
      ****** ****** ****** ****** ****** ****** ****** ****** ****** ******
  14  ****** ****** ****** ****** ****** ****** ****** ****** ****** ******
      ****** ****** ****** ****** ****** ****** ****** ****** ****** ******
      ****** ****** ****** ****** ****** ****** ****** ****** ****** ******
  15  ****** ****** ****** ****** ****** ****** ****** ****** ****** ******
      ****** ****** ****** ****** ****** ****** ****** ****** ****** ******
      ****** ****** ****** ****** ****** ****** ****** ****** ****** ******
  16  ****** ****** ****** ****** ****** ****** ****** ****** ****** ******
      ****** ****** ****** ****** ****** ****** ****** ****** ****** ******
      ****** ****** ****** ****** ****** ****** ****** ****** ****** ******
  17  ****** ****** ****** ****** ****** ****** ****** ****** ****** ******
      ****** ****** ****** ****** ****** ****** ****** ****** ****** ******
      ****** ****** ****** ****** ****** ****** ****** ****** ****** ******
  18  ****** ****** ****** ****** ****** ****** ****** ****** ****** ******
      ****** ****** ****** ****** ****** ****** ****** ****** ****** ******
      ****** ****** ****** ****** ****** ****** ****** ****** ****** ******
  19  ****** ****** ****** ****** ****** ****** ****** ****** ****** ******
      ****** ****** ****** ****** ****** ****** ****** ****** ****** ******
      ****** ****** ****** ****** ****** ****** ****** ****** ****** ******
  20  ****** ****** ****** ****** ****** ****** ****** ****** ****** ******
      ****** ****** ****** ****** ****** ****** ****** ****** ****** ******
      ****** ****** ****** ****** ****** ****** ****** ****** ****** ******
  21  ****** ****** ****** ****** ****** ****** ****** ****** ****** ******
      ****** ****** ****** ****** ****** ****** ****** ****** ****** ******
      ****** ****** ****** ****** ****** ****** ****** ****** ****** ******
  22  ****** ****** ****** ****** ****** ****** ****** ****** ****** ******
      ****** ****** ****** ****** ****** ****** ****** ****** ****** ******
      ****** ****** ****** ****** ****** ****** ****** ****** ****** ******
  23  ****** ****** ****** ****** ****** ****** ****** ****** ****** ******
      ****** ****** ****** ****** ****** ****** ****** ****** ****** ******
      ****** ****** ****** ****** ****** ****** ****** ****** ****** ******
  24  ****** ****** ****** ****** ****** ****** ****** ****** ****** ******
      ****** ****** ****** ****** ****** ****** ****** ****** ****** ******
      ****** ****** ****** ****** ****** ****** ****** ****** ****** ******
  25  ****** ****** ****** ****** ****** ****** ****** ****** ****** ******
      ****** ****** ****** ****** ****** ****** ****** ****** ****** ******
      ****** ****** ****** ****** ****** ****** ****** ****** ****** ******

 HEAD WILL BE SAVED ON UNIT   51 AT END OF TIME STEP    1, STRESS PERIOD    1
1
  VOLUMETRIC BUDGET FOR ENTIRE MODEL AT END OF TIME STEP    1, STRESS PERIOD   1
  ------------------------------------------------------------------------------

     CUMULATIVE VOLUMES      L**3       RATES FOR THIS TIME STEP      L**3/T
     ------------------                 ------------------------

           IN:                                      IN:
           ---                                      ---
             STORAGE =    18266501.0161               STORAGE =      198548.9241
       CONSTANT HEAD =     1220022.8679         CONSTANT HEAD =       13261.1181
               WELLS =           0.0000                 WELLS =           0.0000
            RECHARGE =     1269600.0000              RECHARGE =       13800.0000
      STREAM LEAKAGE =      349059.3172        STREAM LEAKAGE =        3794.1230

            TOTAL IN =    21105183.2013              TOTAL IN =      229404.1652

          OUT:                                     OUT:
          ----                                     ----
             STORAGE =           0.0000               STORAGE =           0.0000
       CONSTANT HEAD =           0.0000         CONSTANT HEAD =           0.0000
               WELLS =     2808167.4140                 WELLS =       30523.5588
            RECHARGE =           0.0000              RECHARGE =           0.0000
      STREAM LEAKAGE =    18297016.0689        STREAM LEAKAGE =      198880.6094

           TOTAL OUT =    21105183.4829             TOTAL OUT =      229404.1683

            IN - OUT =          -0.2816              IN - OUT =      -3.0609E-03

 PERCENT DISCREPANCY =          -0.00     PERCENT DISCREPANCY =          -0.00






         TIME SUMMARY AT END OF TIME STEP    1 IN STRESS PERIOD    1
                    SECONDS     MINUTES      HOURS       DAYS        YEARS
                    -----------------------------------------------------------
   TIME STEP LENGTH 7.94880E+06 1.32480E+05  2208.0      92.000     0.25188    
 STRESS PERIOD TIME 7.94880E+06 1.32480E+05  2208.0      92.000     0.25188    
         TOTAL TIME 7.94880E+06 1.32480E+05  2208.0      92.000     0.25188    
1
1
                            STRESS PERIOD NO.    2, LENGTH =   91.00000    
                            -----------------------------------------------

                              NUMBER OF TIME STEPS =     1

                               MULTIPLIER FOR DELT =     1.500

                            INITIAL TIME STEP SIZE =   91.00000    

 WELL NO.  LAYER   ROW   COL   STRESS RATE         
 --------------------------------------------------
      1      1      4     17     -0.1182E+05
      2      1     12     28      -9652.    
      3      1      7      8      -7590.    
      4      1     12      7      -1463.    

      4 WELLS

                 RECHARGE =  2.000000E-03

 REUSING STREAM SEGMENT DATA FROM LAST STRESS PERIOD
 
 SOLVING FOR HEAD 


     7 CALLS TO PCG ROUTINE FOR TIME STEP   1 IN STRESS PERIOD    2
    27 TOTAL ITERATIONS

 OUTPUT CONTROL FOR STRESS PERIOD    2   TIME STEP    1
    SAVE BUDGET
    SAVE HEAD FOR ALL LAYERS
    PRINT HEAD FOR ALL LAYERS
 UBDSV2 SAVING "STREAMFLOW OUT  " ON UNIT  50 AT TIME STEP  1, STRESS PERIOD   2



 STREAM LISTING     PERIOD      2   STEP        1

 LAYER ROW COL. STREAM  RCH.  FLOW INTO     FLOW TO   FLOW OUT OF   OVRLND.     DIRECT     STREAM       STREAM     STREAM     STREAM   STREAMBED  STREAMBED
                SEG.NO.  NO.  STRM. RCH.    AQUIFER    STRM. RCH.    RUNOFF     PRECIP       ET          HEAD       DEPTH      WIDTH   CONDCTNC.   GRADIENT

   1   13    1     1     1    1.0000E+05 -3.7135E+03   1.0371E+05  0.000E+00  0.000E+00  0.000E+00  4.84076E+01  1.463E-01  2.000E+01  2.000E+04 -1.857E-01
   1   13    2     1     2    1.0371E+05 -4.9332E+03   1.0865E+05  0.000E+00  0.000E+00  0.000E+00  4.79340E+01  1.500E-01  2.000E+01  2.000E+04 -2.467E-01
   1   14    3     1     3    1.0865E+05 -1.0680E+03   1.0971E+05  0.000E+00  0.000E+00  0.000E+00  4.74593E+01  1.525E-01  2.000E+01  2.000E+04 -5.340E-02
   1   15    4     1     4    1.0971E+05 -1.1004E+03   1.1082E+05  0.000E+00  0.000E+00  0.000E+00  4.69829E+01  1.534E-01  2.000E+01  2.000E+04 -5.502E-02
   1   16    5     1     5    1.1082E+05 -4.2282E+03   1.1504E+05  0.000E+00  0.000E+00  0.000E+00  4.65079E+01  1.556E-01  2.000E+01  2.000E+04 -2.114E-01
   1   16    6     1     6    1.1504E+05 -2.4609E+03   1.1750E+05  0.000E+00  0.000E+00  0.000E+00  4.60333E+01  1.583E-01  2.000E+01  2.000E+04 -1.230E-01
   1   16    7     1     7    1.1750E+05 -2.3562E+03   1.1986E+05  0.000E+00  0.000E+00  0.000E+00  4.55580E+01  1.603E-01  2.000E+01  2.000E+04 -1.178E-01
   1   16    8     1     8    1.1986E+05 -2.3373E+03   1.2220E+05  0.000E+00  0.000E+00  0.000E+00  4.50827E+01  1.622E-01  2.000E+01  2.000E+04 -1.169E-01
   1   16    9     1     9    1.2220E+05 -2.3340E+03   1.2453E+05  0.000E+00  0.000E+00  0.000E+00  4.46073E+01  1.641E-01  2.000E+01  2.000E+04 -1.167E-01
   1   16   10     1    10    1.2453E+05 -2.3259E+03   1.2686E+05  0.000E+00  0.000E+00  0.000E+00  4.41318E+01  1.659E-01  2.000E+01  2.000E+04 -1.163E-01
   1   16   11     1    11    1.2686E+05 -2.3453E+03   1.2920E+05  0.000E+00  0.000E+00  0.000E+00  4.36564E+01  1.678E-01  2.000E+01  2.000E+04 -1.173E-01
   1   16   12     1    12    1.2920E+05 -4.0992E+03   1.3330E+05  0.000E+00  0.000E+00  0.000E+00  4.31817E+01  1.703E-01  2.000E+01  2.000E+04 -2.050E-01
   1   15   13     1    13    1.3330E+05 -3.9447E+03   1.3725E+05  0.000E+00  0.000E+00  0.000E+00  4.27075E+01  1.734E-01  2.000E+01  2.000E+04 -1.972E-01
   1   14   14     1    14    1.3725E+05 -4.1969E+03   1.4144E+05  0.000E+00  0.000E+00  0.000E+00  4.22333E+01  1.765E-01  2.000E+01  2.000E+04 -2.098E-01
   1   13   15     1    15    1.4144E+05 -4.3864E+03   1.4583E+05  0.000E+00  0.000E+00  0.000E+00  4.17593E+01  1.798E-01  2.000E+01  2.000E+04 -2.193E-01
   1   12   16     1    16    1.4583E+05 -4.8881E+03   1.5072E+05  0.000E+00  0.000E+00  0.000E+00  4.12855E+01  1.832E-01  2.000E+01  2.000E+04 -2.444E-01
   1   12   17     1    17    1.5072E+05 -3.3266E+03   1.5404E+05  0.000E+00  0.000E+00  0.000E+00  4.08112E+01  1.862E-01  2.000E+01  2.000E+04 -1.663E-01
   1   12   18     1    18    1.5404E+05 -3.2238E+03   1.5727E+05  0.000E+00  0.000E+00  0.000E+00  4.03364E+01  1.886E-01  2.000E+01  2.000E+04 -1.612E-01
   1   12   19     1    19    1.5727E+05 -4.1063E+03   1.6137E+05  0.000E+00  0.000E+00  0.000E+00  3.98617E+01  1.913E-01  2.000E+01  2.000E+04 -2.053E-01
   1   13   20     1    20    1.6137E+05 -3.5819E+03   1.6496E+05  0.000E+00  0.000E+00  0.000E+00  3.93872E+01  1.940E-01  2.000E+01  2.000E+04 -1.791E-01
   1   14   21     1    21    1.6496E+05 -3.7092E+03   1.6867E+05  0.000E+00  0.000E+00  0.000E+00  3.89125E+01  1.966E-01  2.000E+01  2.000E+04 -1.855E-01
   1   14   22     1    22    1.6867E+05  4.4753E+03   1.6419E+05  0.000E+00  0.000E+00  0.000E+00  3.84350E+01  1.964E-01  2.000E+01  2.000E+04  2.238E-01
   1    9   30     2     1    5.0000E+04 -1.0964E+03   5.1096E+04  0.000E+00  0.000E+00  0.000E+00  4.02416E+01  1.166E-01  2.000E+01  2.000E+04 -5.482E-02
   1    9   29     2     2    5.1096E+04 -1.3212E+03   5.2418E+04  0.000E+00  0.000E+00  0.000E+00  3.99933E+01  1.183E-01  2.000E+01  2.000E+04 -6.606E-02
   1    9   28     2     3    5.2418E+04 -1.5823E+03   5.4000E+04  0.000E+00  0.000E+00  0.000E+00  3.97453E+01  1.203E-01  2.000E+01  2.000E+04 -7.912E-02
   1    9   27     2     4    5.4000E+04 -3.8709E+03   5.7871E+04  0.000E+00  0.000E+00  0.000E+00  3.94989E+01  1.239E-01  2.000E+01  2.000E+04 -1.935E-01
   1   10   26     2     5    5.7871E+04 -2.0889E+03   5.9960E+04  0.000E+00  0.000E+00  0.000E+00  3.92529E+01  1.279E-01  2.000E+01  2.000E+04 -1.044E-01
   1   11   25     2     6    5.9960E+04 -1.9448E+03   6.1905E+04  0.000E+00  0.000E+00  0.000E+00  3.90055E+01  1.305E-01  2.000E+01  2.000E+04 -9.724E-02
   1   12   24     2     7    6.1905E+04 -2.5130E+03   6.4417E+04  0.000E+00  0.000E+00  0.000E+00  3.87583E+01  1.333E-01  2.000E+01  2.000E+04 -1.256E-01
   1   13   23     2     8    6.4417E+04 -5.6002E+02   6.4977E+04  0.000E+00  0.000E+00  0.000E+00  3.85102E+01  1.352E-01  2.000E+01  2.000E+04 -2.800E-02
   1   14   22     2     9    6.4977E+04  9.7492E+02   6.4003E+04  0.000E+00  0.000E+00  0.000E+00  3.82600E+01  1.350E-01  2.000E+01  2.000E+04  4.875E-02
   1   14   22     3     1    2.2819E+05 -9.1282E+03   2.3732E+05  0.000E+00  0.000E+00  0.000E+00  3.77548E+01  1.993E-01  2.000E+01  2.000E+04 -4.564E-01
   1   15   23     3     2    2.3732E+05 -1.0536E+03   2.3838E+05  0.000E+00  0.000E+00  0.000E+00  3.68685E+01  2.019E-01  2.000E+01  2.000E+04 -5.268E-02
   1   15   24     3     3    2.3838E+05 -6.5337E+02   2.3903E+05  0.000E+00  0.000E+00  0.000E+00  3.59801E+01  2.023E-01  2.000E+01  2.000E+04 -3.267E-02
   1   15   25     3     4    2.3903E+05 -6.3615E+02   2.3966E+05  0.000E+00  0.000E+00  0.000E+00  3.50915E+01  2.026E-01  2.000E+01  2.000E+04 -3.181E-02
   1   15   26     3     5    2.3966E+05 -6.0406E+02   2.4027E+05  0.000E+00  0.000E+00  0.000E+00  3.42030E+01  2.030E-01  2.000E+01  2.000E+04 -3.020E-02
   1   16   27     3     6    2.4027E+05 -6.7519E+02   2.4094E+05  0.000E+00  0.000E+00  0.000E+00  3.33144E+01  2.033E-01  2.000E+01  2.000E+04 -3.376E-02
   1   17   28     3     7    2.4094E+05 -2.2508E+03   2.4319E+05  0.000E+00  0.000E+00  0.000E+00  3.24262E+01  2.040E-01  2.000E+01  2.000E+04 -1.125E-01
   1   18   29     3     8    2.4319E+05 -4.7307E+03   2.4793E+05  0.000E+00  0.000E+00  0.000E+00  3.15391E+01  2.058E-01  2.000E+01  2.000E+04 -2.365E-01
   1   18   30     3     9    2.4793E+05 -4.2838E+03   2.5221E+05  0.000E+00  0.000E+00  0.000E+00  3.06525E+01  2.080E-01  2.000E+01  2.000E+04 -2.142E-01



1
              HEAD IN LAYER   1 AT END OF TIME STEP   1 IN STRESS PERIOD    2
  ---------------------------------------------------------------------------

          1      2      3      4      5      6      7      8      9     10
         11     12     13     14     15     16     17     18     19     20
         21     22     23     24     25     26     27     28     29     30
 .........................................................................
   1  ****** ****** ****** ****** ****** ****** ****** ****** ****** ******
      ****** ****** ****** ****** ****** ****** ****** ****** ****** ******
      ****** ****** ****** ****** ****** ****** ****** ****** ****** ******
   2  ****** ****** ****** ****** ****** ****** ****** ****** ****** ******
      ****** ****** ****** ****** ****** ****** ****** ****** ****** ******
      ****** ****** ****** ****** ****** ****** ****** ****** ****** ******
   3  ****** ****** ****** ****** ****** ****** ****** ****** ****** ******
      ****** ****** ****** ****** ****** ****** ****** ****** ****** ******
      ****** ****** ****** ****** ****** ****** ****** ****** ****** ******
   4  ****** ****** ****** ****** ****** ****** ****** ****** ****** ******
      ****** ****** ****** ****** ****** ****** ****** ****** ****** ******
      ****** ****** ****** ****** ****** ****** ****** ****** ****** ******
   5  ****** ****** ****** ****** ****** ****** ****** ****** ****** ******
      ****** ****** ****** ****** ****** ****** ****** ****** ****** ******
      ****** ****** ****** ****** ****** ****** ****** ****** ****** ******
   6  ****** ****** ****** ****** ****** ****** ****** ****** ****** ******
      ****** ****** ****** ****** ****** ****** ****** ****** ****** ******
      ****** ****** ****** ****** ****** ****** ****** ****** ****** ******
   7  ****** ****** ****** ****** ****** ****** ****** ****** ****** ******
      ****** ****** ****** ****** ****** ****** ****** ****** ****** ******
      ****** ****** ****** ****** ****** ****** ****** ****** ****** ******
   8  ****** ****** ****** ****** ****** ****** ****** ****** ****** ******
      ****** ****** ****** ****** ****** ****** ****** ****** ****** ******
      ****** ****** ****** ****** ****** ****** ****** ****** ****** ******
   9  ****** ****** ****** ****** ****** ****** ****** ****** ****** ******
      ****** ****** ****** ****** ****** ****** ****** ****** ****** ******
      ****** ****** ****** ****** ****** ****** ****** ****** ****** ******
  10  ****** ****** ****** ****** ****** ****** ****** ****** ****** ******
      ****** ****** ****** ****** ****** ****** ****** ****** ****** ******
      ****** ****** ****** ****** ****** ****** ****** ****** ****** ******
  11  ****** ****** ****** ****** ****** ****** ****** ****** ****** ******
      ****** ****** ****** ****** ****** ****** ****** ****** ****** ******
      ****** ****** ****** ****** ****** ****** ****** ****** ****** ******
  12  ****** ****** ****** ****** ****** ****** ****** ****** ****** ******
      ****** ****** ****** ****** ****** ****** ****** ****** ****** ******
      ****** ****** ****** ****** ****** ****** ****** ****** ****** ******
  13  ****** ****** ****** ****** ****** ****** ****** ****** ****** ******
      ****** ****** ****** ****** ****** ****** ****** ****** ****** ******
      ****** ****** ****** ****** ****** ****** ****** ****** ****** ******
  14  ****** ****** ****** ****** ****** ****** ****** ****** ****** ******
      ****** ****** ****** ****** ****** ****** ****** ****** ****** ******
      ****** ****** ****** ****** ****** ****** ****** ****** ****** ******
  15  ****** ****** ****** ****** ****** ****** ****** ****** ****** ******
      ****** ****** ****** ****** ****** ****** ****** ****** ****** ******
      ****** ****** ****** ****** ****** ****** ****** ****** ****** ******
  16  ****** ****** ****** ****** ****** ****** ****** ****** ****** ******
      ****** ****** ****** ****** ****** ****** ****** ****** ****** ******
      ****** ****** ****** ****** ****** ****** ****** ****** ****** ******
  17  ****** ****** ****** ****** ****** ****** ****** ****** ****** ******
      ****** ****** ****** ****** ****** ****** ****** ****** ****** ******
      ****** ****** ****** ****** ****** ****** ****** ****** ****** ******
  18  ****** ****** ****** ****** ****** ****** ****** ****** ****** ******
      ****** ****** ****** ****** ****** ****** ****** ****** ****** ******
      ****** ****** ****** ****** ****** ****** ****** ****** ****** ******
  19  ****** ****** ****** ****** ****** ****** ****** ****** ****** ******
      ****** ****** ****** ****** ****** ****** ****** ****** ****** ******
      ****** ****** ****** ****** ****** ****** ****** ****** ****** ******
  20  ****** ****** ****** ****** ****** ****** ****** ****** ****** ******
      ****** ****** ****** ****** ****** ****** ****** ****** ****** ******
      ****** ****** ****** ****** ****** ****** ****** ****** ****** ******
  21  ****** ****** ****** ****** ****** ****** ****** ****** ****** ******
      ****** ****** ****** ****** ****** ****** ****** ****** ****** ******
      ****** ****** ****** ****** ****** ****** ****** ****** ****** ******
  22  ****** ****** ****** ****** ****** ****** ****** ****** ****** ******
      ****** ****** ****** ****** ****** ****** ****** ****** ****** ******
      ****** ****** ****** ****** ****** ****** ****** ****** ****** ******
  23  ****** ****** ****** ****** ****** ****** ****** ****** ****** ******
      ****** ****** ****** ****** ****** ****** ****** ****** ****** ******
      ****** ****** ****** ****** ****** ****** ****** ****** ****** ******
  24  ****** ****** ****** ****** ****** ****** ****** ****** ****** ******
      ****** ****** ****** ****** ****** ****** ****** ****** ****** ******
      ****** ****** ****** ****** ****** ****** ****** ****** ****** ******
  25  ****** ****** ****** ****** ****** ****** ****** ****** ****** ******
      ****** ****** ****** ****** ****** ****** ****** ****** ****** ******
      ****** ****** ****** ****** ****** ****** ****** ****** ****** ******

 HEAD WILL BE SAVED ON UNIT   51 AT END OF TIME STEP    1, STRESS PERIOD    2
1
  VOLUMETRIC BUDGET FOR ENTIRE MODEL AT END OF TIME STEP    1, STRESS PERIOD   2
  ------------------------------------------------------------------------------

     CUMULATIVE VOLUMES      L**3       RATES FOR THIS TIME STEP      L**3/T
     ------------------                 ------------------------

           IN:                                      IN:
           ---                                      ---
             STORAGE =    23649794.0722               STORAGE =       59157.0666
       CONSTANT HEAD =     2892209.9520         CONSTANT HEAD =       18375.6822
               WELLS =           0.0000                 WELLS =           0.0000
            RECHARGE =     6292800.0000              RECHARGE =       55200.0000
      STREAM LEAKAGE =      845031.5701        STREAM LEAKAGE =        5450.2445

            TOTAL IN =    33679835.5943              TOTAL IN =      138182.9933

          OUT:                                     OUT:
          ----                                     ----
             STORAGE =           0.0000               STORAGE =           0.0000
       CONSTANT HEAD =           0.0000         CONSTANT HEAD =           0.0000
               WELLS =     5585811.2692                 WELLS =       30523.5588
            RECHARGE =           0.0000              RECHARGE =           0.0000
      STREAM LEAKAGE =    28094025.5408        STREAM LEAKAGE =      107659.4447

           TOTAL OUT =    33679836.8100             TOTAL OUT =      138183.0036

            IN - OUT =          -1.2157              IN - OUT =      -1.0265E-02

 PERCENT DISCREPANCY =          -0.00     PERCENT DISCREPANCY =          -0.00






         TIME SUMMARY AT END OF TIME STEP    1 IN STRESS PERIOD    2
                    SECONDS     MINUTES      HOURS       DAYS        YEARS
                    -----------------------------------------------------------
   TIME STEP LENGTH 7.86240E+06 1.31040E+05  2184.0      91.000     0.24914    
 STRESS PERIOD TIME 7.86240E+06 1.31040E+05  2184.0      91.000     0.24914    
         TOTAL TIME 1.58112E+07 2.63520E+05  4392.0      183.00     0.50103    
1
1
                            STRESS PERIOD NO.    3, LENGTH =   91.00000    
                            -----------------------------------------------

                              NUMBER OF TIME STEPS =     1

                               MULTIPLIER FOR DELT =     1.500

                            INITIAL TIME STEP SIZE =   91.00000    

 WELL NO.  LAYER   ROW   COL   STRESS RATE         
 --------------------------------------------------
      1      1      4     17     -0.1182E+05
      2      1     12     28      -9652.    
      3      1      7      8      -7590.    
      4      1     12      7      -1463.    

      4 WELLS

                 RECHARGE =   0.00000    

 REUSING STREAM SEGMENT DATA FROM LAST STRESS PERIOD
 
 SOLVING FOR HEAD 


     7 CALLS TO PCG ROUTINE FOR TIME STEP   1 IN STRESS PERIOD    3
    27 TOTAL ITERATIONS

 OUTPUT CONTROL FOR STRESS PERIOD    3   TIME STEP    1
    SAVE BUDGET
    SAVE HEAD FOR ALL LAYERS
    PRINT HEAD FOR ALL LAYERS
 UBDSV2 SAVING "STREAMFLOW OUT  " ON UNIT  50 AT TIME STEP  1, STRESS PERIOD   3



 STREAM LISTING     PERIOD      3   STEP        1

 LAYER ROW COL. STREAM  RCH.  FLOW INTO     FLOW TO   FLOW OUT OF   OVRLND.     DIRECT     STREAM       STREAM     STREAM     STREAM   STREAMBED  STREAMBED
                SEG.NO.  NO.  STRM. RCH.    AQUIFER    STRM. RCH.    RUNOFF     PRECIP       ET          HEAD       DEPTH      WIDTH   CONDCTNC.   GRADIENT

   1   13    1     1     1    1.0000E+05 -2.3172E+03   1.0232E+05  0.000E+00  0.000E+00  0.000E+00  4.84070E+01  1.457E-01  2.000E+01  2.000E+04 -1.159E-01
   1   13    2     1     2    1.0232E+05 -3.3590E+03   1.0568E+05  0.000E+00  0.000E+00  0.000E+00  4.79322E+01  1.481E-01  2.000E+01  2.000E+04 -1.680E-01
   1   14    3     1     3    1.0568E+05 -5.8183E+02   1.0626E+05  0.000E+00  0.000E+00  0.000E+00  4.74566E+01  1.498E-01  2.000E+01  2.000E+04 -2.909E-02
   1   15    4     1     4    1.0626E+05 -5.7420E+02   1.0683E+05  0.000E+00  0.000E+00  0.000E+00  4.69798E+01  1.503E-01  2.000E+01  2.000E+04 -2.871E-02
   1   16    5     1     5    1.0683E+05 -2.4245E+03   1.0926E+05  0.000E+00  0.000E+00  0.000E+00  4.65038E+01  1.515E-01  2.000E+01  2.000E+04 -1.212E-01
   1   16    6     1     6    1.0926E+05 -1.4401E+03   1.1070E+05  0.000E+00  0.000E+00  0.000E+00  4.60281E+01  1.531E-01  2.000E+01  2.000E+04 -7.201E-02
   1   16    7     1     7    1.1070E+05 -1.3909E+03   1.1209E+05  0.000E+00  0.000E+00  0.000E+00  4.55521E+01  1.543E-01  2.000E+01  2.000E+04 -6.955E-02
   1   16    8     1     8    1.1209E+05 -1.3919E+03   1.1348E+05  0.000E+00  0.000E+00  0.000E+00  4.50759E+01  1.555E-01  2.000E+01  2.000E+04 -6.959E-02
   1   16    9     1     9    1.1348E+05 -1.3977E+03   1.1488E+05  0.000E+00  0.000E+00  0.000E+00  4.45998E+01  1.566E-01  2.000E+01  2.000E+04 -6.989E-02
   1   16   10     1    10    1.1488E+05 -1.3964E+03   1.1627E+05  0.000E+00  0.000E+00  0.000E+00  4.41237E+01  1.578E-01  2.000E+01  2.000E+04 -6.982E-02
   1   16   11     1    11    1.1627E+05 -1.4169E+03   1.1769E+05  0.000E+00  0.000E+00  0.000E+00  4.36476E+01  1.589E-01  2.000E+01  2.000E+04 -7.085E-02
   1   16   12     1    12    1.1769E+05 -2.4782E+03   1.2017E+05  0.000E+00  0.000E+00  0.000E+00  4.31719E+01  1.605E-01  2.000E+01  2.000E+04 -1.239E-01
   1   15   13     1    13    1.2017E+05 -2.2328E+03   1.2240E+05  0.000E+00  0.000E+00  0.000E+00  4.26965E+01  1.624E-01  2.000E+01  2.000E+04 -1.116E-01
   1   14   14     1    14    1.2240E+05 -2.3959E+03   1.2480E+05  0.000E+00  0.000E+00  0.000E+00  4.22211E+01  1.643E-01  2.000E+01  2.000E+04 -1.198E-01
   1   13   15     1    15    1.2480E+05 -2.5377E+03   1.2734E+05  0.000E+00  0.000E+00  0.000E+00  4.17458E+01  1.662E-01  2.000E+01  2.000E+04 -1.269E-01
   1   12   16     1    16    1.2734E+05 -2.8954E+03   1.3023E+05  0.000E+00  0.000E+00  0.000E+00  4.12706E+01  1.684E-01  2.000E+01  2.000E+04 -1.448E-01
   1   12   17     1    17    1.3023E+05 -1.9314E+03   1.3216E+05  0.000E+00  0.000E+00  0.000E+00  4.07952E+01  1.702E-01  2.000E+01  2.000E+04 -9.657E-02
   1   12   18     1    18    1.3216E+05 -1.8647E+03   1.3403E+05  0.000E+00  0.000E+00  0.000E+00  4.03194E+01  1.717E-01  2.000E+01  2.000E+04 -9.324E-02
   1   12   19     1    19    1.3403E+05 -2.3992E+03   1.3643E+05  0.000E+00  0.000E+00  0.000E+00  3.98438E+01  1.734E-01  2.000E+01  2.000E+04 -1.200E-01
   1   13   20     1    20    1.3643E+05 -2.0948E+03   1.3852E+05  0.000E+00  0.000E+00  0.000E+00  3.93683E+01  1.751E-01  2.000E+01  2.000E+04 -1.047E-01
   1   14   21     1    21    1.3852E+05 -2.2492E+03   1.4077E+05  0.000E+00  0.000E+00  0.000E+00  3.88927E+01  1.767E-01  2.000E+01  2.000E+04 -1.125E-01
   1   14   22     1    22    1.4077E+05  4.8336E+03   1.3594E+05  0.000E+00  0.000E+00  0.000E+00  3.84144E+01  1.758E-01  2.000E+01  2.000E+04  2.417E-01
   1    9   30     2     1    5.0000E+04  1.6246E+02   4.9838E+04  0.000E+00  0.000E+00  0.000E+00  4.02408E+01  1.158E-01  2.000E+01  2.000E+04  8.123E-03
   1    9   29     2     2    4.9838E+04 -6.3513E+01   4.9901E+04  0.000E+00  0.000E+00  0.000E+00  3.99907E+01  1.157E-01  2.000E+01  2.000E+04 -3.176E-03
   1    9   28     2     3    4.9901E+04 -3.0967E+02   5.0211E+04  0.000E+00  0.000E+00  0.000E+00  3.97409E+01  1.159E-01  2.000E+01  2.000E+04 -1.548E-02
   1    9   27     2     4    5.0211E+04 -2.0323E+03   5.2243E+04  0.000E+00  0.000E+00  0.000E+00  3.94926E+01  1.176E-01  2.000E+01  2.000E+04 -1.016E-01
   1   10   26     2     5    5.2243E+04 -3.5567E+02   5.2599E+04  0.000E+00  0.000E+00  0.000E+00  3.92442E+01  1.192E-01  2.000E+01  2.000E+04 -1.778E-02
   1   11   25     2     6    5.2599E+04 -3.2865E+02   5.2927E+04  0.000E+00  0.000E+00  0.000E+00  3.89947E+01  1.197E-01  2.000E+01  2.000E+04 -1.643E-02
   1   12   24     2     7    5.2927E+04 -1.0744E+03   5.4002E+04  0.000E+00  0.000E+00  0.000E+00  3.87456E+01  1.206E-01  2.000E+01  2.000E+04 -5.372E-02
   1   13   23     2     8    5.4002E+04 -2.1201E+02   5.4214E+04  0.000E+00  0.000E+00  0.000E+00  3.84965E+01  1.215E-01  2.000E+01  2.000E+04 -1.060E-02
   1   14   22     2     9    5.4214E+04  1.4585E+03   5.2755E+04  0.000E+00  0.000E+00  0.000E+00  3.82456E+01  1.206E-01  2.000E+01  2.000E+04  7.293E-02
   1   14   22     3     1    1.8869E+05 -8.7806E+03   1.9747E+05  0.000E+00  0.000E+00  0.000E+00  3.77337E+01  1.781E-01  2.000E+01  2.000E+04 -4.390E-01
   1   15   23     3     2    1.9747E+05 -6.6766E+02   1.9814E+05  0.000E+00  0.000E+00  0.000E+00  3.68474E+01  1.807E-01  2.000E+01  2.000E+04 -3.338E-02
   1   15   24     3     3    1.9814E+05 -3.3148E+02   1.9847E+05  0.000E+00  0.000E+00  0.000E+00  3.59588E+01  1.810E-01  2.000E+01  2.000E+04 -1.657E-02
   1   15   25     3     4    1.9847E+05 -2.9439E+02   1.9877E+05  0.000E+00  0.000E+00  0.000E+00  3.50701E+01  1.812E-01  2.000E+01  2.000E+04 -1.472E-02
   1   15   26     3     5    1.9877E+05 -1.8576E+02   1.9895E+05  0.000E+00  0.000E+00  0.000E+00  3.41813E+01  1.813E-01  2.000E+01  2.000E+04 -9.288E-03
   1   16   27     3     6    1.9895E+05 -1.9633E+02   1.9915E+05  0.000E+00  0.000E+00  0.000E+00  3.32925E+01  1.814E-01  2.000E+01  2.000E+04 -9.816E-03
   1   17   28     3     7    1.9915E+05 -7.8380E+02   1.9993E+05  0.000E+00  0.000E+00  0.000E+00  3.24039E+01  1.817E-01  2.000E+01  2.000E+04 -3.919E-02
   1   18   29     3     8    1.9993E+05 -3.2064E+03   2.0314E+05  0.000E+00  0.000E+00  0.000E+00  3.15161E+01  1.828E-01  2.000E+01  2.000E+04 -1.603E-01
   1   18   30     3     9    2.0314E+05 -3.1289E+03   2.0627E+05  0.000E+00  0.000E+00  0.000E+00  3.06289E+01  1.845E-01  2.000E+01  2.000E+04 -1.564E-01



1
              HEAD IN LAYER   1 AT END OF TIME STEP   1 IN STRESS PERIOD    3
  ---------------------------------------------------------------------------

          1      2      3      4      5      6      7      8      9     10
         11     12     13     14     15     16     17     18     19     20
         21     22     23     24     25     26     27     28     29     30
 .........................................................................
   1  ****** ****** ****** ****** ****** ****** ****** ****** ****** ******
      ****** ****** ****** ****** ****** ****** ****** ****** ****** ******
      ****** ****** ****** ****** ****** ****** ****** ****** ****** ******
   2  ****** ****** ****** ****** ****** ****** ****** ****** ****** ******
      ****** ****** ****** ****** ****** ****** ****** ****** ****** ******
      ****** ****** ****** ****** ****** ****** ****** ****** ****** ******
   3  ****** ****** ****** ****** ****** ****** ****** ****** ****** ******
      ****** ****** ****** ****** ****** ****** ****** ****** ****** ******
      ****** ****** ****** ****** ****** ****** ****** ****** ****** ******
   4  ****** ****** ****** ****** ****** ****** ****** ****** ****** ******
      ****** ****** ****** ****** ****** ****** ****** ****** ****** ******
      ****** ****** ****** ****** ****** ****** ****** ****** ****** ******
   5  ****** ****** ****** ****** ****** ****** ****** ****** ****** ******
      ****** ****** ****** ****** ****** ****** ****** ****** ****** ******
      ****** ****** ****** ****** ****** ****** ****** ****** ****** ******
   6  ****** ****** ****** ****** ****** ****** ****** ****** ****** ******
      ****** ****** ****** ****** ****** ****** ****** ****** ****** ******
      ****** ****** ****** ****** ****** ****** ****** ****** ****** ******
   7  ****** ****** ****** ****** ****** ****** ****** ****** ****** ******
      ****** ****** ****** ****** ****** ****** ****** ****** ****** ******
      ****** ****** ****** ****** ****** ****** ****** ****** ****** ******
   8  ****** ****** ****** ****** ****** ****** ****** ****** ****** ******
      ****** ****** ****** ****** ****** ****** ****** ****** ****** ******
      ****** ****** ****** ****** ****** ****** ****** ****** ****** ******
   9  ****** ****** ****** ****** ****** ****** ****** ****** ****** ******
      ****** ****** ****** ****** ****** ****** ****** ****** ****** ******
      ****** ****** ****** ****** ****** ****** ****** ****** ****** ******
  10  ****** ****** ****** ****** ****** ****** ****** ****** ****** ******
      ****** ****** ****** ****** ****** ****** ****** ****** ****** ******
      ****** ****** ****** ****** ****** ****** ****** ****** ****** ******
  11  ****** ****** ****** ****** ****** ****** ****** ****** ****** ******
      ****** ****** ****** ****** ****** ****** ****** ****** ****** ******
      ****** ****** ****** ****** ****** ****** ****** ****** ****** ******
  12  ****** ****** ****** ****** ****** ****** ****** ****** ****** ******
      ****** ****** ****** ****** ****** ****** ****** ****** ****** ******
      ****** ****** ****** ****** ****** ****** ****** ****** ****** ******
  13  ****** ****** ****** ****** ****** ****** ****** ****** ****** ******
      ****** ****** ****** ****** ****** ****** ****** ****** ****** ******
      ****** ****** ****** ****** ****** ****** ****** ****** ****** ******
  14  ****** ****** ****** ****** ****** ****** ****** ****** ****** ******
      ****** ****** ****** ****** ****** ****** ****** ****** ****** ******
      ****** ****** ****** ****** ****** ****** ****** ****** ****** ******
  15  ****** ****** ****** ****** ****** ****** ****** ****** ****** ******
      ****** ****** ****** ****** ****** ****** ****** ****** ****** ******
      ****** ****** ****** ****** ****** ****** ****** ****** ****** ******
  16  ****** ****** ****** ****** ****** ****** ****** ****** ****** ******
      ****** ****** ****** ****** ****** ****** ****** ****** ****** ******
      ****** ****** ****** ****** ****** ****** ****** ****** ****** ******
  17  ****** ****** ****** ****** ****** ****** ****** ****** ****** ******
      ****** ****** ****** ****** ****** ****** ****** ****** ****** ******
      ****** ****** ****** ****** ****** ****** ****** ****** ****** ******
  18  ****** ****** ****** ****** ****** ****** ****** ****** ****** ******
      ****** ****** ****** ****** ****** ****** ****** ****** ****** ******
      ****** ****** ****** ****** ****** ****** ****** ****** ****** ******
  19  ****** ****** ****** ****** ****** ****** ****** ****** ****** ******
      ****** ****** ****** ****** ****** ****** ****** ****** ****** ******
      ****** ****** ****** ****** ****** ****** ****** ****** ****** ******
  20  ****** ****** ****** ****** ****** ****** ****** ****** ****** ******
      ****** ****** ****** ****** ****** ****** ****** ****** ****** ******
      ****** ****** ****** ****** ****** ****** ****** ****** ****** ******
  21  ****** ****** ****** ****** ****** ****** ****** ****** ****** ******
      ****** ****** ****** ****** ****** ****** ****** ****** ****** ******
      ****** ****** ****** ****** ****** ****** ****** ****** ****** ******
  22  ****** ****** ****** ****** ****** ****** ****** ****** ****** ******
      ****** ****** ****** ****** ****** ****** ****** ****** ****** ******
      ****** ****** ****** ****** ****** ****** ****** ****** ****** ******
  23  ****** ****** ****** ****** ****** ****** ****** ****** ****** ******
      ****** ****** ****** ****** ****** ****** ****** ****** ****** ******
      ****** ****** ****** ****** ****** ****** ****** ****** ****** ******
  24  ****** ****** ****** ****** ****** ****** ****** ****** ****** ******
      ****** ****** ****** ****** ****** ****** ****** ****** ****** ******
      ****** ****** ****** ****** ****** ****** ****** ****** ****** ******
  25  ****** ****** ****** ****** ****** ****** ****** ****** ****** ******
      ****** ****** ****** ****** ****** ****** ****** ****** ****** ******
      ****** ****** ****** ****** ****** ****** ****** ****** ****** ******

 HEAD WILL BE SAVED ON UNIT   51 AT END OF TIME STEP    1, STRESS PERIOD    3
1
  VOLUMETRIC BUDGET FOR ENTIRE MODEL AT END OF TIME STEP    1, STRESS PERIOD   3
  ------------------------------------------------------------------------------

     CUMULATIVE VOLUMES      L**3       RATES FOR THIS TIME STEP      L**3/T
     ------------------                 ------------------------

           IN:                                      IN:
           ---                                      ---
             STORAGE =    29055711.0369               STORAGE =       59405.6809
       CONSTANT HEAD =     5384252.5402         CONSTANT HEAD =       27385.0834
               WELLS =           0.0000                 WELLS =           0.0000
            RECHARGE =     6292800.0000              RECHARGE =           0.0000
      STREAM LEAKAGE =     1432394.8407        STREAM LEAKAGE =        6454.5414

            TOTAL IN =    42165158.4178              TOTAL IN =       93245.3058

          OUT:                                     OUT:
          ----                                     ----
             STORAGE =           0.0000               STORAGE =           0.0000
       CONSTANT HEAD =           0.0000         CONSTANT HEAD =           0.0000
               WELLS =     8363455.1243                 WELLS =       30523.5588
            RECHARGE =           0.0000              RECHARGE =           0.0000
      STREAM LEAKAGE =    33801705.1963        STREAM LEAKAGE =       62721.7545

           TOTAL OUT =    42165160.3206             TOTAL OUT =       93245.3133

            IN - OUT =          -1.9028              IN - OUT =      -7.5501E-03

 PERCENT DISCREPANCY =          -0.00     PERCENT DISCREPANCY =          -0.00






         TIME SUMMARY AT END OF TIME STEP    1 IN STRESS PERIOD    3
                    SECONDS     MINUTES      HOURS       DAYS        YEARS
                    -----------------------------------------------------------
   TIME STEP LENGTH 7.86240E+06 1.31040E+05  2184.0      91.000     0.24914    
 STRESS PERIOD TIME 7.86240E+06 1.31040E+05  2184.0      91.000     0.24914    
         TOTAL TIME 2.36736E+07 3.94560E+05  6576.0      274.00     0.75017    
1
1
                            STRESS PERIOD NO.    4, LENGTH =   91.00000    
                            -----------------------------------------------

                              NUMBER OF TIME STEPS =     1

                               MULTIPLIER FOR DELT =     1.500

                            INITIAL TIME STEP SIZE =   91.00000    

 WELL NO.  LAYER   ROW   COL   STRESS RATE         
 --------------------------------------------------
      1      1      4     17     -0.1182E+05
      2      1     12     28      -9652.    
      3      1      7      8      -7590.    
      4      1     12      7      -1463.    

      4 WELLS

                 RECHARGE =  1.000000E-03

 REUSING STREAM SEGMENT DATA FROM LAST STRESS PERIOD
 
 SOLVING FOR HEAD 


     6 CALLS TO PCG ROUTINE FOR TIME STEP   1 IN STRESS PERIOD    4
    23 TOTAL ITERATIONS

 OUTPUT CONTROL FOR STRESS PERIOD    4   TIME STEP    1
    SAVE BUDGET
    SAVE HEAD FOR ALL LAYERS
    PRINT HEAD FOR ALL LAYERS
 UBDSV2 SAVING "STREAMFLOW OUT  " ON UNIT  50 AT TIME STEP  1, STRESS PERIOD   4



 STREAM LISTING     PERIOD      4   STEP        1

 LAYER ROW COL. STREAM  RCH.  FLOW INTO     FLOW TO   FLOW OUT OF   OVRLND.     DIRECT     STREAM       STREAM     STREAM     STREAM   STREAMBED  STREAMBED
                SEG.NO.  NO.  STRM. RCH.    AQUIFER    STRM. RCH.    RUNOFF     PRECIP       ET          HEAD       DEPTH      WIDTH   CONDCTNC.   GRADIENT

   1   13    1     1     1    1.0000E+05 -1.9657E+03   1.0197E+05  0.000E+00  0.000E+00  0.000E+00  4.84069E+01  1.455E-01  2.000E+01  2.000E+04 -9.828E-02
   1   13    2     1     2    1.0197E+05 -2.9488E+03   1.0491E+05  0.000E+00  0.000E+00  0.000E+00  4.79317E+01  1.476E-01  2.000E+01  2.000E+04 -1.474E-01
   1   14    3     1     3    1.0491E+05 -5.3286E+02   1.0545E+05  0.000E+00  0.000E+00  0.000E+00  4.74559E+01  1.491E-01  2.000E+01  2.000E+04 -2.664E-02
   1   15    4     1     4    1.0545E+05 -5.1928E+02   1.0597E+05  0.000E+00  0.000E+00  0.000E+00  4.69791E+01  1.496E-01  2.000E+01  2.000E+04 -2.596E-02
   1   16    5     1     5    1.0597E+05 -2.1176E+03   1.0808E+05  0.000E+00  0.000E+00  0.000E+00  4.65029E+01  1.507E-01  2.000E+01  2.000E+04 -1.059E-01
   1   16    6     1     6    1.0808E+05 -1.2794E+03   1.0936E+05  0.000E+00  0.000E+00  0.000E+00  4.60271E+01  1.521E-01  2.000E+01  2.000E+04 -6.397E-02
   1   16    7     1     7    1.0936E+05 -1.2398E+03   1.1060E+05  0.000E+00  0.000E+00  0.000E+00  4.55509E+01  1.532E-01  2.000E+01  2.000E+04 -6.199E-02
   1   16    8     1     8    1.1060E+05 -1.2461E+03   1.1185E+05  0.000E+00  0.000E+00  0.000E+00  4.50746E+01  1.542E-01  2.000E+01  2.000E+04 -6.231E-02
   1   16    9     1     9    1.1185E+05 -1.2582E+03   1.1311E+05  0.000E+00  0.000E+00  0.000E+00  4.45984E+01  1.552E-01  2.000E+01  2.000E+04 -6.291E-02
   1   16   10     1    10    1.1311E+05 -1.2653E+03   1.1437E+05  0.000E+00  0.000E+00  0.000E+00  4.41222E+01  1.563E-01  2.000E+01  2.000E+04 -6.326E-02
   1   16   11     1    11    1.1437E+05 -1.2919E+03   1.1567E+05  0.000E+00  0.000E+00  0.000E+00  4.36460E+01  1.573E-01  2.000E+01  2.000E+04 -6.460E-02
   1   16   12     1    12    1.1567E+05 -2.2107E+03   1.1788E+05  0.000E+00  0.000E+00  0.000E+00  4.31701E+01  1.588E-01  2.000E+01  2.000E+04 -1.105E-01
   1   15   13     1    13    1.1788E+05 -1.9473E+03   1.1982E+05  0.000E+00  0.000E+00  0.000E+00  4.26945E+01  1.604E-01  2.000E+01  2.000E+04 -9.736E-02
   1   14   14     1    14    1.1982E+05 -2.0609E+03   1.2188E+05  0.000E+00  0.000E+00  0.000E+00  4.22189E+01  1.621E-01  2.000E+01  2.000E+04 -1.030E-01
   1   13   15     1    15    1.2188E+05 -2.1518E+03   1.2404E+05  0.000E+00  0.000E+00  0.000E+00  4.17433E+01  1.638E-01  2.000E+01  2.000E+04 -1.076E-01
   1   12   16     1    16    1.2404E+05 -2.3655E+03   1.2640E+05  0.000E+00  0.000E+00  0.000E+00  4.12678E+01  1.655E-01  2.000E+01  2.000E+04 -1.183E-01
   1   12   17     1    17    1.2640E+05 -1.6291E+03   1.2803E+05  0.000E+00  0.000E+00  0.000E+00  4.07921E+01  1.671E-01  2.000E+01  2.000E+04 -8.145E-02
   1   12   18     1    18    1.2803E+05 -1.5906E+03   1.2962E+05  0.000E+00  0.000E+00  0.000E+00  4.03161E+01  1.684E-01  2.000E+01  2.000E+04 -7.953E-02
   1   12   19     1    19    1.2962E+05 -2.0579E+03   1.3168E+05  0.000E+00  0.000E+00  0.000E+00  3.98403E+01  1.698E-01  2.000E+01  2.000E+04 -1.029E-01
   1   13   20     1    20    1.3168E+05 -1.9039E+03   1.3358E+05  0.000E+00  0.000E+00  0.000E+00  3.93645E+01  1.714E-01  2.000E+01  2.000E+04 -9.520E-02
   1   14   21     1    21    1.3358E+05 -2.0314E+03   1.3561E+05  0.000E+00  0.000E+00  0.000E+00  3.88888E+01  1.729E-01  2.000E+01  2.000E+04 -1.016E-01
   1   14   22     1    22    1.3561E+05  4.8658E+03   1.3075E+05  0.000E+00  0.000E+00  0.000E+00  3.84104E+01  1.718E-01  2.000E+01  2.000E+04  2.433E-01
   1    9   30     2     1    5.0000E+04  2.7380E+02   4.9726E+04  0.000E+00  0.000E+00  0.000E+00  4.02407E+01  1.157E-01  2.000E+01  2.000E+04  1.369E-02
   1    9   29     2     2    4.9726E+04  5.6050E+01   4.9670E+04  0.000E+00  0.000E+00  0.000E+00  3.99904E+01  1.154E-01  2.000E+01  2.000E+04  2.803E-03
   1    9   28     2     3    4.9670E+04 -1.6654E+02   4.9837E+04  0.000E+00  0.000E+00  0.000E+00  3.97405E+01  1.155E-01  2.000E+01  2.000E+04 -8.327E-03
   1    9   27     2     4    4.9837E+04 -1.7130E+03   5.1550E+04  0.000E+00  0.000E+00  0.000E+00  3.94918E+01  1.168E-01  2.000E+01  2.000E+04 -8.565E-02
   1   10   26     2     5    5.1550E+04 -1.4948E+02   5.1699E+04  0.000E+00  0.000E+00  0.000E+00  3.92431E+01  1.181E-01  2.000E+01  2.000E+04 -7.474E-03
   1   11   25     2     6    5.1699E+04 -1.6455E+02   5.1864E+04  0.000E+00  0.000E+00  0.000E+00  3.89933E+01  1.183E-01  2.000E+01  2.000E+04 -8.227E-03
   1   12   24     2     7    5.1864E+04 -9.3052E+02   5.2794E+04  0.000E+00  0.000E+00  0.000E+00  3.87441E+01  1.191E-01  2.000E+01  2.000E+04 -4.653E-02
   1   13   23     2     8    5.2794E+04 -2.3049E+02   5.3025E+04  0.000E+00  0.000E+00  0.000E+00  3.84949E+01  1.199E-01  2.000E+01  2.000E+04 -1.152E-02
   1   14   22     2     9    5.3025E+04  1.5368E+03   5.1488E+04  0.000E+00  0.000E+00  0.000E+00  3.82440E+01  1.190E-01  2.000E+01  2.000E+04  7.684E-02
   1   14   22     3     1    1.8224E+05 -8.7411E+03   1.9098E+05  0.000E+00  0.000E+00  0.000E+00  3.77301E+01  1.745E-01  2.000E+01  2.000E+04 -4.371E-01
   1   15   23     3     2    1.9098E+05 -6.4909E+02   1.9163E+05  0.000E+00  0.000E+00  0.000E+00  3.68438E+01  1.771E-01  2.000E+01  2.000E+04 -3.245E-02
   1   15   24     3     3    1.9163E+05 -3.3251E+02   1.9196E+05  0.000E+00  0.000E+00  0.000E+00  3.59552E+01  1.774E-01  2.000E+01  2.000E+04 -1.663E-02
   1   15   25     3     4    1.9196E+05 -2.9404E+02   1.9225E+05  0.000E+00  0.000E+00  0.000E+00  3.50665E+01  1.776E-01  2.000E+01  2.000E+04 -1.470E-02
   1   15   26     3     5    1.9225E+05 -1.9177E+02   1.9244E+05  0.000E+00  0.000E+00  0.000E+00  3.41777E+01  1.777E-01  2.000E+01  2.000E+04 -9.588E-03
   1   16   27     3     6    1.9244E+05 -1.9502E+02   1.9264E+05  0.000E+00  0.000E+00  0.000E+00  3.32889E+01  1.778E-01  2.000E+01  2.000E+04 -9.751E-03
   1   17   28     3     7    1.9264E+05 -7.1348E+02   1.9335E+05  0.000E+00  0.000E+00  0.000E+00  3.24003E+01  1.781E-01  2.000E+01  2.000E+04 -3.567E-02
   1   18   29     3     8    1.9335E+05 -3.0003E+03   1.9635E+05  0.000E+00  0.000E+00  0.000E+00  3.15124E+01  1.791E-01  2.000E+01  2.000E+04 -1.500E-01
   1   18   30     3     9    1.9635E+05 -3.0246E+03   1.9938E+05  0.000E+00  0.000E+00  0.000E+00  3.06252E+01  1.808E-01  2.000E+01  2.000E+04 -1.512E-01



1
              HEAD IN LAYER   1 AT END OF TIME STEP   1 IN STRESS PERIOD    4
  ---------------------------------------------------------------------------

          1      2      3      4      5      6      7      8      9     10
         11     12     13     14     15     16     17     18     19     20
         21     22     23     24     25     26     27     28     29     30
 .........................................................................
   1  ****** ****** ****** ****** ****** ****** ****** ****** ****** ******
      ****** ****** ****** ****** ****** ****** ****** ****** ****** ******
      ****** ****** ****** ****** ****** ****** ****** ****** ****** ******
   2  ****** ****** ****** ****** ****** ****** ****** ****** ****** ******
      ****** ****** ****** ****** ****** ****** ****** ****** ****** ******
      ****** ****** ****** ****** ****** ****** ****** ****** ****** ******
   3  ****** ****** ****** ****** ****** ****** ****** ****** ****** ******
      ****** ****** ****** ****** ****** ****** ****** ****** ****** ******
      ****** ****** ****** ****** ****** ****** ****** ****** ****** ******
   4  ****** ****** ****** ****** ****** ****** ****** ****** ****** ******
      ****** ****** ****** ****** ****** ****** ****** ****** ****** ******
      ****** ****** ****** ****** ****** ****** ****** ****** ****** ******
   5  ****** ****** ****** ****** ****** ****** ****** ****** ****** ******
      ****** ****** ****** ****** ****** ****** ****** ****** ****** ******
      ****** ****** ****** ****** ****** ****** ****** ****** ****** ******
   6  ****** ****** ****** ****** ****** ****** ****** ****** ****** ******
      ****** ****** ****** ****** ****** ****** ****** ****** ****** ******
      ****** ****** ****** ****** ****** ****** ****** ****** ****** ******
   7  ****** ****** ****** ****** ****** ****** ****** ****** ****** ******
      ****** ****** ****** ****** ****** ****** ****** ****** ****** ******
      ****** ****** ****** ****** ****** ****** ****** ****** ****** ******
   8  ****** ****** ****** ****** ****** ****** ****** ****** ****** ******
      ****** ****** ****** ****** ****** ****** ****** ****** ****** ******
      ****** ****** ****** ****** ****** ****** ****** ****** ****** ******
   9  ****** ****** ****** ****** ****** ****** ****** ****** ****** ******
      ****** ****** ****** ****** ****** ****** ****** ****** ****** ******
      ****** ****** ****** ****** ****** ****** ****** ****** ****** ******
  10  ****** ****** ****** ****** ****** ****** ****** ****** ****** ******
      ****** ****** ****** ****** ****** ****** ****** ****** ****** ******
      ****** ****** ****** ****** ****** ****** ****** ****** ****** ******
  11  ****** ****** ****** ****** ****** ****** ****** ****** ****** ******
      ****** ****** ****** ****** ****** ****** ****** ****** ****** ******
      ****** ****** ****** ****** ****** ****** ****** ****** ****** ******
  12  ****** ****** ****** ****** ****** ****** ****** ****** ****** ******
      ****** ****** ****** ****** ****** ****** ****** ****** ****** ******
      ****** ****** ****** ****** ****** ****** ****** ****** ****** ******
  13  ****** ****** ****** ****** ****** ****** ****** ****** ****** ******
      ****** ****** ****** ****** ****** ****** ****** ****** ****** ******
      ****** ****** ****** ****** ****** ****** ****** ****** ****** ******
  14  ****** ****** ****** ****** ****** ****** ****** ****** ****** ******
      ****** ****** ****** ****** ****** ****** ****** ****** ****** ******
      ****** ****** ****** ****** ****** ****** ****** ****** ****** ******
  15  ****** ****** ****** ****** ****** ****** ****** ****** ****** ******
      ****** ****** ****** ****** ****** ****** ****** ****** ****** ******
      ****** ****** ****** ****** ****** ****** ****** ****** ****** ******
  16  ****** ****** ****** ****** ****** ****** ****** ****** ****** ******
      ****** ****** ****** ****** ****** ****** ****** ****** ****** ******
      ****** ****** ****** ****** ****** ****** ****** ****** ****** ******
  17  ****** ****** ****** ****** ****** ****** ****** ****** ****** ******
      ****** ****** ****** ****** ****** ****** ****** ****** ****** ******
      ****** ****** ****** ****** ****** ****** ****** ****** ****** ******
  18  ****** ****** ****** ****** ****** ****** ****** ****** ****** ******
      ****** ****** ****** ****** ****** ****** ****** ****** ****** ******
      ****** ****** ****** ****** ****** ****** ****** ****** ****** ******
  19  ****** ****** ****** ****** ****** ****** ****** ****** ****** ******
      ****** ****** ****** ****** ****** ****** ****** ****** ****** ******
      ****** ****** ****** ****** ****** ****** ****** ****** ****** ******
  20  ****** ****** ****** ****** ****** ****** ****** ****** ****** ******
      ****** ****** ****** ****** ****** ****** ****** ****** ****** ******
      ****** ****** ****** ****** ****** ****** ****** ****** ****** ******
  21  ****** ****** ****** ****** ****** ****** ****** ****** ****** ******
      ****** ****** ****** ****** ****** ****** ****** ****** ****** ******
      ****** ****** ****** ****** ****** ****** ****** ****** ****** ******
  22  ****** ****** ****** ****** ****** ****** ****** ****** ****** ******
      ****** ****** ****** ****** ****** ****** ****** ****** ****** ******
      ****** ****** ****** ****** ****** ****** ****** ****** ****** ******
  23  ****** ****** ****** ****** ****** ****** ****** ****** ****** ******
      ****** ****** ****** ****** ****** ****** ****** ****** ****** ******
      ****** ****** ****** ****** ****** ****** ****** ****** ****** ******
  24  ****** ****** ****** ****** ****** ****** ****** ****** ****** ******
      ****** ****** ****** ****** ****** ****** ****** ****** ****** ******
      ****** ****** ****** ****** ****** ****** ****** ****** ****** ******
  25  ****** ****** ****** ****** ****** ****** ****** ****** ****** ******
      ****** ****** ****** ****** ****** ****** ****** ****** ****** ******
      ****** ****** ****** ****** ****** ****** ****** ****** ****** ******

 HEAD WILL BE SAVED ON UNIT   51 AT END OF TIME STEP    1, STRESS PERIOD    4
1
  VOLUMETRIC BUDGET FOR ENTIRE MODEL AT END OF TIME STEP    1, STRESS PERIOD   4
  ------------------------------------------------------------------------------

     CUMULATIVE VOLUMES      L**3       RATES FOR THIS TIME STEP      L**3/T
     ------------------                 ------------------------

           IN:                                      IN:
           ---                                      ---
             STORAGE =    31054561.8574               STORAGE =       21965.3936
       CONSTANT HEAD =     8145366.2751         CONSTANT HEAD =       30341.9092
               WELLS =           0.0000                 WELLS =           0.0000
            RECHARGE =     8804400.0000              RECHARGE =       27600.0000
      STREAM LEAKAGE =     2045047.0374        STREAM LEAKAGE =        6732.4417

            TOTAL IN =    50049375.1700              TOTAL IN =       86639.7445

          OUT:                                     OUT:
          ----                                     ----
             STORAGE =         509.9714               STORAGE =           5.6041
       CONSTANT HEAD =           0.0000         CONSTANT HEAD =           0.0000
               WELLS =    11141098.9795                 WELLS =       30523.5588
            RECHARGE =           0.0000              RECHARGE =           0.0000
      STREAM LEAKAGE =    38907768.2176        STREAM LEAKAGE =       56110.5827

           TOTAL OUT =    50049377.1685             TOTAL OUT =       86639.7456

            IN - OUT =          -1.9984              IN - OUT =      -1.0511E-03

 PERCENT DISCREPANCY =          -0.00     PERCENT DISCREPANCY =          -0.00






         TIME SUMMARY AT END OF TIME STEP    1 IN STRESS PERIOD    4
                    SECONDS     MINUTES      HOURS       DAYS        YEARS
                    -----------------------------------------------------------
   TIME STEP LENGTH 7.86240E+06 1.31040E+05  2184.0      91.000     0.24914    
 STRESS PERIOD TIME 7.86240E+06 1.31040E+05  2184.0      91.000     0.24914    
         TOTAL TIME 3.15360E+07 5.25600E+05  8760.0      365.00     0.99932    
1
1
                            STRESS PERIOD NO.    5, LENGTH =   92.00000    
                            -----------------------------------------------

                              NUMBER OF TIME STEPS =     1

                               MULTIPLIER FOR DELT =     1.500

                            INITIAL TIME STEP SIZE =   92.00000    

 WELL NO.  LAYER   ROW   COL   STRESS RATE         
 --------------------------------------------------
      1      1      4     17     -0.1182E+05
      2      1     12     28      -9652.    
      3      1      7      8      -7590.    
      4      1     12      7      -1463.    

      4 WELLS

                 RECHARGE =  5.000000E-04

 REUSING STREAM SEGMENT DATA FROM LAST STRESS PERIOD
 
 SOLVING FOR HEAD 


     7 CALLS TO PCG ROUTINE FOR TIME STEP   1 IN STRESS PERIOD    5
    26 TOTAL ITERATIONS

 OUTPUT CONTROL FOR STRESS PERIOD    5   TIME STEP    1
    SAVE BUDGET
    SAVE HEAD FOR ALL LAYERS
    PRINT HEAD FOR ALL LAYERS
 UBDSV2 SAVING "STREAMFLOW OUT  " ON UNIT  50 AT TIME STEP  1, STRESS PERIOD   5



 STREAM LISTING     PERIOD      5   STEP        1

 LAYER ROW COL. STREAM  RCH.  FLOW INTO     FLOW TO   FLOW OUT OF   OVRLND.     DIRECT     STREAM       STREAM     STREAM     STREAM   STREAMBED  STREAMBED
                SEG.NO.  NO.  STRM. RCH.    AQUIFER    STRM. RCH.    RUNOFF     PRECIP       ET          HEAD       DEPTH      WIDTH   CONDCTNC.   GRADIENT

   1   13    1     1     1    1.0000E+05 -1.4612E+03   1.0146E+05  0.000E+00  0.000E+00  0.000E+00  4.84066E+01  1.453E-01  2.000E+01  2.000E+04 -7.306E-02
   1   13    2     1     2    1.0146E+05 -2.3740E+03   1.0384E+05  0.000E+00  0.000E+00  0.000E+00  4.79310E+01  1.469E-01  2.000E+01  2.000E+04 -1.187E-01
   1   14    3     1     3    1.0384E+05 -3.9463E+02   1.0423E+05  0.000E+00  0.000E+00  0.000E+00  4.74549E+01  1.481E-01  2.000E+01  2.000E+04 -1.973E-02
   1   15    4     1     4    1.0423E+05 -3.7769E+02   1.0461E+05  0.000E+00  0.000E+00  0.000E+00  4.69780E+01  1.485E-01  2.000E+01  2.000E+04 -1.888E-02
   1   16    5     1     5    1.0461E+05 -1.6829E+03   1.0629E+05  0.000E+00  0.000E+00  0.000E+00  4.65016E+01  1.493E-01  2.000E+01  2.000E+04 -8.415E-02
   1   16    6     1     6    1.0629E+05 -1.0180E+03   1.0731E+05  0.000E+00  0.000E+00  0.000E+00  4.60255E+01  1.505E-01  2.000E+01  2.000E+04 -5.090E-02
   1   16    7     1     7    1.0731E+05 -9.8742E+02   1.0830E+05  0.000E+00  0.000E+00  0.000E+00  4.55490E+01  1.513E-01  2.000E+01  2.000E+04 -4.937E-02
   1   16    8     1     8    1.0830E+05 -9.9804E+02   1.0929E+05  0.000E+00  0.000E+00  0.000E+00  4.50726E+01  1.522E-01  2.000E+01  2.000E+04 -4.990E-02
   1   16    9     1     9    1.0929E+05 -1.0153E+03   1.1031E+05  0.000E+00  0.000E+00  0.000E+00  4.45962E+01  1.530E-01  2.000E+01  2.000E+04 -5.076E-02
   1   16   10     1    10    1.1031E+05 -1.0293E+03   1.1134E+05  0.000E+00  0.000E+00  0.000E+00  4.41198E+01  1.539E-01  2.000E+01  2.000E+04 -5.147E-02
   1   16   11     1    11    1.1134E+05 -1.0601E+03   1.1240E+05  0.000E+00  0.000E+00  0.000E+00  4.36434E+01  1.547E-01  2.000E+01  2.000E+04 -5.300E-02
   1   16   12     1    12    1.1240E+05 -1.7925E+03   1.1419E+05  0.000E+00  0.000E+00  0.000E+00  4.31673E+01  1.559E-01  2.000E+01  2.000E+04 -8.962E-02
   1   15   13     1    13    1.1419E+05 -1.4809E+03   1.1567E+05  0.000E+00  0.000E+00  0.000E+00  4.26913E+01  1.572E-01  2.000E+01  2.000E+04 -7.405E-02
   1   14   14     1    14    1.1567E+05 -1.5485E+03   1.1722E+05  0.000E+00  0.000E+00  0.000E+00  4.22153E+01  1.585E-01  2.000E+01  2.000E+04 -7.743E-02
   1   13   15     1    15    1.1722E+05 -1.6057E+03   1.1883E+05  0.000E+00  0.000E+00  0.000E+00  4.17393E+01  1.598E-01  2.000E+01  2.000E+04 -8.028E-02
   1   12   16     1    16    1.1883E+05 -1.7434E+03   1.2057E+05  0.000E+00  0.000E+00  0.000E+00  4.12634E+01  1.611E-01  2.000E+01  2.000E+04 -8.717E-02
   1   12   17     1    17    1.2057E+05 -1.2288E+03   1.2180E+05  0.000E+00  0.000E+00  0.000E+00  4.07873E+01  1.623E-01  2.000E+01  2.000E+04 -6.144E-02
   1   12   18     1    18    1.2180E+05 -1.2155E+03   1.2301E+05  0.000E+00  0.000E+00  0.000E+00  4.03110E+01  1.633E-01  2.000E+01  2.000E+04 -6.077E-02
   1   12   19     1    19    1.2301E+05 -1.6023E+03   1.2462E+05  0.000E+00  0.000E+00  0.000E+00  3.98349E+01  1.644E-01  2.000E+01  2.000E+04 -8.011E-02
   1   13   20     1    20    1.2462E+05 -1.5347E+03   1.2615E+05  0.000E+00  0.000E+00  0.000E+00  3.93589E+01  1.657E-01  2.000E+01  2.000E+04 -7.673E-02
   1   14   21     1    21    1.2615E+05 -1.6587E+03   1.2781E+05  0.000E+00  0.000E+00  0.000E+00  3.88829E+01  1.669E-01  2.000E+01  2.000E+04 -8.294E-02
   1   14   22     1    22    1.2781E+05  4.9438E+03   1.2287E+05  0.000E+00  0.000E+00  0.000E+00  3.84043E+01  1.656E-01  2.000E+01  2.000E+04  2.472E-01
   1    9   30     2     1    5.0000E+04  5.1706E+02   4.9483E+04  0.000E+00  0.000E+00  0.000E+00  4.02405E+01  1.155E-01  2.000E+01  2.000E+04  2.585E-02
   1    9   29     2     2    4.9483E+04  3.0376E+02   4.9179E+04  0.000E+00  0.000E+00  0.000E+00  3.99899E+01  1.149E-01  2.000E+01  2.000E+04  1.519E-02
   1    9   28     2     3    4.9179E+04  9.5429E+01   4.9084E+04  0.000E+00  0.000E+00  0.000E+00  3.97397E+01  1.147E-01  2.000E+01  2.000E+04  4.771E-03
   1    9   27     2     4    4.9084E+04 -1.2923E+03   5.0376E+04  0.000E+00  0.000E+00  0.000E+00  3.94905E+01  1.155E-01  2.000E+01  2.000E+04 -6.462E-02
   1   10   26     2     5    5.0376E+04  2.1839E+02   5.0158E+04  0.000E+00  0.000E+00  0.000E+00  3.92412E+01  1.162E-01  2.000E+01  2.000E+04  1.092E-02
   1   11   25     2     6    5.0158E+04  1.7427E+02   4.9983E+04  0.000E+00  0.000E+00  0.000E+00  3.89910E+01  1.160E-01  2.000E+01  2.000E+04  8.714E-03
   1   12   24     2     7    4.9983E+04 -6.1924E+02   5.0603E+04  0.000E+00  0.000E+00  0.000E+00  3.87413E+01  1.163E-01  2.000E+01  2.000E+04 -3.096E-02
   1   13   23     2     8    5.0603E+04 -1.5780E+02   5.0760E+04  0.000E+00  0.000E+00  0.000E+00  3.84918E+01  1.168E-01  2.000E+01  2.000E+04 -7.890E-03
   1   14   22     2     9    5.0760E+04  1.6734E+03   4.9087E+04  0.000E+00  0.000E+00  0.000E+00  3.82408E+01  1.158E-01  2.000E+01  2.000E+04  8.367E-02
   1   14   22     3     1    1.7195E+05 -8.6574E+03   1.8061E+05  0.000E+00  0.000E+00  0.000E+00  3.77242E+01  1.687E-01  2.000E+01  2.000E+04 -4.329E-01
   1   15   23     3     2    1.8061E+05 -5.5313E+02   1.8116E+05  0.000E+00  0.000E+00  0.000E+00  3.68380E+01  1.713E-01  2.000E+01  2.000E+04 -2.766E-02
   1   15   24     3     3    1.8116E+05 -2.6143E+02   1.8142E+05  0.000E+00  0.000E+00  0.000E+00  3.59493E+01  1.715E-01  2.000E+01  2.000E+04 -1.307E-02
   1   15   25     3     4    1.8142E+05 -2.2316E+02   1.8165E+05  0.000E+00  0.000E+00  0.000E+00  3.50606E+01  1.717E-01  2.000E+01  2.000E+04 -1.116E-02
   1   15   26     3     5    1.8165E+05 -1.1907E+02   1.8177E+05  0.000E+00  0.000E+00  0.000E+00  3.41718E+01  1.718E-01  2.000E+01  2.000E+04 -5.954E-03
   1   16   27     3     6    1.8177E+05 -1.0455E+02   1.8187E+05  0.000E+00  0.000E+00  0.000E+00  3.32829E+01  1.718E-01  2.000E+01  2.000E+04 -5.227E-03
   1   17   28     3     7    1.8187E+05 -4.4562E+02   1.8232E+05  0.000E+00  0.000E+00  0.000E+00  3.23942E+01  1.720E-01  2.000E+01  2.000E+04 -2.228E-02
   1   18   29     3     8    1.8232E+05 -2.6325E+03   1.8495E+05  0.000E+00  0.000E+00  0.000E+00  3.15062E+01  1.729E-01  2.000E+01  2.000E+04 -1.316E-01
   1   18   30     3     9    1.8495E+05 -2.7700E+03   1.8772E+05  0.000E+00  0.000E+00  0.000E+00  3.06188E+01  1.744E-01  2.000E+01  2.000E+04 -1.385E-01



1
              HEAD IN LAYER   1 AT END OF TIME STEP   1 IN STRESS PERIOD    5
  ---------------------------------------------------------------------------

          1      2      3      4      5      6      7      8      9     10
         11     12     13     14     15     16     17     18     19     20
         21     22     23     24     25     26     27     28     29     30
 .........................................................................
   1  ****** ****** ****** ****** ****** ****** ****** ****** ****** ******
      ****** ****** ****** ****** ****** ****** ****** ****** ****** ******
      ****** ****** ****** ****** ****** ****** ****** ****** ****** ******
   2  ****** ****** ****** ****** ****** ****** ****** ****** ****** ******
      ****** ****** ****** ****** ****** ****** ****** ****** ****** ******
      ****** ****** ****** ****** ****** ****** ****** ****** ****** ******
   3  ****** ****** ****** ****** ****** ****** ****** ****** ****** ******
      ****** ****** ****** ****** ****** ****** ****** ****** ****** ******
      ****** ****** ****** ****** ****** ****** ****** ****** ****** ******
   4  ****** ****** ****** ****** ****** ****** ****** ****** ****** ******
      ****** ****** ****** ****** ****** ****** ****** ****** ****** ******
      ****** ****** ****** ****** ****** ****** ****** ****** ****** ******
   5  ****** ****** ****** ****** ****** ****** ****** ****** ****** ******
      ****** ****** ****** ****** ****** ****** ****** ****** ****** ******
      ****** ****** ****** ****** ****** ****** ****** ****** ****** ******
   6  ****** ****** ****** ****** ****** ****** ****** ****** ****** ******
      ****** ****** ****** ****** ****** ****** ****** ****** ****** ******
      ****** ****** ****** ****** ****** ****** ****** ****** ****** ******
   7  ****** ****** ****** ****** ****** ****** ****** ****** ****** ******
      ****** ****** ****** ****** ****** ****** ****** ****** ****** ******
      ****** ****** ****** ****** ****** ****** ****** ****** ****** ******
   8  ****** ****** ****** ****** ****** ****** ****** ****** ****** ******
      ****** ****** ****** ****** ****** ****** ****** ****** ****** ******
      ****** ****** ****** ****** ****** ****** ****** ****** ****** ******
   9  ****** ****** ****** ****** ****** ****** ****** ****** ****** ******
      ****** ****** ****** ****** ****** ****** ****** ****** ****** ******
      ****** ****** ****** ****** ****** ****** ****** ****** ****** ******
  10  ****** ****** ****** ****** ****** ****** ****** ****** ****** ******
      ****** ****** ****** ****** ****** ****** ****** ****** ****** ******
      ****** ****** ****** ****** ****** ****** ****** ****** ****** ******
  11  ****** ****** ****** ****** ****** ****** ****** ****** ****** ******
      ****** ****** ****** ****** ****** ****** ****** ****** ****** ******
      ****** ****** ****** ****** ****** ****** ****** ****** ****** ******
  12  ****** ****** ****** ****** ****** ****** ****** ****** ****** ******
      ****** ****** ****** ****** ****** ****** ****** ****** ****** ******
      ****** ****** ****** ****** ****** ****** ****** ****** ****** ******
  13  ****** ****** ****** ****** ****** ****** ****** ****** ****** ******
      ****** ****** ****** ****** ****** ****** ****** ****** ****** ******
      ****** ****** ****** ****** ****** ****** ****** ****** ****** ******
  14  ****** ****** ****** ****** ****** ****** ****** ****** ****** ******
      ****** ****** ****** ****** ****** ****** ****** ****** ****** ******
      ****** ****** ****** ****** ****** ****** ****** ****** ****** ******
  15  ****** ****** ****** ****** ****** ****** ****** ****** ****** ******
      ****** ****** ****** ****** ****** ****** ****** ****** ****** ******
      ****** ****** ****** ****** ****** ****** ****** ****** ****** ******
  16  ****** ****** ****** ****** ****** ****** ****** ****** ****** ******
      ****** ****** ****** ****** ****** ****** ****** ****** ****** ******
      ****** ****** ****** ****** ****** ****** ****** ****** ****** ******
  17  ****** ****** ****** ****** ****** ****** ****** ****** ****** ******
      ****** ****** ****** ****** ****** ****** ****** ****** ****** ******
      ****** ****** ****** ****** ****** ****** ****** ****** ****** ******
  18  ****** ****** ****** ****** ****** ****** ****** ****** ****** ******
      ****** ****** ****** ****** ****** ****** ****** ****** ****** ******
      ****** ****** ****** ****** ****** ****** ****** ****** ****** ******
  19  ****** ****** ****** ****** ****** ****** ****** ****** ****** ******
      ****** ****** ****** ****** ****** ****** ****** ****** ****** ******
      ****** ****** ****** ****** ****** ****** ****** ****** ****** ******
  20  ****** ****** ****** ****** ****** ****** ****** ****** ****** ******
      ****** ****** ****** ****** ****** ****** ****** ****** ****** ******
      ****** ****** ****** ****** ****** ****** ****** ****** ****** ******
  21  ****** ****** ****** ****** ****** ****** ****** ****** ****** ******
      ****** ****** ****** ****** ****** ****** ****** ****** ****** ******
      ****** ****** ****** ****** ****** ****** ****** ****** ****** ******
  22  ****** ****** ****** ****** ****** ****** ****** ****** ****** ******
      ****** ****** ****** ****** ****** ****** ****** ****** ****** ******
      ****** ****** ****** ****** ****** ****** ****** ****** ****** ******
  23  ****** ****** ****** ****** ****** ****** ****** ****** ****** ******
      ****** ****** ****** ****** ****** ****** ****** ****** ****** ******
      ****** ****** ****** ****** ****** ****** ****** ****** ****** ******
  24  ****** ****** ****** ****** ****** ****** ****** ****** ****** ******
      ****** ****** ****** ****** ****** ****** ****** ****** ****** ******
      ****** ****** ****** ****** ****** ****** ****** ****** ****** ******
  25  ****** ****** ****** ****** ****** ****** ****** ****** ****** ******
      ****** ****** ****** ****** ****** ****** ****** ****** ****** ******
      ****** ****** ****** ****** ****** ****** ****** ****** ****** ******

 HEAD WILL BE SAVED ON UNIT   51 AT END OF TIME STEP    1, STRESS PERIOD    5
1
  VOLUMETRIC BUDGET FOR ENTIRE MODEL AT END OF TIME STEP    1, STRESS PERIOD   5
  ------------------------------------------------------------------------------

     CUMULATIVE VOLUMES      L**3       RATES FOR THIS TIME STEP      L**3/T
     ------------------                 ------------------------

           IN:                                      IN:
           ---                                      ---
             STORAGE =    32977930.4507               STORAGE =       20906.1804
       CONSTANT HEAD =    11230762.3717         CONSTANT HEAD =       33536.9141
               WELLS =           0.0000                 WELLS =           0.0000
            RECHARGE =    10074000.0000              RECHARGE =       13800.0000
      STREAM LEAKAGE =     2774242.4111        STREAM LEAKAGE =        7926.0367

            TOTAL IN =    57056935.2335              TOTAL IN =       76169.1311

          OUT:                                     OUT:
          ----                                     ----
             STORAGE =         509.9714               STORAGE =           0.0000
       CONSTANT HEAD =           0.0000         CONSTANT HEAD =           0.0000
               WELLS =    13949266.3935                 WELLS =       30523.5588
            RECHARGE =           0.0000              RECHARGE =           0.0000
      STREAM LEAKAGE =    43107161.1837        STREAM LEAKAGE =       45645.5757

           TOTAL OUT =    57056937.5486             TOTAL OUT =       76169.1346

            IN - OUT =          -2.3150              IN - OUT =      -3.4413E-03

 PERCENT DISCREPANCY =          -0.00     PERCENT DISCREPANCY =          -0.00






         TIME SUMMARY AT END OF TIME STEP    1 IN STRESS PERIOD    5
                    SECONDS     MINUTES      HOURS       DAYS        YEARS
                    -----------------------------------------------------------
   TIME STEP LENGTH 7.94880E+06 1.32480E+05  2208.0      92.000     0.25188    
 STRESS PERIOD TIME 7.94880E+06 1.32480E+05  2208.0      92.000     0.25188    
         TOTAL TIME 3.94848E+07 6.58080E+05  10968.      457.00      1.2512    
1
1
                            STRESS PERIOD NO.    6, LENGTH =   91.00000    
                            -----------------------------------------------

                              NUMBER OF TIME STEPS =     1

                               MULTIPLIER FOR DELT =     1.500

                            INITIAL TIME STEP SIZE =   91.00000    

 WELL NO.  LAYER   ROW   COL   STRESS RATE         
 --------------------------------------------------
      1      1      4     17     -0.1182E+05
      2      1     12     28      -9652.    
      3      1      7      8      -7590.    
      4      1     12      7      -1463.    

      4 WELLS

                 RECHARGE =  2.000000E-03

 REUSING STREAM SEGMENT DATA FROM LAST STRESS PERIOD
 
 SOLVING FOR HEAD 


     7 CALLS TO PCG ROUTINE FOR TIME STEP   1 IN STRESS PERIOD    6
    26 TOTAL ITERATIONS

 OUTPUT CONTROL FOR STRESS PERIOD    6   TIME STEP    1
    SAVE BUDGET
    SAVE HEAD FOR ALL LAYERS
    PRINT HEAD FOR ALL LAYERS
 UBDSV2 SAVING "STREAMFLOW OUT  " ON UNIT  50 AT TIME STEP  1, STRESS PERIOD   6



 STREAM LISTING     PERIOD      6   STEP        1

 LAYER ROW COL. STREAM  RCH.  FLOW INTO     FLOW TO   FLOW OUT OF   OVRLND.     DIRECT     STREAM       STREAM     STREAM     STREAM   STREAMBED  STREAMBED
                SEG.NO.  NO.  STRM. RCH.    AQUIFER    STRM. RCH.    RUNOFF     PRECIP       ET          HEAD       DEPTH      WIDTH   CONDCTNC.   GRADIENT

   1   13    1     1     1    1.0000E+05 -1.7101E+03   1.0171E+05  0.000E+00  0.000E+00  0.000E+00  4.84068E+01  1.454E-01  2.000E+01  2.000E+04 -8.550E-02
   1   13    2     1     2    1.0171E+05 -2.6406E+03   1.0435E+05  0.000E+00  0.000E+00  0.000E+00  4.79314E+01  1.473E-01  2.000E+01  2.000E+04 -1.320E-01
   1   14    3     1     3    1.0435E+05 -5.3755E+02   1.0489E+05  0.000E+00  0.000E+00  0.000E+00  4.74554E+01  1.486E-01  2.000E+01  2.000E+04 -2.688E-02
   1   15    4     1     4    1.0489E+05 -5.3448E+02   1.0542E+05  0.000E+00  0.000E+00  0.000E+00  4.69786E+01  1.491E-01  2.000E+01  2.000E+04 -2.672E-02
   1   16    5     1     5    1.0542E+05 -2.1761E+03   1.0760E+05  0.000E+00  0.000E+00  0.000E+00  4.65025E+01  1.502E-01  2.000E+01  2.000E+04 -1.088E-01
   1   16    6     1     6    1.0760E+05 -1.3020E+03   1.0890E+05  0.000E+00  0.000E+00  0.000E+00  4.60267E+01  1.517E-01  2.000E+01  2.000E+04 -6.510E-02
   1   16    7     1     7    1.0890E+05 -1.2553E+03   1.1016E+05  0.000E+00  0.000E+00  0.000E+00  4.55505E+01  1.528E-01  2.000E+01  2.000E+04 -6.276E-02
   1   16    8     1     8    1.1016E+05 -1.2617E+03   1.1142E+05  0.000E+00  0.000E+00  0.000E+00  4.50743E+01  1.538E-01  2.000E+01  2.000E+04 -6.309E-02
   1   16    9     1     9    1.1142E+05 -1.2800E+03   1.1270E+05  0.000E+00  0.000E+00  0.000E+00  4.45981E+01  1.549E-01  2.000E+01  2.000E+04 -6.400E-02
   1   16   10     1    10    1.1270E+05 -1.2981E+03   1.1400E+05  0.000E+00  0.000E+00  0.000E+00  4.41219E+01  1.559E-01  2.000E+01  2.000E+04 -6.491E-02
   1   16   11     1    11    1.1400E+05 -1.3353E+03   1.1533E+05  0.000E+00  0.000E+00  0.000E+00  4.36457E+01  1.570E-01  2.000E+01  2.000E+04 -6.677E-02
   1   16   12     1    12    1.1533E+05 -2.2346E+03   1.1757E+05  0.000E+00  0.000E+00  0.000E+00  4.31699E+01  1.585E-01  2.000E+01  2.000E+04 -1.117E-01
   1   15   13     1    13    1.1757E+05 -1.9151E+03   1.1948E+05  0.000E+00  0.000E+00  0.000E+00  4.26943E+01  1.602E-01  2.000E+01  2.000E+04 -9.575E-02
   1   14   14     1    14    1.1948E+05 -1.9655E+03   1.2145E+05  0.000E+00  0.000E+00  0.000E+00  4.22186E+01  1.617E-01  2.000E+01  2.000E+04 -9.827E-02
   1   13   15     1    15    1.2145E+05 -1.9926E+03   1.2344E+05  0.000E+00  0.000E+00  0.000E+00  4.17429E+01  1.633E-01  2.000E+01  2.000E+04 -9.963E-02
   1   12   16     1    16    1.2344E+05 -2.0652E+03   1.2550E+05  0.000E+00  0.000E+00  0.000E+00  4.12672E+01  1.650E-01  2.000E+01  2.000E+04 -1.033E-01
   1   12   17     1    17    1.2550E+05 -1.5121E+03   1.2702E+05  0.000E+00  0.000E+00  0.000E+00  4.07914E+01  1.664E-01  2.000E+01  2.000E+04 -7.561E-02
   1   12   18     1    18    1.2702E+05 -1.5081E+03   1.2852E+05  0.000E+00  0.000E+00  0.000E+00  4.03153E+01  1.676E-01  2.000E+01  2.000E+04 -7.540E-02
   1   12   19     1    19    1.2852E+05 -1.9665E+03   1.3049E+05  0.000E+00  0.000E+00  0.000E+00  3.98394E+01  1.689E-01  2.000E+01  2.000E+04 -9.832E-02
   1   13   20     1    20    1.3049E+05 -1.9476E+03   1.3244E+05  0.000E+00  0.000E+00  0.000E+00  3.93636E+01  1.705E-01  2.000E+01  2.000E+04 -9.738E-02
   1   14   21     1    21    1.3244E+05 -2.0741E+03   1.3451E+05  0.000E+00  0.000E+00  0.000E+00  3.88879E+01  1.720E-01  2.000E+01  2.000E+04 -1.037E-01
   1   14   22     1    22    1.3451E+05  4.8330E+03   1.2968E+05  0.000E+00  0.000E+00  0.000E+00  3.84096E+01  1.709E-01  2.000E+01  2.000E+04  2.417E-01
   1    9   30     2     1    5.0000E+04  1.6021E+02   4.9840E+04  0.000E+00  0.000E+00  0.000E+00  4.02408E+01  1.158E-01  2.000E+01  2.000E+04  8.011E-03
   1    9   29     2     2    4.9840E+04 -4.8124E+01   4.9888E+04  0.000E+00  0.000E+00  0.000E+00  3.99907E+01  1.157E-01  2.000E+01  2.000E+04 -2.406E-03
   1    9   28     2     3    4.9888E+04 -2.4813E+02   5.0136E+04  0.000E+00  0.000E+00  0.000E+00  3.97409E+01  1.159E-01  2.000E+01  2.000E+04 -1.241E-02
   1    9   27     2     4    5.0136E+04 -1.7188E+03   5.1855E+04  0.000E+00  0.000E+00  0.000E+00  3.94922E+01  1.172E-01  2.000E+01  2.000E+04 -8.594E-02
   1   10   26     2     5    5.1855E+04 -2.3464E+02   5.2089E+04  0.000E+00  0.000E+00  0.000E+00  3.92436E+01  1.186E-01  2.000E+01  2.000E+04 -1.173E-02
   1   11   25     2     6    5.2089E+04 -2.6479E+02   5.2354E+04  0.000E+00  0.000E+00  0.000E+00  3.89939E+01  1.189E-01  2.000E+01  2.000E+04 -1.324E-02
   1   12   24     2     7    5.2354E+04 -1.0135E+03   5.3368E+04  0.000E+00  0.000E+00  0.000E+00  3.87448E+01  1.198E-01  2.000E+01  2.000E+04 -5.068E-02
   1   13   23     2     8    5.3368E+04 -2.9317E+02   5.3661E+04  0.000E+00  0.000E+00  0.000E+00  3.84957E+01  1.207E-01  2.000E+01  2.000E+04 -1.466E-02
   1   14   22     2     9    5.3661E+04  1.5382E+03   5.2123E+04  0.000E+00  0.000E+00  0.000E+00  3.82448E+01  1.198E-01  2.000E+01  2.000E+04  7.691E-02
   1   14   22     3     1    1.8180E+05 -8.7618E+03   1.9056E+05  0.000E+00  0.000E+00  0.000E+00  3.77298E+01  1.743E-01  2.000E+01  2.000E+04 -4.381E-01
   1   15   23     3     2    1.9056E+05 -6.9234E+02   1.9126E+05  0.000E+00  0.000E+00  0.000E+00  3.68436E+01  1.769E-01  2.000E+01  2.000E+04 -3.462E-02
   1   15   24     3     3    1.9126E+05 -3.8437E+02   1.9164E+05  0.000E+00  0.000E+00  0.000E+00  3.59550E+01  1.772E-01  2.000E+01  2.000E+04 -1.922E-02
   1   15   25     3     4    1.9164E+05 -3.5038E+02   1.9199E+05  0.000E+00  0.000E+00  0.000E+00  3.50663E+01  1.774E-01  2.000E+01  2.000E+04 -1.752E-02
   1   15   26     3     5    1.9199E+05 -2.7080E+02   1.9226E+05  0.000E+00  0.000E+00  0.000E+00  3.41776E+01  1.776E-01  2.000E+01  2.000E+04 -1.354E-02
   1   16   27     3     6    1.9226E+05 -2.7416E+02   1.9254E+05  0.000E+00  0.000E+00  0.000E+00  3.32889E+01  1.778E-01  2.000E+01  2.000E+04 -1.371E-02
   1   17   28     3     7    1.9254E+05 -9.1172E+02   1.9345E+05  0.000E+00  0.000E+00  0.000E+00  3.24003E+01  1.781E-01  2.000E+01  2.000E+04 -4.559E-02
   1   18   29     3     8    1.9345E+05 -3.0806E+03   1.9653E+05  0.000E+00  0.000E+00  0.000E+00  3.15125E+01  1.792E-01  2.000E+01  2.000E+04 -1.540E-01
   1   18   30     3     9    1.9653E+05 -3.1313E+03   1.9966E+05  0.000E+00  0.000E+00  0.000E+00  3.06253E+01  1.809E-01  2.000E+01  2.000E+04 -1.566E-01



1
              HEAD IN LAYER   1 AT END OF TIME STEP   1 IN STRESS PERIOD    6
  ---------------------------------------------------------------------------

          1      2      3      4      5      6      7      8      9     10
         11     12     13     14     15     16     17     18     19     20
         21     22     23     24     25     26     27     28     29     30
 .........................................................................
   1  ****** ****** ****** ****** ****** ****** ****** ****** ****** ******
      ****** ****** ****** ****** ****** ****** ****** ****** ****** ******
      ****** ****** ****** ****** ****** ****** ****** ****** ****** ******
   2  ****** ****** ****** ****** ****** ****** ****** ****** ****** ******
      ****** ****** ****** ****** ****** ****** ****** ****** ****** ******
      ****** ****** ****** ****** ****** ****** ****** ****** ****** ******
   3  ****** ****** ****** ****** ****** ****** ****** ****** ****** ******
      ****** ****** ****** ****** ****** ****** ****** ****** ****** ******
      ****** ****** ****** ****** ****** ****** ****** ****** ****** ******
   4  ****** ****** ****** ****** ****** ****** ****** ****** ****** ******
      ****** ****** ****** ****** ****** ****** ****** ****** ****** ******
      ****** ****** ****** ****** ****** ****** ****** ****** ****** ******
   5  ****** ****** ****** ****** ****** ****** ****** ****** ****** ******
      ****** ****** ****** ****** ****** ****** ****** ****** ****** ******
      ****** ****** ****** ****** ****** ****** ****** ****** ****** ******
   6  ****** ****** ****** ****** ****** ****** ****** ****** ****** ******
      ****** ****** ****** ****** ****** ****** ****** ****** ****** ******
      ****** ****** ****** ****** ****** ****** ****** ****** ****** ******
   7  ****** ****** ****** ****** ****** ****** ****** ****** ****** ******
      ****** ****** ****** ****** ****** ****** ****** ****** ****** ******
      ****** ****** ****** ****** ****** ****** ****** ****** ****** ******
   8  ****** ****** ****** ****** ****** ****** ****** ****** ****** ******
      ****** ****** ****** ****** ****** ****** ****** ****** ****** ******
      ****** ****** ****** ****** ****** ****** ****** ****** ****** ******
   9  ****** ****** ****** ****** ****** ****** ****** ****** ****** ******
      ****** ****** ****** ****** ****** ****** ****** ****** ****** ******
      ****** ****** ****** ****** ****** ****** ****** ****** ****** ******
  10  ****** ****** ****** ****** ****** ****** ****** ****** ****** ******
      ****** ****** ****** ****** ****** ****** ****** ****** ****** ******
      ****** ****** ****** ****** ****** ****** ****** ****** ****** ******
  11  ****** ****** ****** ****** ****** ****** ****** ****** ****** ******
      ****** ****** ****** ****** ****** ****** ****** ****** ****** ******
      ****** ****** ****** ****** ****** ****** ****** ****** ****** ******
  12  ****** ****** ****** ****** ****** ****** ****** ****** ****** ******
      ****** ****** ****** ****** ****** ****** ****** ****** ****** ******
      ****** ****** ****** ****** ****** ****** ****** ****** ****** ******
  13  ****** ****** ****** ****** ****** ****** ****** ****** ****** ******
      ****** ****** ****** ****** ****** ****** ****** ****** ****** ******
      ****** ****** ****** ****** ****** ****** ****** ****** ****** ******
  14  ****** ****** ****** ****** ****** ****** ****** ****** ****** ******
      ****** ****** ****** ****** ****** ****** ****** ****** ****** ******
      ****** ****** ****** ****** ****** ****** ****** ****** ****** ******
  15  ****** ****** ****** ****** ****** ****** ****** ****** ****** ******
      ****** ****** ****** ****** ****** ****** ****** ****** ****** ******
      ****** ****** ****** ****** ****** ****** ****** ****** ****** ******
  16  ****** ****** ****** ****** ****** ****** ****** ****** ****** ******
      ****** ****** ****** ****** ****** ****** ****** ****** ****** ******
      ****** ****** ****** ****** ****** ****** ****** ****** ****** ******
  17  ****** ****** ****** ****** ****** ****** ****** ****** ****** ******
      ****** ****** ****** ****** ****** ****** ****** ****** ****** ******
      ****** ****** ****** ****** ****** ****** ****** ****** ****** ******
  18  ****** ****** ****** ****** ****** ****** ****** ****** ****** ******
      ****** ****** ****** ****** ****** ****** ****** ****** ****** ******
      ****** ****** ****** ****** ****** ****** ****** ****** ****** ******
  19  ****** ****** ****** ****** ****** ****** ****** ****** ****** ******
      ****** ****** ****** ****** ****** ****** ****** ****** ****** ******
      ****** ****** ****** ****** ****** ****** ****** ****** ****** ******
  20  ****** ****** ****** ****** ****** ****** ****** ****** ****** ******
      ****** ****** ****** ****** ****** ****** ****** ****** ****** ******
      ****** ****** ****** ****** ****** ****** ****** ****** ****** ******
  21  ****** ****** ****** ****** ****** ****** ****** ****** ****** ******
      ****** ****** ****** ****** ****** ****** ****** ****** ****** ******
      ****** ****** ****** ****** ****** ****** ****** ****** ****** ******
  22  ****** ****** ****** ****** ****** ****** ****** ****** ****** ******
      ****** ****** ****** ****** ****** ****** ****** ****** ****** ******
      ****** ****** ****** ****** ****** ****** ****** ****** ****** ******
  23  ****** ****** ****** ****** ****** ****** ****** ****** ****** ******
      ****** ****** ****** ****** ****** ****** ****** ****** ****** ******
      ****** ****** ****** ****** ****** ****** ****** ****** ****** ******
  24  ****** ****** ****** ****** ****** ****** ****** ****** ****** ******
      ****** ****** ****** ****** ****** ****** ****** ****** ****** ******
      ****** ****** ****** ****** ****** ****** ****** ****** ****** ******
  25  ****** ****** ****** ****** ****** ****** ****** ****** ****** ******
      ****** ****** ****** ****** ****** ****** ****** ****** ****** ******
      ****** ****** ****** ****** ****** ****** ****** ****** ****** ******

 HEAD WILL BE SAVED ON UNIT   51 AT END OF TIME STEP    1, STRESS PERIOD    6
1
  VOLUMETRIC BUDGET FOR ENTIRE MODEL AT END OF TIME STEP    1, STRESS PERIOD   6
  ------------------------------------------------------------------------------

     CUMULATIVE VOLUMES      L**3       RATES FOR THIS TIME STEP      L**3/T
     ------------------                 ------------------------

           IN:                                      IN:
           ---                                      ---
             STORAGE =    33034332.1161               STORAGE =         619.7985
       CONSTANT HEAD =    14127454.1662         CONSTANT HEAD =       31831.7780
               WELLS =           0.0000                 WELLS =           0.0000
            RECHARGE =    15097200.0000              RECHARGE =       55200.0000
      STREAM LEAKAGE =     3368606.1764        STREAM LEAKAGE =        6531.4699

            TOTAL IN =    65627592.4587              TOTAL IN =       94183.0464

          OUT:                                     OUT:
          ----                                     ----
             STORAGE =      680127.2641               STORAGE =        7468.3219
       CONSTANT HEAD =           0.0000         CONSTANT HEAD =           0.0000
               WELLS =    16726910.2487                 WELLS =       30523.5588
            RECHARGE =           0.0000              RECHARGE =           0.0000
      STREAM LEAKAGE =    48220557.0129        STREAM LEAKAGE =       56191.1630

           TOTAL OUT =    65627594.5256             TOTAL OUT =       94183.0437

            IN - OUT =          -2.0669              IN - OUT =       2.7264E-03

 PERCENT DISCREPANCY =          -0.00     PERCENT DISCREPANCY =           0.00






         TIME SUMMARY AT END OF TIME STEP    1 IN STRESS PERIOD    6
                    SECONDS     MINUTES      HOURS       DAYS        YEARS
                    -----------------------------------------------------------
   TIME STEP LENGTH 7.86240E+06 1.31040E+05  2184.0      91.000     0.24914    
 STRESS PERIOD TIME 7.86240E+06 1.31040E+05  2184.0      91.000     0.24914    
         TOTAL TIME 4.73472E+07 7.89120E+05  13152.      548.00      1.5003    
1
1
                            STRESS PERIOD NO.    7, LENGTH =   91.00000    
                            -----------------------------------------------

                              NUMBER OF TIME STEPS =     1

                               MULTIPLIER FOR DELT =     1.500

                            INITIAL TIME STEP SIZE =   91.00000    

 WELL NO.  LAYER   ROW   COL   STRESS RATE         
 --------------------------------------------------
      1      1      4     17     -0.1182E+05
      2      1     12     28      -9652.    
      3      1      7      8      -7590.    
      4      1     12      7      -1463.    

      4 WELLS

                 RECHARGE =   0.00000    

 REUSING STREAM SEGMENT DATA FROM LAST STRESS PERIOD
 
 SOLVING FOR HEAD 


     7 CALLS TO PCG ROUTINE FOR TIME STEP   1 IN STRESS PERIOD    7
    26 TOTAL ITERATIONS

 OUTPUT CONTROL FOR STRESS PERIOD    7   TIME STEP    1
    SAVE BUDGET
    SAVE HEAD FOR ALL LAYERS
    PRINT HEAD FOR ALL LAYERS
 UBDSV2 SAVING "STREAMFLOW OUT  " ON UNIT  50 AT TIME STEP  1, STRESS PERIOD   7



 STREAM LISTING     PERIOD      7   STEP        1

 LAYER ROW COL. STREAM  RCH.  FLOW INTO     FLOW TO   FLOW OUT OF   OVRLND.     DIRECT     STREAM       STREAM     STREAM     STREAM   STREAMBED  STREAMBED
                SEG.NO.  NO.  STRM. RCH.    AQUIFER    STRM. RCH.    RUNOFF     PRECIP       ET          HEAD       DEPTH      WIDTH   CONDCTNC.   GRADIENT

   1   13    1     1     1    1.0000E+05 -9.9583E+02   1.0100E+05  0.000E+00  0.000E+00  0.000E+00  4.84064E+01  1.451E-01  2.000E+01  2.000E+04 -4.979E-02
   1   13    2     1     2    1.0100E+05 -1.8381E+03   1.0283E+05  0.000E+00  0.000E+00  0.000E+00  4.79304E+01  1.463E-01  2.000E+01  2.000E+04 -9.190E-02
   1   14    3     1     3    1.0283E+05 -2.7669E+02   1.0311E+05  0.000E+00  0.000E+00  0.000E+00  4.74540E+01  1.472E-01  2.000E+01  2.000E+04 -1.383E-02
   1   15    4     1     4    1.0311E+05 -2.6463E+02   1.0338E+05  0.000E+00  0.000E+00  0.000E+00  4.69770E+01  1.474E-01  2.000E+01  2.000E+04 -1.323E-02
   1   16    5     1     5    1.0338E+05 -1.4198E+03   1.0480E+05  0.000E+00  0.000E+00  0.000E+00  4.65004E+01  1.482E-01  2.000E+01  2.000E+04 -7.099E-02
   1   16    6     1     6    1.0480E+05 -8.4205E+02   1.0564E+05  0.000E+00  0.000E+00  0.000E+00  4.60241E+01  1.491E-01  2.000E+01  2.000E+04 -4.210E-02
   1   16    7     1     7    1.0564E+05 -8.1296E+02   1.0645E+05  0.000E+00  0.000E+00  0.000E+00  4.55476E+01  1.498E-01  2.000E+01  2.000E+04 -4.065E-02
   1   16    8     1     8    1.0645E+05 -8.2556E+02   1.0728E+05  0.000E+00  0.000E+00  0.000E+00  4.50710E+01  1.505E-01  2.000E+01  2.000E+04 -4.128E-02
   1   16    9     1     9    1.0728E+05 -8.4798E+02   1.0812E+05  0.000E+00  0.000E+00  0.000E+00  4.45944E+01  1.512E-01  2.000E+01  2.000E+04 -4.240E-02
   1   16   10     1    10    1.0812E+05 -8.7031E+02   1.0899E+05  0.000E+00  0.000E+00  0.000E+00  4.41179E+01  1.520E-01  2.000E+01  2.000E+04 -4.352E-02
   1   16   11     1    11    1.0899E+05 -9.0853E+02   1.0990E+05  0.000E+00  0.000E+00  0.000E+00  4.36413E+01  1.527E-01  2.000E+01  2.000E+04 -4.543E-02
   1   16   12     1    12    1.0990E+05 -1.5155E+03   1.1142E+05  0.000E+00  0.000E+00  0.000E+00  4.31651E+01  1.537E-01  2.000E+01  2.000E+04 -7.577E-02
   1   15   13     1    13    1.1142E+05 -1.1317E+03   1.1255E+05  0.000E+00  0.000E+00  0.000E+00  4.26889E+01  1.548E-01  2.000E+01  2.000E+04 -5.658E-02
   1   14   14     1    14    1.1255E+05 -1.1461E+03   1.1370E+05  0.000E+00  0.000E+00  0.000E+00  4.22126E+01  1.558E-01  2.000E+01  2.000E+04 -5.730E-02
   1   13   15     1    15    1.1370E+05 -1.1643E+03   1.1486E+05  0.000E+00  0.000E+00  0.000E+00  4.17363E+01  1.567E-01  2.000E+01  2.000E+04 -5.822E-02
   1   12   16     1    16    1.1486E+05 -1.2309E+03   1.1609E+05  0.000E+00  0.000E+00  0.000E+00  4.12600E+01  1.577E-01  2.000E+01  2.000E+04 -6.154E-02
   1   12   17     1    17    1.1609E+05 -9.1573E+02   1.1701E+05  0.000E+00  0.000E+00  0.000E+00  4.07836E+01  1.586E-01  2.000E+01  2.000E+04 -4.579E-02
   1   12   18     1    18    1.1701E+05 -9.2950E+02   1.1794E+05  0.000E+00  0.000E+00  0.000E+00  4.03071E+01  1.593E-01  2.000E+01  2.000E+04 -4.648E-02
   1   12   19     1    19    1.1794E+05 -1.2599E+03   1.1920E+05  0.000E+00  0.000E+00  0.000E+00  3.98307E+01  1.602E-01  2.000E+01  2.000E+04 -6.300E-02
   1   13   20     1    20    1.1920E+05 -1.2723E+03   1.2047E+05  0.000E+00  0.000E+00  0.000E+00  3.93544E+01  1.612E-01  2.000E+01  2.000E+04 -6.362E-02
   1   14   21     1    21    1.2047E+05 -1.4154E+03   1.2188E+05  0.000E+00  0.000E+00  0.000E+00  3.88782E+01  1.623E-01  2.000E+01  2.000E+04 -7.077E-02
   1   14   22     1    22    1.2188E+05  4.9920E+03   1.1689E+05  0.000E+00  0.000E+00  0.000E+00  3.83995E+01  1.609E-01  2.000E+01  2.000E+04  2.496E-01
   1    9   30     2     1    5.0000E+04  6.7821E+02   4.9322E+04  0.000E+00  0.000E+00  0.000E+00  4.02404E+01  1.154E-01  2.000E+01  2.000E+04  3.391E-02
   1    9   29     2     2    4.9322E+04  4.6848E+02   4.8853E+04  0.000E+00  0.000E+00  0.000E+00  3.99896E+01  1.146E-01  2.000E+01  2.000E+04  2.342E-02
   1    9   28     2     3    4.8853E+04  2.7085E+02   4.8582E+04  0.000E+00  0.000E+00  0.000E+00  3.97391E+01  1.141E-01  2.000E+01  2.000E+04  1.354E-02
   1    9   27     2     4    4.8582E+04 -1.0090E+03   4.9591E+04  0.000E+00  0.000E+00  0.000E+00  3.94896E+01  1.146E-01  2.000E+01  2.000E+04 -5.045E-02
   1   10   26     2     5    4.9591E+04  4.7528E+02   4.9116E+04  0.000E+00  0.000E+00  0.000E+00  3.92400E+01  1.150E-01  2.000E+01  2.000E+04  2.376E-02
   1   11   25     2     6    4.9116E+04  4.1595E+02   4.8700E+04  0.000E+00  0.000E+00  0.000E+00  3.89893E+01  1.143E-01  2.000E+01  2.000E+04  2.080E-02
   1   12   24     2     7    4.8700E+04 -3.9202E+02   4.9092E+04  0.000E+00  0.000E+00  0.000E+00  3.87393E+01  1.143E-01  2.000E+01  2.000E+04 -1.960E-02
   1   13   23     2     8    4.9092E+04 -9.9747E+01   4.9192E+04  0.000E+00  0.000E+00  0.000E+00  3.84897E+01  1.147E-01  2.000E+01  2.000E+04 -4.987E-03
   1   14   22     2     9    4.9192E+04  1.7716E+03   4.7420E+04  0.000E+00  0.000E+00  0.000E+00  3.82385E+01  1.135E-01  2.000E+01  2.000E+04  8.858E-02
   1   14   22     3     1    1.6431E+05 -8.6027E+03   1.7291E+05  0.000E+00  0.000E+00  0.000E+00  3.77198E+01  1.642E-01  2.000E+01  2.000E+04 -4.301E-01
   1   15   23     3     2    1.7291E+05 -4.8740E+02   1.7340E+05  0.000E+00  0.000E+00  0.000E+00  3.68335E+01  1.669E-01  2.000E+01  2.000E+04 -2.437E-02
   1   15   24     3     3    1.7340E+05 -2.1159E+02   1.7361E+05  0.000E+00  0.000E+00  0.000E+00  3.59448E+01  1.671E-01  2.000E+01  2.000E+04 -1.058E-02
   1   15   25     3     4    1.7361E+05 -1.7442E+02   1.7379E+05  0.000E+00  0.000E+00  0.000E+00  3.50561E+01  1.672E-01  2.000E+01  2.000E+04 -8.721E-03
   1   15   26     3     5    1.7379E+05 -7.0040E+01   1.7386E+05  0.000E+00  0.000E+00  0.000E+00  3.41672E+01  1.672E-01  2.000E+01  2.000E+04 -3.502E-03
   1   16   27     3     6    1.7386E+05 -4.2715E+01   1.7390E+05  0.000E+00  0.000E+00  0.000E+00  3.32784E+01  1.673E-01  2.000E+01  2.000E+04 -2.136E-03
   1   17   28     3     7    1.7390E+05 -2.7338E+02   1.7417E+05  0.000E+00  0.000E+00  0.000E+00  3.23896E+01  1.674E-01  2.000E+01  2.000E+04 -1.367E-02
   1   18   29     3     8    1.7417E+05 -2.4014E+03   1.7658E+05  0.000E+00  0.000E+00  0.000E+00  3.15015E+01  1.681E-01  2.000E+01  2.000E+04 -1.201E-01
   1   18   30     3     9    1.7658E+05 -2.6070E+03   1.7918E+05  0.000E+00  0.000E+00  0.000E+00  3.06140E+01  1.696E-01  2.000E+01  2.000E+04 -1.303E-01



1
              HEAD IN LAYER   1 AT END OF TIME STEP   1 IN STRESS PERIOD    7
  ---------------------------------------------------------------------------

          1      2      3      4      5      6      7      8      9     10
         11     12     13     14     15     16     17     18     19     20
         21     22     23     24     25     26     27     28     29     30
 .........................................................................
   1  ****** ****** ****** ****** ****** ****** ****** ****** ****** ******
      ****** ****** ****** ****** ****** ****** ****** ****** ****** ******
      ****** ****** ****** ****** ****** ****** ****** ****** ****** ******
   2  ****** ****** ****** ****** ****** ****** ****** ****** ****** ******
      ****** ****** ****** ****** ****** ****** ****** ****** ****** ******
      ****** ****** ****** ****** ****** ****** ****** ****** ****** ******
   3  ****** ****** ****** ****** ****** ****** ****** ****** ****** ******
      ****** ****** ****** ****** ****** ****** ****** ****** ****** ******
      ****** ****** ****** ****** ****** ****** ****** ****** ****** ******
   4  ****** ****** ****** ****** ****** ****** ****** ****** ****** ******
      ****** ****** ****** ****** ****** ****** ****** ****** ****** ******
      ****** ****** ****** ****** ****** ****** ****** ****** ****** ******
   5  ****** ****** ****** ****** ****** ****** ****** ****** ****** ******
      ****** ****** ****** ****** ****** ****** ****** ****** ****** ******
      ****** ****** ****** ****** ****** ****** ****** ****** ****** ******
   6  ****** ****** ****** ****** ****** ****** ****** ****** ****** ******
      ****** ****** ****** ****** ****** ****** ****** ****** ****** ******
      ****** ****** ****** ****** ****** ****** ****** ****** ****** ******
   7  ****** ****** ****** ****** ****** ****** ****** ****** ****** ******
      ****** ****** ****** ****** ****** ****** ****** ****** ****** ******
      ****** ****** ****** ****** ****** ****** ****** ****** ****** ******
   8  ****** ****** ****** ****** ****** ****** ****** ****** ****** ******
      ****** ****** ****** ****** ****** ****** ****** ****** ****** ******
      ****** ****** ****** ****** ****** ****** ****** ****** ****** ******
   9  ****** ****** ****** ****** ****** ****** ****** ****** ****** ******
      ****** ****** ****** ****** ****** ****** ****** ****** ****** ******
      ****** ****** ****** ****** ****** ****** ****** ****** ****** ******
  10  ****** ****** ****** ****** ****** ****** ****** ****** ****** ******
      ****** ****** ****** ****** ****** ****** ****** ****** ****** ******
      ****** ****** ****** ****** ****** ****** ****** ****** ****** ******
  11  ****** ****** ****** ****** ****** ****** ****** ****** ****** ******
      ****** ****** ****** ****** ****** ****** ****** ****** ****** ******
      ****** ****** ****** ****** ****** ****** ****** ****** ****** ******
  12  ****** ****** ****** ****** ****** ****** ****** ****** ****** ******
      ****** ****** ****** ****** ****** ****** ****** ****** ****** ******
      ****** ****** ****** ****** ****** ****** ****** ****** ****** ******
  13  ****** ****** ****** ****** ****** ****** ****** ****** ****** ******
      ****** ****** ****** ****** ****** ****** ****** ****** ****** ******
      ****** ****** ****** ****** ****** ****** ****** ****** ****** ******
  14  ****** ****** ****** ****** ****** ****** ****** ****** ****** ******
      ****** ****** ****** ****** ****** ****** ****** ****** ****** ******
      ****** ****** ****** ****** ****** ****** ****** ****** ****** ******
  15  ****** ****** ****** ****** ****** ****** ****** ****** ****** ******
      ****** ****** ****** ****** ****** ****** ****** ****** ****** ******
      ****** ****** ****** ****** ****** ****** ****** ****** ****** ******
  16  ****** ****** ****** ****** ****** ****** ****** ****** ****** ******
      ****** ****** ****** ****** ****** ****** ****** ****** ****** ******
      ****** ****** ****** ****** ****** ****** ****** ****** ****** ******
  17  ****** ****** ****** ****** ****** ****** ****** ****** ****** ******
      ****** ****** ****** ****** ****** ****** ****** ****** ****** ******
      ****** ****** ****** ****** ****** ****** ****** ****** ****** ******
  18  ****** ****** ****** ****** ****** ****** ****** ****** ****** ******
      ****** ****** ****** ****** ****** ****** ****** ****** ****** ******
      ****** ****** ****** ****** ****** ****** ****** ****** ****** ******
  19  ****** ****** ****** ****** ****** ****** ****** ****** ****** ******
      ****** ****** ****** ****** ****** ****** ****** ****** ****** ******
      ****** ****** ****** ****** ****** ****** ****** ****** ****** ******
  20  ****** ****** ****** ****** ****** ****** ****** ****** ****** ******
      ****** ****** ****** ****** ****** ****** ****** ****** ****** ******
      ****** ****** ****** ****** ****** ****** ****** ****** ****** ******
  21  ****** ****** ****** ****** ****** ****** ****** ****** ****** ******
      ****** ****** ****** ****** ****** ****** ****** ****** ****** ******
      ****** ****** ****** ****** ****** ****** ****** ****** ****** ******
  22  ****** ****** ****** ****** ****** ****** ****** ****** ****** ******
      ****** ****** ****** ****** ****** ****** ****** ****** ****** ******
      ****** ****** ****** ****** ****** ****** ****** ****** ****** ******
  23  ****** ****** ****** ****** ****** ****** ****** ****** ****** ******
      ****** ****** ****** ****** ****** ****** ****** ****** ****** ******
      ****** ****** ****** ****** ****** ****** ****** ****** ****** ******
  24  ****** ****** ****** ****** ****** ****** ****** ****** ****** ******
      ****** ****** ****** ****** ****** ****** ****** ****** ****** ******
      ****** ****** ****** ****** ****** ****** ****** ****** ****** ******
  25  ****** ****** ****** ****** ****** ****** ****** ****** ****** ******
      ****** ****** ****** ****** ****** ****** ****** ****** ****** ******
      ****** ****** ****** ****** ****** ****** ****** ****** ****** ******

 HEAD WILL BE SAVED ON UNIT   51 AT END OF TIME STEP    1, STRESS PERIOD    7
1
  VOLUMETRIC BUDGET FOR ENTIRE MODEL AT END OF TIME STEP    1, STRESS PERIOD   7
  ------------------------------------------------------------------------------

     CUMULATIVE VOLUMES      L**3       RATES FOR THIS TIME STEP      L**3/T
     ------------------                 ------------------------

           IN:                                      IN:
           ---                                      ---
             STORAGE =    35199981.6213               STORAGE =       23798.3462
       CONSTANT HEAD =    17395070.8500         CONSTANT HEAD =       35907.8756
               WELLS =           0.0000                 WELLS =           0.0000
            RECHARGE =    15097200.0000              RECHARGE =           0.0000
      STREAM LEAKAGE =     4194199.1478        STREAM LEAKAGE =        9072.4502

            TOTAL IN =    71886451.6191              TOTAL IN =       68778.6721

          OUT:                                     OUT:
          ----                                     ----
             STORAGE =      680127.2641               STORAGE =           0.0000
       CONSTANT HEAD =           0.0000         CONSTANT HEAD =           0.0000
               WELLS =    19504554.1038                 WELLS =       30523.5588
            RECHARGE =           0.0000              RECHARGE =           0.0000
      STREAM LEAKAGE =    51701772.8199        STREAM LEAKAGE =       38255.1188

           TOTAL OUT =    71886454.1878             TOTAL OUT =       68778.6776

            IN - OUT =          -2.5687              IN - OUT =      -5.5137E-03

 PERCENT DISCREPANCY =          -0.00     PERCENT DISCREPANCY =          -0.00






         TIME SUMMARY AT END OF TIME STEP    1 IN STRESS PERIOD    7
                    SECONDS     MINUTES      HOURS       DAYS        YEARS
                    -----------------------------------------------------------
   TIME STEP LENGTH 7.86240E+06 1.31040E+05  2184.0      91.000     0.24914    
 STRESS PERIOD TIME 7.86240E+06 1.31040E+05  2184.0      91.000     0.24914    
         TOTAL TIME 5.52096E+07 9.20160E+05  15336.      639.00      1.7495    
1
1
                            STRESS PERIOD NO.    8, LENGTH =   91.00000    
                            -----------------------------------------------

                              NUMBER OF TIME STEPS =     1

                               MULTIPLIER FOR DELT =     1.500

                            INITIAL TIME STEP SIZE =   91.00000    

 WELL NO.  LAYER   ROW   COL   STRESS RATE         
 --------------------------------------------------
      1      1      4     17     -0.1182E+05
      2      1     12     28      -9652.    
      3      1      7      8      -7590.    
      4      1     12      7      -1463.    

      4 WELLS

                 RECHARGE =  1.000000E-03

 REUSING STREAM SEGMENT DATA FROM LAST STRESS PERIOD
 
 SOLVING FOR HEAD 


     6 CALLS TO PCG ROUTINE FOR TIME STEP   1 IN STRESS PERIOD    8
    22 TOTAL ITERATIONS

 OUTPUT CONTROL FOR STRESS PERIOD    8   TIME STEP    1
    SAVE BUDGET
    SAVE HEAD FOR ALL LAYERS
    PRINT HEAD FOR ALL LAYERS
 UBDSV2 SAVING "STREAMFLOW OUT  " ON UNIT  50 AT TIME STEP  1, STRESS PERIOD   8



 STREAM LISTING     PERIOD      8   STEP        1

 LAYER ROW COL. STREAM  RCH.  FLOW INTO     FLOW TO   FLOW OUT OF   OVRLND.     DIRECT     STREAM       STREAM     STREAM     STREAM   STREAMBED  STREAMBED
                SEG.NO.  NO.  STRM. RCH.    AQUIFER    STRM. RCH.    RUNOFF     PRECIP       ET          HEAD       DEPTH      WIDTH   CONDCTNC.   GRADIENT

   1   13    1     1     1    1.0000E+05 -1.0340E+03   1.0103E+05  0.000E+00  0.000E+00  0.000E+00  4.84065E+01  1.451E-01  2.000E+01  2.000E+04 -5.170E-02
   1   13    2     1     2    1.0103E+05 -1.8691E+03   1.0290E+05  0.000E+00  0.000E+00  0.000E+00  4.79304E+01  1.464E-01  2.000E+01  2.000E+04 -9.345E-02
   1   14    3     1     3    1.0290E+05 -3.3410E+02   1.0324E+05  0.000E+00  0.000E+00  0.000E+00  4.74541E+01  1.473E-01  2.000E+01  2.000E+04 -1.670E-02
   1   15    4     1     4    1.0324E+05 -3.2797E+02   1.0357E+05  0.000E+00  0.000E+00  0.000E+00  4.69771E+01  1.476E-01  2.000E+01  2.000E+04 -1.640E-02
   1   16    5     1     5    1.0357E+05 -1.5912E+03   1.0516E+05  0.000E+00  0.000E+00  0.000E+00  4.65007E+01  1.484E-01  2.000E+01  2.000E+04 -7.956E-02
   1   16    6     1     6    1.0516E+05 -9.4467E+02   1.0610E+05  0.000E+00  0.000E+00  0.000E+00  4.60245E+01  1.495E-01  2.000E+01  2.000E+04 -4.723E-02
   1   16    7     1     7    1.0610E+05 -9.1006E+02   1.0701E+05  0.000E+00  0.000E+00  0.000E+00  4.55480E+01  1.503E-01  2.000E+01  2.000E+04 -4.550E-02
   1   16    8     1     8    1.0701E+05 -9.2200E+02   1.0793E+05  0.000E+00  0.000E+00  0.000E+00  4.50715E+01  1.510E-01  2.000E+01  2.000E+04 -4.610E-02
   1   16    9     1     9    1.0793E+05 -9.4633E+02   1.0888E+05  0.000E+00  0.000E+00  0.000E+00  4.45950E+01  1.518E-01  2.000E+01  2.000E+04 -4.732E-02
   1   16   10     1    10    1.0888E+05 -9.7244E+02   1.0985E+05  0.000E+00  0.000E+00  0.000E+00  4.41185E+01  1.526E-01  2.000E+01  2.000E+04 -4.862E-02
   1   16   11     1    11    1.0985E+05 -1.0154E+03   1.1087E+05  0.000E+00  0.000E+00  0.000E+00  4.36421E+01  1.535E-01  2.000E+01  2.000E+04 -5.077E-02
   1   16   12     1    12    1.1087E+05 -1.6738E+03   1.1254E+05  0.000E+00  0.000E+00  0.000E+00  4.31659E+01  1.546E-01  2.000E+01  2.000E+04 -8.369E-02
   1   15   13     1    13    1.1254E+05 -1.2880E+03   1.1383E+05  0.000E+00  0.000E+00  0.000E+00  4.26899E+01  1.558E-01  2.000E+01  2.000E+04 -6.440E-02
   1   14   14     1    14    1.1383E+05 -1.2893E+03   1.1512E+05  0.000E+00  0.000E+00  0.000E+00  4.22137E+01  1.569E-01  2.000E+01  2.000E+04 -6.447E-02
   1   13   15     1    15    1.1512E+05 -1.2897E+03   1.1641E+05  0.000E+00  0.000E+00  0.000E+00  4.17375E+01  1.579E-01  2.000E+01  2.000E+04 -6.448E-02
   1   12   16     1    16    1.1641E+05 -1.3093E+03   1.1772E+05  0.000E+00  0.000E+00  0.000E+00  4.12613E+01  1.590E-01  2.000E+01  2.000E+04 -6.547E-02
   1   12   17     1    17    1.1772E+05 -1.0111E+03   1.1873E+05  0.000E+00  0.000E+00  0.000E+00  4.07849E+01  1.599E-01  2.000E+01  2.000E+04 -5.056E-02
   1   12   18     1    18    1.1873E+05 -1.0346E+03   1.1976E+05  0.000E+00  0.000E+00  0.000E+00  4.03085E+01  1.608E-01  2.000E+01  2.000E+04 -5.173E-02
   1   12   19     1    19    1.1976E+05 -1.3933E+03   1.2116E+05  0.000E+00  0.000E+00  0.000E+00  3.98322E+01  1.617E-01  2.000E+01  2.000E+04 -6.966E-02
   1   13   20     1    20    1.2116E+05 -1.4452E+03   1.2260E+05  0.000E+00  0.000E+00  0.000E+00  3.93561E+01  1.629E-01  2.000E+01  2.000E+04 -7.226E-02
   1   14   21     1    21    1.2260E+05 -1.5744E+03   1.2418E+05  0.000E+00  0.000E+00  0.000E+00  3.88800E+01  1.641E-01  2.000E+01  2.000E+04 -7.872E-02
   1   14   22     1    22    1.2418E+05  4.9426E+03   1.1923E+05  0.000E+00  0.000E+00  0.000E+00  3.84014E+01  1.627E-01  2.000E+01  2.000E+04  2.471E-01
   1    9   30     2     1    5.0000E+04  5.1840E+02   4.9482E+04  0.000E+00  0.000E+00  0.000E+00  4.02405E+01  1.155E-01  2.000E+01  2.000E+04  2.592E-02
   1    9   29     2     2    4.9482E+04  3.1176E+02   4.9170E+04  0.000E+00  0.000E+00  0.000E+00  3.99899E+01  1.149E-01  2.000E+01  2.000E+04  1.559E-02
   1    9   28     2     3    4.9170E+04  1.2049E+02   4.9049E+04  0.000E+00  0.000E+00  0.000E+00  3.97396E+01  1.146E-01  2.000E+01  2.000E+04  6.025E-03
   1    9   27     2     4    4.9049E+04 -1.1773E+03   5.0227E+04  0.000E+00  0.000E+00  0.000E+00  3.94904E+01  1.154E-01  2.000E+01  2.000E+04 -5.887E-02
   1   10   26     2     5    5.0227E+04  2.7845E+02   4.9948E+04  0.000E+00  0.000E+00  0.000E+00  3.92410E+01  1.160E-01  2.000E+01  2.000E+04  1.392E-02
   1   11   25     2     6    4.9948E+04  2.2030E+02   4.9728E+04  0.000E+00  0.000E+00  0.000E+00  3.89906E+01  1.156E-01  2.000E+01  2.000E+04  1.101E-02
   1   12   24     2     7    4.9728E+04 -5.6884E+02   5.0297E+04  0.000E+00  0.000E+00  0.000E+00  3.87409E+01  1.159E-01  2.000E+01  2.000E+04 -2.844E-02
   1   13   23     2     8    5.0297E+04 -1.7273E+02   5.0470E+04  0.000E+00  0.000E+00  0.000E+00  3.84914E+01  1.164E-01  2.000E+01  2.000E+04 -8.637E-03
   1   14   22     2     9    5.0470E+04  1.7214E+03   4.8748E+04  0.000E+00  0.000E+00  0.000E+00  3.82403E+01  1.153E-01  2.000E+01  2.000E+04  8.607E-02
   1   14   22     3     1    1.6798E+05 -8.6464E+03   1.7663E+05  0.000E+00  0.000E+00  0.000E+00  3.77219E+01  1.664E-01  2.000E+01  2.000E+04 -4.323E-01
   1   15   23     3     2    1.7663E+05 -5.5228E+02   1.7718E+05  0.000E+00  0.000E+00  0.000E+00  3.68357E+01  1.690E-01  2.000E+01  2.000E+04 -2.761E-02
   1   15   24     3     3    1.7718E+05 -2.7249E+02   1.7745E+05  0.000E+00  0.000E+00  0.000E+00  3.59470E+01  1.693E-01  2.000E+01  2.000E+04 -1.362E-02
   1   15   25     3     4    1.7745E+05 -2.3699E+02   1.7769E+05  0.000E+00  0.000E+00  0.000E+00  3.50583E+01  1.694E-01  2.000E+01  2.000E+04 -1.185E-02
   1   15   26     3     5    1.7769E+05 -1.4491E+02   1.7783E+05  0.000E+00  0.000E+00  0.000E+00  3.41695E+01  1.695E-01  2.000E+01  2.000E+04 -7.245E-03
   1   16   27     3     6    1.7783E+05 -1.2495E+02   1.7796E+05  0.000E+00  0.000E+00  0.000E+00  3.32807E+01  1.696E-01  2.000E+01  2.000E+04 -6.247E-03
   1   17   28     3     7    1.7796E+05 -4.7855E+02   1.7844E+05  0.000E+00  0.000E+00  0.000E+00  3.23920E+01  1.698E-01  2.000E+01  2.000E+04 -2.393E-02
   1   18   29     3     8    1.7844E+05 -2.5701E+03   1.8101E+05  0.000E+00  0.000E+00  0.000E+00  3.15040E+01  1.706E-01  2.000E+01  2.000E+04 -1.285E-01
   1   18   30     3     9    1.8101E+05 -2.7556E+03   1.8376E+05  0.000E+00  0.000E+00  0.000E+00  3.06166E+01  1.721E-01  2.000E+01  2.000E+04 -1.378E-01



1
              HEAD IN LAYER   1 AT END OF TIME STEP   1 IN STRESS PERIOD    8
  ---------------------------------------------------------------------------

          1      2      3      4      5      6      7      8      9     10
         11     12     13     14     15     16     17     18     19     20
         21     22     23     24     25     26     27     28     29     30
 .........................................................................
   1  ****** ****** ****** ****** ****** ****** ****** ****** ****** ******
      ****** ****** ****** ****** ****** ****** ****** ****** ****** ******
      ****** ****** ****** ****** ****** ****** ****** ****** ****** ******
   2  ****** ****** ****** ****** ****** ****** ****** ****** ****** ******
      ****** ****** ****** ****** ****** ****** ****** ****** ****** ******
      ****** ****** ****** ****** ****** ****** ****** ****** ****** ******
   3  ****** ****** ****** ****** ****** ****** ****** ****** ****** ******
      ****** ****** ****** ****** ****** ****** ****** ****** ****** ******
      ****** ****** ****** ****** ****** ****** ****** ****** ****** ******
   4  ****** ****** ****** ****** ****** ****** ****** ****** ****** ******
      ****** ****** ****** ****** ****** ****** ****** ****** ****** ******
      ****** ****** ****** ****** ****** ****** ****** ****** ****** ******
   5  ****** ****** ****** ****** ****** ****** ****** ****** ****** ******
      ****** ****** ****** ****** ****** ****** ****** ****** ****** ******
      ****** ****** ****** ****** ****** ****** ****** ****** ****** ******
   6  ****** ****** ****** ****** ****** ****** ****** ****** ****** ******
      ****** ****** ****** ****** ****** ****** ****** ****** ****** ******
      ****** ****** ****** ****** ****** ****** ****** ****** ****** ******
   7  ****** ****** ****** ****** ****** ****** ****** ****** ****** ******
      ****** ****** ****** ****** ****** ****** ****** ****** ****** ******
      ****** ****** ****** ****** ****** ****** ****** ****** ****** ******
   8  ****** ****** ****** ****** ****** ****** ****** ****** ****** ******
      ****** ****** ****** ****** ****** ****** ****** ****** ****** ******
      ****** ****** ****** ****** ****** ****** ****** ****** ****** ******
   9  ****** ****** ****** ****** ****** ****** ****** ****** ****** ******
      ****** ****** ****** ****** ****** ****** ****** ****** ****** ******
      ****** ****** ****** ****** ****** ****** ****** ****** ****** ******
  10  ****** ****** ****** ****** ****** ****** ****** ****** ****** ******
      ****** ****** ****** ****** ****** ****** ****** ****** ****** ******
      ****** ****** ****** ****** ****** ****** ****** ****** ****** ******
  11  ****** ****** ****** ****** ****** ****** ****** ****** ****** ******
      ****** ****** ****** ****** ****** ****** ****** ****** ****** ******
      ****** ****** ****** ****** ****** ****** ****** ****** ****** ******
  12  ****** ****** ****** ****** ****** ****** ****** ****** ****** ******
      ****** ****** ****** ****** ****** ****** ****** ****** ****** ******
      ****** ****** ****** ****** ****** ****** ****** ****** ****** ******
  13  ****** ****** ****** ****** ****** ****** ****** ****** ****** ******
      ****** ****** ****** ****** ****** ****** ****** ****** ****** ******
      ****** ****** ****** ****** ****** ****** ****** ****** ****** ******
  14  ****** ****** ****** ****** ****** ****** ****** ****** ****** ******
      ****** ****** ****** ****** ****** ****** ****** ****** ****** ******
      ****** ****** ****** ****** ****** ****** ****** ****** ****** ******
  15  ****** ****** ****** ****** ****** ****** ****** ****** ****** ******
      ****** ****** ****** ****** ****** ****** ****** ****** ****** ******
      ****** ****** ****** ****** ****** ****** ****** ****** ****** ******
  16  ****** ****** ****** ****** ****** ****** ****** ****** ****** ******
      ****** ****** ****** ****** ****** ****** ****** ****** ****** ******
      ****** ****** ****** ****** ****** ****** ****** ****** ****** ******
  17  ****** ****** ****** ****** ****** ****** ****** ****** ****** ******
      ****** ****** ****** ****** ****** ****** ****** ****** ****** ******
      ****** ****** ****** ****** ****** ****** ****** ****** ****** ******
  18  ****** ****** ****** ****** ****** ****** ****** ****** ****** ******
      ****** ****** ****** ****** ****** ****** ****** ****** ****** ******
      ****** ****** ****** ****** ****** ****** ****** ****** ****** ******
  19  ****** ****** ****** ****** ****** ****** ****** ****** ****** ******
      ****** ****** ****** ****** ****** ****** ****** ****** ****** ******
      ****** ****** ****** ****** ****** ****** ****** ****** ****** ******
  20  ****** ****** ****** ****** ****** ****** ****** ****** ****** ******
      ****** ****** ****** ****** ****** ****** ****** ****** ****** ******
      ****** ****** ****** ****** ****** ****** ****** ****** ****** ******
  21  ****** ****** ****** ****** ****** ****** ****** ****** ****** ******
      ****** ****** ****** ****** ****** ****** ****** ****** ****** ******
      ****** ****** ****** ****** ****** ****** ****** ****** ****** ******
  22  ****** ****** ****** ****** ****** ****** ****** ****** ****** ******
      ****** ****** ****** ****** ****** ****** ****** ****** ****** ******
      ****** ****** ****** ****** ****** ****** ****** ****** ****** ******
  23  ****** ****** ****** ****** ****** ****** ****** ****** ****** ******
      ****** ****** ****** ****** ****** ****** ****** ****** ****** ******
      ****** ****** ****** ****** ****** ****** ****** ****** ****** ******
  24  ****** ****** ****** ****** ****** ****** ****** ****** ****** ******
      ****** ****** ****** ****** ****** ****** ****** ****** ****** ******
      ****** ****** ****** ****** ****** ****** ****** ****** ****** ******
  25  ****** ****** ****** ****** ****** ****** ****** ****** ****** ******
      ****** ****** ****** ****** ****** ****** ****** ****** ****** ******
      ****** ****** ****** ****** ****** ****** ****** ****** ****** ******

 HEAD WILL BE SAVED ON UNIT   51 AT END OF TIME STEP    1, STRESS PERIOD    8
1
  VOLUMETRIC BUDGET FOR ENTIRE MODEL AT END OF TIME STEP    1, STRESS PERIOD   8
  ------------------------------------------------------------------------------

     CUMULATIVE VOLUMES      L**3       RATES FOR THIS TIME STEP      L**3/T
     ------------------                 ------------------------

           IN:                                      IN:
           ---                                      ---
             STORAGE =    35425615.8813               STORAGE =        2479.4974
       CONSTANT HEAD =    20645907.2508         CONSTANT HEAD =       35723.4769
               WELLS =           0.0000                 WELLS =           0.0000
            RECHARGE =    17608800.0000              RECHARGE =       27600.0000
      STREAM LEAKAGE =     4932526.3291        STREAM LEAKAGE =        8113.4855

            TOTAL IN =    78612849.4612              TOTAL IN =       73916.4598

          OUT:                                     OUT:
          ----                                     ----
             STORAGE =      818074.0865               STORAGE =        1515.8991
       CONSTANT HEAD =           0.0000         CONSTANT HEAD =           0.0000
               WELLS =    22282197.9590                 WELLS =       30523.5588
            RECHARGE =           0.0000              RECHARGE =           0.0000
      STREAM LEAKAGE =    55512579.3682        STREAM LEAKAGE =       41876.9950

           TOTAL OUT =    78612851.4137             TOTAL OUT =       73916.4530

            IN - OUT =          -1.9524              IN - OUT =       6.7720E-03

 PERCENT DISCREPANCY =          -0.00     PERCENT DISCREPANCY =           0.00






         TIME SUMMARY AT END OF TIME STEP    1 IN STRESS PERIOD    8
                    SECONDS     MINUTES      HOURS       DAYS        YEARS
                    -----------------------------------------------------------
   TIME STEP LENGTH 7.86240E+06 1.31040E+05  2184.0      91.000     0.24914    
 STRESS PERIOD TIME 7.86240E+06 1.31040E+05  2184.0      91.000     0.24914    
         TOTAL TIME 6.30720E+07 1.05120E+06  17520.      730.00      1.9986    
1
1
                            STRESS PERIOD NO.    9, LENGTH =   92.00000    
                            -----------------------------------------------

                              NUMBER OF TIME STEPS =     1

                               MULTIPLIER FOR DELT =     1.500

                            INITIAL TIME STEP SIZE =   92.00000    

 WELL NO.  LAYER   ROW   COL   STRESS RATE         
 --------------------------------------------------
      1      1      4     17     -0.1182E+05
      2      1     12     28      -9652.    
      3      1      7      8      -7590.    
      4      1     12      7      -1463.    

      4 WELLS

                 RECHARGE =  5.000000E-04

 REUSING STREAM SEGMENT DATA FROM LAST STRESS PERIOD
 
 SOLVING FOR HEAD 


     6 CALLS TO PCG ROUTINE FOR TIME STEP   1 IN STRESS PERIOD    9
    23 TOTAL ITERATIONS

 OUTPUT CONTROL FOR STRESS PERIOD    9   TIME STEP    1
    SAVE BUDGET
    SAVE HEAD FOR ALL LAYERS
    PRINT HEAD FOR ALL LAYERS
 UBDSV2 SAVING "STREAMFLOW OUT  " ON UNIT  50 AT TIME STEP  1, STRESS PERIOD   9



 STREAM LISTING     PERIOD      9   STEP        1

 LAYER ROW COL. STREAM  RCH.  FLOW INTO     FLOW TO   FLOW OUT OF   OVRLND.     DIRECT     STREAM       STREAM     STREAM     STREAM   STREAMBED  STREAMBED
                SEG.NO.  NO.  STRM. RCH.    AQUIFER    STRM. RCH.    RUNOFF     PRECIP       ET          HEAD       DEPTH      WIDTH   CONDCTNC.   GRADIENT

   1   13    1     1     1    1.0000E+05 -7.9355E+02   1.0079E+05  0.000E+00  0.000E+00  0.000E+00  4.84064E+01  1.450E-01  2.000E+01  2.000E+04 -3.968E-02
   1   13    2     1     2    1.0079E+05 -1.5953E+03   1.0239E+05  0.000E+00  0.000E+00  0.000E+00  4.79301E+01  1.460E-01  2.000E+01  2.000E+04 -7.976E-02
   1   14    3     1     3    1.0239E+05 -2.5834E+02   1.0265E+05  0.000E+00  0.000E+00  0.000E+00  4.74536E+01  1.468E-01  2.000E+01  2.000E+04 -1.292E-02
   1   15    4     1     4    1.0265E+05 -2.5215E+02   1.0290E+05  0.000E+00  0.000E+00  0.000E+00  4.69766E+01  1.470E-01  2.000E+01  2.000E+04 -1.261E-02
   1   16    5     1     5    1.0290E+05 -1.3969E+03   1.0430E+05  0.000E+00  0.000E+00  0.000E+00  4.65000E+01  1.478E-01  2.000E+01  2.000E+04 -6.984E-02
   1   16    6     1     6    1.0430E+05 -8.2145E+02   1.0512E+05  0.000E+00  0.000E+00  0.000E+00  4.60237E+01  1.487E-01  2.000E+01  2.000E+04 -4.107E-02
   1   16    7     1     7    1.0512E+05 -7.9017E+02   1.0591E+05  0.000E+00  0.000E+00  0.000E+00  4.55471E+01  1.494E-01  2.000E+01  2.000E+04 -3.951E-02
   1   16    8     1     8    1.0591E+05 -8.0376E+02   1.0671E+05  0.000E+00  0.000E+00  0.000E+00  4.50705E+01  1.501E-01  2.000E+01  2.000E+04 -4.019E-02
   1   16    9     1     9    1.0671E+05 -8.3025E+02   1.0754E+05  0.000E+00  0.000E+00  0.000E+00  4.45939E+01  1.508E-01  2.000E+01  2.000E+04 -4.151E-02
   1   16   10     1    10    1.0754E+05 -8.5930E+02   1.0840E+05  0.000E+00  0.000E+00  0.000E+00  4.41174E+01  1.515E-01  2.000E+01  2.000E+04 -4.297E-02
   1   16   11     1    11    1.0840E+05 -9.0440E+02   1.0931E+05  0.000E+00  0.000E+00  0.000E+00  4.36408E+01  1.522E-01  2.000E+01  2.000E+04 -4.522E-02
   1   16   12     1    12    1.0931E+05 -1.4830E+03   1.1079E+05  0.000E+00  0.000E+00  0.000E+00  4.31646E+01  1.532E-01  2.000E+01  2.000E+04 -7.415E-02
   1   15   13     1    13    1.1079E+05 -1.0696E+03   1.1186E+05  0.000E+00  0.000E+00  0.000E+00  4.26884E+01  1.543E-01  2.000E+01  2.000E+04 -5.348E-02
   1   14   14     1    14    1.1186E+05 -1.0534E+03   1.1291E+05  0.000E+00  0.000E+00  0.000E+00  4.22120E+01  1.551E-01  2.000E+01  2.000E+04 -5.267E-02
   1   13   15     1    15    1.1291E+05 -1.0446E+03   1.1396E+05  0.000E+00  0.000E+00  0.000E+00  4.17356E+01  1.560E-01  2.000E+01  2.000E+04 -5.223E-02
   1   12   16     1    16    1.1396E+05 -1.0501E+03   1.1501E+05  0.000E+00  0.000E+00  0.000E+00  4.12592E+01  1.569E-01  2.000E+01  2.000E+04 -5.251E-02
   1   12   17     1    17    1.1501E+05 -8.3770E+02   1.1584E+05  0.000E+00  0.000E+00  0.000E+00  4.07827E+01  1.577E-01  2.000E+01  2.000E+04 -4.188E-02
   1   12   18     1    18    1.1584E+05 -8.7062E+02   1.1671E+05  0.000E+00  0.000E+00  0.000E+00  4.03061E+01  1.584E-01  2.000E+01  2.000E+04 -4.353E-02
   1   12   19     1    19    1.1671E+05 -1.1961E+03   1.1791E+05  0.000E+00  0.000E+00  0.000E+00  3.98297E+01  1.592E-01  2.000E+01  2.000E+04 -5.981E-02
   1   13   20     1    20    1.1791E+05 -1.2682E+03   1.1918E+05  0.000E+00  0.000E+00  0.000E+00  3.93534E+01  1.602E-01  2.000E+01  2.000E+04 -6.341E-02
   1   14   21     1    21    1.1918E+05 -1.4030E+03   1.2058E+05  0.000E+00  0.000E+00  0.000E+00  3.88772E+01  1.613E-01  2.000E+01  2.000E+04 -7.015E-02
   1   14   22     1    22    1.2058E+05  4.9809E+03   1.1560E+05  0.000E+00  0.000E+00  0.000E+00  3.83985E+01  1.598E-01  2.000E+01  2.000E+04  2.490E-01
   1    9   30     2     1    5.0000E+04  6.4387E+02   4.9356E+04  0.000E+00  0.000E+00  0.000E+00  4.02404E+01  1.154E-01  2.000E+01  2.000E+04  3.219E-02
   1    9   29     2     2    4.9356E+04  4.3765E+02   4.8918E+04  0.000E+00  0.000E+00  0.000E+00  3.99897E+01  1.147E-01  2.000E+01  2.000E+04  2.188E-02
   1    9   28     2     3    4.8918E+04  2.4878E+02   4.8670E+04  0.000E+00  0.000E+00  0.000E+00  3.97392E+01  1.142E-01  2.000E+01  2.000E+04  1.244E-02
   1    9   27     2     4    4.8670E+04 -9.9464E+02   4.9664E+04  0.000E+00  0.000E+00  0.000E+00  3.94897E+01  1.147E-01  2.000E+01  2.000E+04 -4.973E-02
   1   10   26     2     5    4.9664E+04  4.5743E+02   4.9207E+04  0.000E+00  0.000E+00  0.000E+00  3.92401E+01  1.151E-01  2.000E+01  2.000E+04  2.287E-02
   1   11   25     2     6    4.9207E+04  3.9157E+02   4.8815E+04  0.000E+00  0.000E+00  0.000E+00  3.89895E+01  1.145E-01  2.000E+01  2.000E+04  1.958E-02
   1   12   24     2     7    4.8815E+04 -4.1093E+02   4.9226E+04  0.000E+00  0.000E+00  0.000E+00  3.87395E+01  1.145E-01  2.000E+01  2.000E+04 -2.055E-02
   1   13   23     2     8    4.9226E+04 -1.2482E+02   4.9351E+04  0.000E+00  0.000E+00  0.000E+00  3.84899E+01  1.149E-01  2.000E+01  2.000E+04 -6.241E-03
   1   14   22     2     9    4.9351E+04  1.7858E+03   4.7565E+04  0.000E+00  0.000E+00  0.000E+00  3.82387E+01  1.137E-01  2.000E+01  2.000E+04  8.929E-02
   1   14   22     3     1    1.6317E+05 -8.6062E+03   1.7177E+05  0.000E+00  0.000E+00  0.000E+00  3.77191E+01  1.636E-01  2.000E+01  2.000E+04 -4.303E-01
   1   15   23     3     2    1.7177E+05 -5.0016E+02   1.7227E+05  0.000E+00  0.000E+00  0.000E+00  3.68329E+01  1.662E-01  2.000E+01  2.000E+04 -2.501E-02
   1   15   24     3     3    1.7227E+05 -2.2974E+02   1.7250E+05  0.000E+00  0.000E+00  0.000E+00  3.59442E+01  1.664E-01  2.000E+01  2.000E+04 -1.149E-02
   1   15   25     3     4    1.7250E+05 -1.9396E+02   1.7270E+05  0.000E+00  0.000E+00  0.000E+00  3.50554E+01  1.665E-01  2.000E+01  2.000E+04 -9.698E-03
   1   15   26     3     5    1.7270E+05 -9.7467E+01   1.7279E+05  0.000E+00  0.000E+00  0.000E+00  3.41666E+01  1.666E-01  2.000E+01  2.000E+04 -4.873E-03
   1   16   27     3     6    1.7279E+05 -6.9240E+01   1.7286E+05  0.000E+00  0.000E+00  0.000E+00  3.32778E+01  1.667E-01  2.000E+01  2.000E+04 -3.462E-03
   1   17   28     3     7    1.7286E+05 -3.2603E+02   1.7319E+05  0.000E+00  0.000E+00  0.000E+00  3.23890E+01  1.668E-01  2.000E+01  2.000E+04 -1.630E-02
   1   18   29     3     8    1.7319E+05 -2.3963E+03   1.7559E+05  0.000E+00  0.000E+00  0.000E+00  3.15009E+01  1.676E-01  2.000E+01  2.000E+04 -1.198E-01
   1   18   30     3     9    1.7559E+05 -2.6247E+03   1.7821E+05  0.000E+00  0.000E+00  0.000E+00  3.06135E+01  1.690E-01  2.000E+01  2.000E+04 -1.312E-01



1
              HEAD IN LAYER   1 AT END OF TIME STEP   1 IN STRESS PERIOD    9
  ---------------------------------------------------------------------------

          1      2      3      4      5      6      7      8      9     10
         11     12     13     14     15     16     17     18     19     20
         21     22     23     24     25     26     27     28     29     30
 .........................................................................
   1  ****** ****** ****** ****** ****** ****** ****** ****** ****** ******
      ****** ****** ****** ****** ****** ****** ****** ****** ****** ******
      ****** ****** ****** ****** ****** ****** ****** ****** ****** ******
   2  ****** ****** ****** ****** ****** ****** ****** ****** ****** ******
      ****** ****** ****** ****** ****** ****** ****** ****** ****** ******
      ****** ****** ****** ****** ****** ****** ****** ****** ****** ******
   3  ****** ****** ****** ****** ****** ****** ****** ****** ****** ******
      ****** ****** ****** ****** ****** ****** ****** ****** ****** ******
      ****** ****** ****** ****** ****** ****** ****** ****** ****** ******
   4  ****** ****** ****** ****** ****** ****** ****** ****** ****** ******
      ****** ****** ****** ****** ****** ****** ****** ****** ****** ******
      ****** ****** ****** ****** ****** ****** ****** ****** ****** ******
   5  ****** ****** ****** ****** ****** ****** ****** ****** ****** ******
      ****** ****** ****** ****** ****** ****** ****** ****** ****** ******
      ****** ****** ****** ****** ****** ****** ****** ****** ****** ******
   6  ****** ****** ****** ****** ****** ****** ****** ****** ****** ******
      ****** ****** ****** ****** ****** ****** ****** ****** ****** ******
      ****** ****** ****** ****** ****** ****** ****** ****** ****** ******
   7  ****** ****** ****** ****** ****** ****** ****** ****** ****** ******
      ****** ****** ****** ****** ****** ****** ****** ****** ****** ******
      ****** ****** ****** ****** ****** ****** ****** ****** ****** ******
   8  ****** ****** ****** ****** ****** ****** ****** ****** ****** ******
      ****** ****** ****** ****** ****** ****** ****** ****** ****** ******
      ****** ****** ****** ****** ****** ****** ****** ****** ****** ******
   9  ****** ****** ****** ****** ****** ****** ****** ****** ****** ******
      ****** ****** ****** ****** ****** ****** ****** ****** ****** ******
      ****** ****** ****** ****** ****** ****** ****** ****** ****** ******
  10  ****** ****** ****** ****** ****** ****** ****** ****** ****** ******
      ****** ****** ****** ****** ****** ****** ****** ****** ****** ******
      ****** ****** ****** ****** ****** ****** ****** ****** ****** ******
  11  ****** ****** ****** ****** ****** ****** ****** ****** ****** ******
      ****** ****** ****** ****** ****** ****** ****** ****** ****** ******
      ****** ****** ****** ****** ****** ****** ****** ****** ****** ******
  12  ****** ****** ****** ****** ****** ****** ****** ****** ****** ******
      ****** ****** ****** ****** ****** ****** ****** ****** ****** ******
      ****** ****** ****** ****** ****** ****** ****** ****** ****** ******
  13  ****** ****** ****** ****** ****** ****** ****** ****** ****** ******
      ****** ****** ****** ****** ****** ****** ****** ****** ****** ******
      ****** ****** ****** ****** ****** ****** ****** ****** ****** ******
  14  ****** ****** ****** ****** ****** ****** ****** ****** ****** ******
      ****** ****** ****** ****** ****** ****** ****** ****** ****** ******
      ****** ****** ****** ****** ****** ****** ****** ****** ****** ******
  15  ****** ****** ****** ****** ****** ****** ****** ****** ****** ******
      ****** ****** ****** ****** ****** ****** ****** ****** ****** ******
      ****** ****** ****** ****** ****** ****** ****** ****** ****** ******
  16  ****** ****** ****** ****** ****** ****** ****** ****** ****** ******
      ****** ****** ****** ****** ****** ****** ****** ****** ****** ******
      ****** ****** ****** ****** ****** ****** ****** ****** ****** ******
  17  ****** ****** ****** ****** ****** ****** ****** ****** ****** ******
      ****** ****** ****** ****** ****** ****** ****** ****** ****** ******
      ****** ****** ****** ****** ****** ****** ****** ****** ****** ******
  18  ****** ****** ****** ****** ****** ****** ****** ****** ****** ******
      ****** ****** ****** ****** ****** ****** ****** ****** ****** ******
      ****** ****** ****** ****** ****** ****** ****** ****** ****** ******
  19  ****** ****** ****** ****** ****** ****** ****** ****** ****** ******
      ****** ****** ****** ****** ****** ****** ****** ****** ****** ******
      ****** ****** ****** ****** ****** ****** ****** ****** ****** ******
  20  ****** ****** ****** ****** ****** ****** ****** ****** ****** ******
      ****** ****** ****** ****** ****** ****** ****** ****** ****** ******
      ****** ****** ****** ****** ****** ****** ****** ****** ****** ******
  21  ****** ****** ****** ****** ****** ****** ****** ****** ****** ******
      ****** ****** ****** ****** ****** ****** ****** ****** ****** ******
      ****** ****** ****** ****** ****** ****** ****** ****** ****** ******
  22  ****** ****** ****** ****** ****** ****** ****** ****** ****** ******
      ****** ****** ****** ****** ****** ****** ****** ****** ****** ******
      ****** ****** ****** ****** ****** ****** ****** ****** ****** ******
  23  ****** ****** ****** ****** ****** ****** ****** ****** ****** ******
      ****** ****** ****** ****** ****** ****** ****** ****** ****** ******
      ****** ****** ****** ****** ****** ****** ****** ****** ****** ******
  24  ****** ****** ****** ****** ****** ****** ****** ****** ****** ******
      ****** ****** ****** ****** ****** ****** ****** ****** ****** ******
      ****** ****** ****** ****** ****** ****** ****** ****** ****** ******
  25  ****** ****** ****** ****** ****** ****** ****** ****** ****** ******
      ****** ****** ****** ****** ****** ****** ****** ****** ****** ******
      ****** ****** ****** ****** ****** ****** ****** ****** ****** ******

 HEAD WILL BE SAVED ON UNIT   51 AT END OF TIME STEP    1, STRESS PERIOD    9
1
  VOLUMETRIC BUDGET FOR ENTIRE MODEL AT END OF TIME STEP    1, STRESS PERIOD   9
  ------------------------------------------------------------------------------

     CUMULATIVE VOLUMES      L**3       RATES FOR THIS TIME STEP      L**3/T
     ------------------                 ------------------------

           IN:                                      IN:
           ---                                      ---
             STORAGE =    36158168.4546               STORAGE =        7962.5280
       CONSTANT HEAD =    24047240.8444         CONSTANT HEAD =       36971.0173
               WELLS =           0.0000                 WELLS =           0.0000
            RECHARGE =    18878400.0000              RECHARGE =       13800.0000
      STREAM LEAKAGE =     5755562.4702        STREAM LEAKAGE =        8946.0450

            TOTAL IN =    84839371.7692              TOTAL IN =       67679.5903

          OUT:                                     OUT:
          ----                                     ----
             STORAGE =      818074.0865               STORAGE =           0.0000
       CONSTANT HEAD =           0.0000         CONSTANT HEAD =           0.0000
               WELLS =    25090365.3730                 WELLS =       30523.5588
            RECHARGE =           0.0000              RECHARGE =           0.0000
      STREAM LEAKAGE =    58930934.3393        STREAM LEAKAGE =       37156.0323

           TOTAL OUT =    84839373.7988             TOTAL OUT =       67679.5911

            IN - OUT =          -2.0296              IN - OUT =      -8.3939E-04

 PERCENT DISCREPANCY =          -0.00     PERCENT DISCREPANCY =          -0.00






         TIME SUMMARY AT END OF TIME STEP    1 IN STRESS PERIOD    9
                    SECONDS     MINUTES      HOURS       DAYS        YEARS
                    -----------------------------------------------------------
   TIME STEP LENGTH 7.94880E+06 1.32480E+05  2208.0      92.000     0.25188    
 STRESS PERIOD TIME 7.94880E+06 1.32480E+05  2208.0      92.000     0.25188    
         TOTAL TIME 7.10208E+07 1.18368E+06  19728.      822.00      2.2505    
1
1
                            STRESS PERIOD NO.   10, LENGTH =   91.00000    
                            -----------------------------------------------

                              NUMBER OF TIME STEPS =     1

                               MULTIPLIER FOR DELT =     1.500

                            INITIAL TIME STEP SIZE =   91.00000    

 WELL NO.  LAYER   ROW   COL   STRESS RATE         
 --------------------------------------------------
      1      1      4     17     -0.1182E+05
      2      1     12     28      -9652.    
      3      1      7      8      -7590.    
      4      1     12      7      -1463.    

      4 WELLS

                 RECHARGE =  2.000000E-03

 REUSING STREAM SEGMENT DATA FROM LAST STRESS PERIOD
 
 SOLVING FOR HEAD 


     7 CALLS TO PCG ROUTINE FOR TIME STEP   1 IN STRESS PERIOD   10
    26 TOTAL ITERATIONS

 OUTPUT CONTROL FOR STRESS PERIOD   10   TIME STEP    1
    SAVE BUDGET
    SAVE HEAD FOR ALL LAYERS
    PRINT HEAD FOR ALL LAYERS
 UBDSV2 SAVING "STREAMFLOW OUT  " ON UNIT  50 AT TIME STEP  1, STRESS PERIOD  10



 STREAM LISTING     PERIOD     10   STEP        1

 LAYER ROW COL. STREAM  RCH.  FLOW INTO     FLOW TO   FLOW OUT OF   OVRLND.     DIRECT     STREAM       STREAM     STREAM     STREAM   STREAMBED  STREAMBED
                SEG.NO.  NO.  STRM. RCH.    AQUIFER    STRM. RCH.    RUNOFF     PRECIP       ET          HEAD       DEPTH      WIDTH   CONDCTNC.   GRADIENT

   1   13    1     1     1    1.0000E+05 -1.2272E+03   1.0123E+05  0.000E+00  0.000E+00  0.000E+00  4.84065E+01  1.452E-01  2.000E+01  2.000E+04 -6.136E-02
   1   13    2     1     2    1.0123E+05 -2.0743E+03   1.0330E+05  0.000E+00  0.000E+00  0.000E+00  4.79307E+01  1.466E-01  2.000E+01  2.000E+04 -1.037E-01
   1   14    3     1     3    1.0330E+05 -4.4127E+02   1.0374E+05  0.000E+00  0.000E+00  0.000E+00  4.74545E+01  1.477E-01  2.000E+01  2.000E+04 -2.206E-02
   1   15    4     1     4    1.0374E+05 -4.4866E+02   1.0419E+05  0.000E+00  0.000E+00  0.000E+00  4.69776E+01  1.481E-01  2.000E+01  2.000E+04 -2.243E-02
   1   16    5     1     5    1.0419E+05 -2.0143E+03   1.0621E+05  0.000E+00  0.000E+00  0.000E+00  4.65014E+01  1.491E-01  2.000E+01  2.000E+04 -1.007E-01
   1   16    6     1     6    1.0621E+05 -1.1812E+03   1.0739E+05  0.000E+00  0.000E+00  0.000E+00  4.60255E+01  1.505E-01  2.000E+01  2.000E+04 -5.906E-02
   1   16    7     1     7    1.0739E+05 -1.1319E+03   1.0852E+05  0.000E+00  0.000E+00  0.000E+00  4.55492E+01  1.514E-01  2.000E+01  2.000E+04 -5.659E-02
   1   16    8     1     8    1.0852E+05 -1.1401E+03   1.0966E+05  0.000E+00  0.000E+00  0.000E+00  4.50729E+01  1.524E-01  2.000E+01  2.000E+04 -5.701E-02
   1   16    9     1     9    1.0966E+05 -1.1655E+03   1.1082E+05  0.000E+00  0.000E+00  0.000E+00  4.45965E+01  1.534E-01  2.000E+01  2.000E+04 -5.827E-02
   1   16   10     1    10    1.1082E+05 -1.1954E+03   1.1202E+05  0.000E+00  0.000E+00  0.000E+00  4.41203E+01  1.544E-01  2.000E+01  2.000E+04 -5.977E-02
   1   16   11     1    11    1.1202E+05 -1.2447E+03   1.1326E+05  0.000E+00  0.000E+00  0.000E+00  4.36440E+01  1.554E-01  2.000E+01  2.000E+04 -6.224E-02
   1   16   12     1    12    1.1326E+05 -2.0504E+03   1.1531E+05  0.000E+00  0.000E+00  0.000E+00  4.31681E+01  1.567E-01  2.000E+01  2.000E+04 -1.025E-01
   1   15   13     1    13    1.1531E+05 -1.6497E+03   1.1696E+05  0.000E+00  0.000E+00  0.000E+00  4.26923E+01  1.582E-01  2.000E+01  2.000E+04 -8.249E-02
   1   14   14     1    14    1.1696E+05 -1.6379E+03   1.1860E+05  0.000E+00  0.000E+00  0.000E+00  4.22164E+01  1.596E-01  2.000E+01  2.000E+04 -8.189E-02
   1   13   15     1    15    1.1860E+05 -1.6168E+03   1.2022E+05  0.000E+00  0.000E+00  0.000E+00  4.17404E+01  1.609E-01  2.000E+01  2.000E+04 -8.084E-02
   1   12   16     1    16    1.2022E+05 -1.5968E+03   1.2182E+05  0.000E+00  0.000E+00  0.000E+00  4.12645E+01  1.622E-01  2.000E+01  2.000E+04 -7.984E-02
   1   12   17     1    17    1.2182E+05 -1.2559E+03   1.2307E+05  0.000E+00  0.000E+00  0.000E+00  4.07883E+01  1.633E-01  2.000E+01  2.000E+04 -6.279E-02
   1   12   18     1    18    1.2307E+05 -1.2860E+03   1.2436E+05  0.000E+00  0.000E+00  0.000E+00  4.03121E+01  1.644E-01  2.000E+01  2.000E+04 -6.430E-02
   1   12   19     1    19    1.2436E+05 -1.7077E+03   1.2607E+05  0.000E+00  0.000E+00  0.000E+00  3.98360E+01  1.655E-01  2.000E+01  2.000E+04 -8.539E-02
   1   13   20     1    20    1.2607E+05 -1.7870E+03   1.2785E+05  0.000E+00  0.000E+00  0.000E+00  3.93601E+01  1.669E-01  2.000E+01  2.000E+04 -8.935E-02
   1   14   21     1    21    1.2785E+05 -1.9281E+03   1.2978E+05  0.000E+00  0.000E+00  0.000E+00  3.88843E+01  1.684E-01  2.000E+01  2.000E+04 -9.640E-02
   1   14   22     1    22    1.2978E+05  4.8516E+03   1.2493E+05  0.000E+00  0.000E+00  0.000E+00  3.84059E+01  1.672E-01  2.000E+01  2.000E+04  2.426E-01
   1    9   30     2     1    5.0000E+04  2.3106E+02   4.9769E+04  0.000E+00  0.000E+00  0.000E+00  4.02407E+01  1.157E-01  2.000E+01  2.000E+04  1.155E-02
   1    9   29     2     2    4.9769E+04  2.7254E+01   4.9742E+04  0.000E+00  0.000E+00  0.000E+00  3.99905E+01  1.155E-01  2.000E+01  2.000E+04  1.363E-03
   1    9   28     2     3    4.9742E+04 -1.6045E+02   4.9902E+04  0.000E+00  0.000E+00  0.000E+00  3.97406E+01  1.156E-01  2.000E+01  2.000E+04 -8.023E-03
   1    9   27     2     4    4.9902E+04 -1.5434E+03   5.1446E+04  0.000E+00  0.000E+00  0.000E+00  3.94918E+01  1.168E-01  2.000E+01  2.000E+04 -7.717E-02
   1   10   26     2     5    5.1446E+04 -9.1911E+01   5.1537E+04  0.000E+00  0.000E+00  0.000E+00  3.92429E+01  1.179E-01  2.000E+01  2.000E+04 -4.596E-03
   1   11   25     2     6    5.1537E+04 -1.3335E+02   5.1671E+04  0.000E+00  0.000E+00  0.000E+00  3.89931E+01  1.181E-01  2.000E+01  2.000E+04 -6.668E-03
   1   12   24     2     7    5.1671E+04 -8.8563E+02   5.2556E+04  0.000E+00  0.000E+00  0.000E+00  3.87438E+01  1.188E-01  2.000E+01  2.000E+04 -4.428E-02
   1   13   23     2     8    5.2556E+04 -2.7294E+02   5.2829E+04  0.000E+00  0.000E+00  0.000E+00  3.84946E+01  1.196E-01  2.000E+01  2.000E+04 -1.365E-02
   1   14   22     2     9    5.2829E+04  1.6073E+03   5.1222E+04  0.000E+00  0.000E+00  0.000E+00  3.82437E+01  1.187E-01  2.000E+01  2.000E+04  8.036E-02
   1   14   22     3     1    1.7615E+05 -8.7331E+03   1.8488E+05  0.000E+00  0.000E+00  0.000E+00  3.77266E+01  1.711E-01  2.000E+01  2.000E+04 -4.367E-01
   1   15   23     3     2    1.8488E+05 -6.6293E+02   1.8555E+05  0.000E+00  0.000E+00  0.000E+00  3.68404E+01  1.737E-01  2.000E+01  2.000E+04 -3.315E-02
   1   15   24     3     3    1.8555E+05 -3.6706E+02   1.8591E+05  0.000E+00  0.000E+00  0.000E+00  3.59518E+01  1.740E-01  2.000E+01  2.000E+04 -1.835E-02
   1   15   25     3     4    1.8591E+05 -3.3468E+02   1.8625E+05  0.000E+00  0.000E+00  0.000E+00  3.50631E+01  1.742E-01  2.000E+01  2.000E+04 -1.673E-02
   1   15   26     3     5    1.8625E+05 -2.5980E+02   1.8651E+05  0.000E+00  0.000E+00  0.000E+00  3.41744E+01  1.744E-01  2.000E+01  2.000E+04 -1.299E-02
   1   16   27     3     6    1.8651E+05 -2.5526E+02   1.8676E+05  0.000E+00  0.000E+00  0.000E+00  3.32857E+01  1.745E-01  2.000E+01  2.000E+04 -1.276E-02
   1   17   28     3     7    1.8676E+05 -8.4724E+02   1.8761E+05  0.000E+00  0.000E+00  0.000E+00  3.23971E+01  1.749E-01  2.000E+01  2.000E+04 -4.236E-02
   1   18   29     3     8    1.8761E+05 -2.9489E+03   1.9056E+05  0.000E+00  0.000E+00  0.000E+00  3.15092E+01  1.759E-01  2.000E+01  2.000E+04 -1.474E-01
   1   18   30     3     9    1.9056E+05 -3.0508E+03   1.9361E+05  0.000E+00  0.000E+00  0.000E+00  3.06220E+01  1.776E-01  2.000E+01  2.000E+04 -1.525E-01



1
              HEAD IN LAYER   1 AT END OF TIME STEP   1 IN STRESS PERIOD   10
  ---------------------------------------------------------------------------

          1      2      3      4      5      6      7      8      9     10
         11     12     13     14     15     16     17     18     19     20
         21     22     23     24     25     26     27     28     29     30
 .........................................................................
   1  ****** ****** ****** ****** ****** ****** ****** ****** ****** ******
      ****** ****** ****** ****** ****** ****** ****** ****** ****** ******
      ****** ****** ****** ****** ****** ****** ****** ****** ****** ******
   2  ****** ****** ****** ****** ****** ****** ****** ****** ****** ******
      ****** ****** ****** ****** ****** ****** ****** ****** ****** ******
      ****** ****** ****** ****** ****** ****** ****** ****** ****** ******
   3  ****** ****** ****** ****** ****** ****** ****** ****** ****** ******
      ****** ****** ****** ****** ****** ****** ****** ****** ****** ******
      ****** ****** ****** ****** ****** ****** ****** ****** ****** ******
   4  ****** ****** ****** ****** ****** ****** ****** ****** ****** ******
      ****** ****** ****** ****** ****** ****** ****** ****** ****** ******
      ****** ****** ****** ****** ****** ****** ****** ****** ****** ******
   5  ****** ****** ****** ****** ****** ****** ****** ****** ****** ******
      ****** ****** ****** ****** ****** ****** ****** ****** ****** ******
      ****** ****** ****** ****** ****** ****** ****** ****** ****** ******
   6  ****** ****** ****** ****** ****** ****** ****** ****** ****** ******
      ****** ****** ****** ****** ****** ****** ****** ****** ****** ******
      ****** ****** ****** ****** ****** ****** ****** ****** ****** ******
   7  ****** ****** ****** ****** ****** ****** ****** ****** ****** ******
      ****** ****** ****** ****** ****** ****** ****** ****** ****** ******
      ****** ****** ****** ****** ****** ****** ****** ****** ****** ******
   8  ****** ****** ****** ****** ****** ****** ****** ****** ****** ******
      ****** ****** ****** ****** ****** ****** ****** ****** ****** ******
      ****** ****** ****** ****** ****** ****** ****** ****** ****** ******
   9  ****** ****** ****** ****** ****** ****** ****** ****** ****** ******
      ****** ****** ****** ****** ****** ****** ****** ****** ****** ******
      ****** ****** ****** ****** ****** ****** ****** ****** ****** ******
  10  ****** ****** ****** ****** ****** ****** ****** ****** ****** ******
      ****** ****** ****** ****** ****** ****** ****** ****** ****** ******
      ****** ****** ****** ****** ****** ****** ****** ****** ****** ******
  11  ****** ****** ****** ****** ****** ****** ****** ****** ****** ******
      ****** ****** ****** ****** ****** ****** ****** ****** ****** ******
      ****** ****** ****** ****** ****** ****** ****** ****** ****** ******
  12  ****** ****** ****** ****** ****** ****** ****** ****** ****** ******
      ****** ****** ****** ****** ****** ****** ****** ****** ****** ******
      ****** ****** ****** ****** ****** ****** ****** ****** ****** ******
  13  ****** ****** ****** ****** ****** ****** ****** ****** ****** ******
      ****** ****** ****** ****** ****** ****** ****** ****** ****** ******
      ****** ****** ****** ****** ****** ****** ****** ****** ****** ******
  14  ****** ****** ****** ****** ****** ****** ****** ****** ****** ******
      ****** ****** ****** ****** ****** ****** ****** ****** ****** ******
      ****** ****** ****** ****** ****** ****** ****** ****** ****** ******
  15  ****** ****** ****** ****** ****** ****** ****** ****** ****** ******
      ****** ****** ****** ****** ****** ****** ****** ****** ****** ******
      ****** ****** ****** ****** ****** ****** ****** ****** ****** ******
  16  ****** ****** ****** ****** ****** ****** ****** ****** ****** ******
      ****** ****** ****** ****** ****** ****** ****** ****** ****** ******
      ****** ****** ****** ****** ****** ****** ****** ****** ****** ******
  17  ****** ****** ****** ****** ****** ****** ****** ****** ****** ******
      ****** ****** ****** ****** ****** ****** ****** ****** ****** ******
      ****** ****** ****** ****** ****** ****** ****** ****** ****** ******
  18  ****** ****** ****** ****** ****** ****** ****** ****** ****** ******
      ****** ****** ****** ****** ****** ****** ****** ****** ****** ******
      ****** ****** ****** ****** ****** ****** ****** ****** ****** ******
  19  ****** ****** ****** ****** ****** ****** ****** ****** ****** ******
      ****** ****** ****** ****** ****** ****** ****** ****** ****** ******
      ****** ****** ****** ****** ****** ****** ****** ****** ****** ******
  20  ****** ****** ****** ****** ****** ****** ****** ****** ****** ******
      ****** ****** ****** ****** ****** ****** ****** ****** ****** ******
      ****** ****** ****** ****** ****** ****** ****** ****** ****** ******
  21  ****** ****** ****** ****** ****** ****** ****** ****** ****** ******
      ****** ****** ****** ****** ****** ****** ****** ****** ****** ******
      ****** ****** ****** ****** ****** ****** ****** ****** ****** ******
  22  ****** ****** ****** ****** ****** ****** ****** ****** ****** ******
      ****** ****** ****** ****** ****** ****** ****** ****** ****** ******
      ****** ****** ****** ****** ****** ****** ****** ****** ****** ******
  23  ****** ****** ****** ****** ****** ****** ****** ****** ****** ******
      ****** ****** ****** ****** ****** ****** ****** ****** ****** ******
      ****** ****** ****** ****** ****** ****** ****** ****** ****** ******
  24  ****** ****** ****** ****** ****** ****** ****** ****** ****** ******
      ****** ****** ****** ****** ****** ****** ****** ****** ****** ******
      ****** ****** ****** ****** ****** ****** ****** ****** ****** ******
  25  ****** ****** ****** ****** ****** ****** ****** ****** ****** ******
      ****** ****** ****** ****** ****** ****** ****** ****** ****** ******
      ****** ****** ****** ****** ****** ****** ****** ****** ****** ******

 HEAD WILL BE SAVED ON UNIT   51 AT END OF TIME STEP    1, STRESS PERIOD   10
1
  VOLUMETRIC BUDGET FOR ENTIRE MODEL AT END OF TIME STEP    1, STRESS PERIOD  10
  ------------------------------------------------------------------------------

     CUMULATIVE VOLUMES      L**3       RATES FOR THIS TIME STEP      L**3/T
     ------------------                 ------------------------

           IN:                                      IN:
           ---                                      ---
             STORAGE =    36158168.4546               STORAGE =           0.0000
       CONSTANT HEAD =    27148165.1295         CONSTANT HEAD =       34076.0910
               WELLS =           0.0000                 WELLS =           0.0000
            RECHARGE =    23901600.0000              RECHARGE =       55200.0000
      STREAM LEAKAGE =     6366824.5256        STREAM LEAKAGE =        6717.1654

            TOTAL IN =    93574758.1098              TOTAL IN =       95993.2565

          OUT:                                     OUT:
          ----                                     ----
             STORAGE =     2195938.6635               STORAGE =       15141.3690
       CONSTANT HEAD =           0.0000         CONSTANT HEAD =           0.0000
               WELLS =    27868009.2281                 WELLS =       30523.5588
            RECHARGE =           0.0000              RECHARGE =           0.0000
      STREAM LEAKAGE =    63510811.9018        STREAM LEAKAGE =       50328.3249

           TOTAL OUT =    93574759.7934             TOTAL OUT =       95993.2527

            IN - OUT =          -1.6836              IN - OUT =       3.8021E-03

 PERCENT DISCREPANCY =          -0.00     PERCENT DISCREPANCY =           0.00






         TIME SUMMARY AT END OF TIME STEP    1 IN STRESS PERIOD   10
                    SECONDS     MINUTES      HOURS       DAYS        YEARS
                    -----------------------------------------------------------
   TIME STEP LENGTH 7.86240E+06 1.31040E+05  2184.0      91.000     0.24914    
 STRESS PERIOD TIME 7.86240E+06 1.31040E+05  2184.0      91.000     0.24914    
         TOTAL TIME 7.88832E+07 1.31472E+06  21912.      913.00      2.4997    
1
1
                            STRESS PERIOD NO.   11, LENGTH =   91.00000    
                            -----------------------------------------------

                              NUMBER OF TIME STEPS =     1

                               MULTIPLIER FOR DELT =     1.500

                            INITIAL TIME STEP SIZE =   91.00000    

 WELL NO.  LAYER   ROW   COL   STRESS RATE         
 --------------------------------------------------
      1      1      4     17     -0.1182E+05
      2      1     12     28      -9652.    
      3      1      7      8      -7590.    
      4      1     12      7      -1463.    

      4 WELLS

                 RECHARGE =   0.00000    

 REUSING STREAM SEGMENT DATA FROM LAST STRESS PERIOD
 
 SOLVING FOR HEAD 


     7 CALLS TO PCG ROUTINE FOR TIME STEP   1 IN STRESS PERIOD   11
    26 TOTAL ITERATIONS

 OUTPUT CONTROL FOR STRESS PERIOD   11   TIME STEP    1
    SAVE BUDGET
    SAVE HEAD FOR ALL LAYERS
    PRINT HEAD FOR ALL LAYERS
 UBDSV2 SAVING "STREAMFLOW OUT  " ON UNIT  50 AT TIME STEP  1, STRESS PERIOD  11



 STREAM LISTING     PERIOD     11   STEP        1

 LAYER ROW COL. STREAM  RCH.  FLOW INTO     FLOW TO   FLOW OUT OF   OVRLND.     DIRECT     STREAM       STREAM     STREAM     STREAM   STREAMBED  STREAMBED
                SEG.NO.  NO.  STRM. RCH.    AQUIFER    STRM. RCH.    RUNOFF     PRECIP       ET          HEAD       DEPTH      WIDTH   CONDCTNC.   GRADIENT

   1   13    1     1     1    1.0000E+05 -6.4584E+02   1.0065E+05  0.000E+00  0.000E+00  0.000E+00  4.84063E+01  1.449E-01  2.000E+01  2.000E+04 -3.229E-02
   1   13    2     1     2    1.0065E+05 -1.4258E+03   1.0207E+05  0.000E+00  0.000E+00  0.000E+00  4.79299E+01  1.458E-01  2.000E+01  2.000E+04 -7.129E-02
   1   14    3     1     3    1.0207E+05 -2.0774E+02   1.0228E+05  0.000E+00  0.000E+00  0.000E+00  4.74534E+01  1.465E-01  2.000E+01  2.000E+04 -1.039E-02
   1   15    4     1     4    1.0228E+05 -2.0463E+02   1.0248E+05  0.000E+00  0.000E+00  0.000E+00  4.69763E+01  1.467E-01  2.000E+01  2.000E+04 -1.023E-02
   1   16    5     1     5    1.0248E+05 -1.3253E+03   1.0381E+05  0.000E+00  0.000E+00  0.000E+00  4.64996E+01  1.474E-01  2.000E+01  2.000E+04 -6.627E-02
   1   16    6     1     6    1.0381E+05 -7.6515E+02   1.0457E+05  0.000E+00  0.000E+00  0.000E+00  4.60233E+01  1.483E-01  2.000E+01  2.000E+04 -3.826E-02
   1   16    7     1     7    1.0457E+05 -7.3319E+02   1.0531E+05  0.000E+00  0.000E+00  0.000E+00  4.55466E+01  1.489E-01  2.000E+01  2.000E+04 -3.666E-02
   1   16    8     1     8    1.0531E+05 -7.4700E+02   1.0605E+05  0.000E+00  0.000E+00  0.000E+00  4.50700E+01  1.495E-01  2.000E+01  2.000E+04 -3.735E-02
   1   16    9     1     9    1.0605E+05 -7.7486E+02   1.0683E+05  0.000E+00  0.000E+00  0.000E+00  4.45934E+01  1.502E-01  2.000E+01  2.000E+04 -3.874E-02
   1   16   10     1    10    1.0683E+05 -8.0630E+02   1.0764E+05  0.000E+00  0.000E+00  0.000E+00  4.41168E+01  1.508E-01  2.000E+01  2.000E+04 -4.031E-02
   1   16   11     1    11    1.0764E+05 -8.5447E+02   1.0849E+05  0.000E+00  0.000E+00  0.000E+00  4.36402E+01  1.515E-01  2.000E+01  2.000E+04 -4.272E-02
   1   16   12     1    12    1.0849E+05 -1.4032E+03   1.0989E+05  0.000E+00  0.000E+00  0.000E+00  4.31639E+01  1.525E-01  2.000E+01  2.000E+04 -7.016E-02
   1   15   13     1    13    1.0989E+05 -9.5655E+02   1.1085E+05  0.000E+00  0.000E+00  0.000E+00  4.26876E+01  1.535E-01  2.000E+01  2.000E+04 -4.783E-02
   1   14   14     1    14    1.1085E+05 -9.2494E+02   1.1177E+05  0.000E+00  0.000E+00  0.000E+00  4.22111E+01  1.543E-01  2.000E+01  2.000E+04 -4.625E-02
   1   13   15     1    15    1.1177E+05 -9.0782E+02   1.1268E+05  0.000E+00  0.000E+00  0.000E+00  4.17346E+01  1.550E-01  2.000E+01  2.000E+04 -4.539E-02
   1   12   16     1    16    1.1268E+05 -9.0845E+02   1.1359E+05  0.000E+00  0.000E+00  0.000E+00  4.12580E+01  1.558E-01  2.000E+01  2.000E+04 -4.542E-02
   1   12   17     1    17    1.1359E+05 -7.4381E+02   1.1434E+05  0.000E+00  0.000E+00  0.000E+00  4.07815E+01  1.565E-01  2.000E+01  2.000E+04 -3.719E-02
   1   12   18     1    18    1.1434E+05 -7.8268E+02   1.1512E+05  0.000E+00  0.000E+00  0.000E+00  4.03048E+01  1.571E-01  2.000E+01  2.000E+04 -3.913E-02
   1   12   19     1    19    1.1512E+05 -1.0901E+03   1.1621E+05  0.000E+00  0.000E+00  0.000E+00  3.98283E+01  1.578E-01  2.000E+01  2.000E+04 -5.450E-02
   1   13   20     1    20    1.1621E+05 -1.1728E+03   1.1738E+05  0.000E+00  0.000E+00  0.000E+00  3.93520E+01  1.588E-01  2.000E+01  2.000E+04 -5.864E-02
   1   14   21     1    21    1.1738E+05 -1.3310E+03   1.1871E+05  0.000E+00  0.000E+00  0.000E+00  3.88757E+01  1.598E-01  2.000E+01  2.000E+04 -6.655E-02
   1   14   22     1    22    1.1871E+05  5.0002E+03   1.1371E+05  0.000E+00  0.000E+00  0.000E+00  3.83969E+01  1.583E-01  2.000E+01  2.000E+04  2.500E-01
   1    9   30     2     1    5.0000E+04  7.2009E+02   4.9280E+04  0.000E+00  0.000E+00  0.000E+00  4.02404E+01  1.154E-01  2.000E+01  2.000E+04  3.600E-02
   1    9   29     2     2    4.9280E+04  5.1332E+02   4.8767E+04  0.000E+00  0.000E+00  0.000E+00  3.99895E+01  1.145E-01  2.000E+01  2.000E+04  2.567E-02
   1    9   28     2     3    4.8767E+04  3.2365E+02   4.8443E+04  0.000E+00  0.000E+00  0.000E+00  3.97389E+01  1.139E-01  2.000E+01  2.000E+04  1.618E-02
   1    9   27     2     4    4.8443E+04 -9.0087E+02   4.9344E+04  0.000E+00  0.000E+00  0.000E+00  3.94893E+01  1.143E-01  2.000E+01  2.000E+04 -4.504E-02
   1   10   26     2     5    4.9344E+04  5.6468E+02   4.8779E+04  0.000E+00  0.000E+00  0.000E+00  3.92396E+01  1.146E-01  2.000E+01  2.000E+04  2.823E-02
   1   11   25     2     6    4.8779E+04  4.9931E+02   4.8280E+04  0.000E+00  0.000E+00  0.000E+00  3.89888E+01  1.138E-01  2.000E+01  2.000E+04  2.497E-02
   1   12   24     2     7    4.8280E+04 -3.0998E+02   4.8590E+04  0.000E+00  0.000E+00  0.000E+00  3.87387E+01  1.137E-01  2.000E+01  2.000E+04 -1.550E-02
   1   13   23     2     8    4.8590E+04 -8.6741E+01   4.8677E+04  0.000E+00  0.000E+00  0.000E+00  3.84890E+01  1.140E-01  2.000E+01  2.000E+04 -4.337E-03
   1   14   22     2     9    4.8677E+04  1.8162E+03   4.6860E+04  0.000E+00  0.000E+00  0.000E+00  3.82377E+01  1.127E-01  2.000E+01  2.000E+04  9.081E-02
   1   14   22     3     1    1.6057E+05 -8.5869E+03   1.6916E+05  0.000E+00  0.000E+00  0.000E+00  3.77176E+01  1.620E-01  2.000E+01  2.000E+04 -4.293E-01
   1   15   23     3     2    1.6916E+05 -4.7104E+02   1.6963E+05  0.000E+00  0.000E+00  0.000E+00  3.68313E+01  1.647E-01  2.000E+01  2.000E+04 -2.355E-02
   1   15   24     3     3    1.6963E+05 -2.0203E+02   1.6983E+05  0.000E+00  0.000E+00  0.000E+00  3.59427E+01  1.649E-01  2.000E+01  2.000E+04 -1.010E-02
   1   15   25     3     4    1.6983E+05 -1.6580E+02   1.7000E+05  0.000E+00  0.000E+00  0.000E+00  3.50539E+01  1.650E-01  2.000E+01  2.000E+04 -8.290E-03
   1   15   26     3     5    1.7000E+05 -6.4157E+01   1.7006E+05  0.000E+00  0.000E+00  0.000E+00  3.41650E+01  1.650E-01  2.000E+01  2.000E+04 -3.208E-03
   1   16   27     3     6    1.7006E+05 -3.2350E+01   1.7009E+05  0.000E+00  0.000E+00  0.000E+00  3.32762E+01  1.651E-01  2.000E+01  2.000E+04 -1.618E-03
   1   17   28     3     7    1.7009E+05 -2.3786E+02   1.7033E+05  0.000E+00  0.000E+00  0.000E+00  3.23874E+01  1.652E-01  2.000E+01  2.000E+04 -1.189E-02
   1   18   29     3     8    1.7033E+05 -2.3277E+03   1.7266E+05  0.000E+00  0.000E+00  0.000E+00  3.14992E+01  1.659E-01  2.000E+01  2.000E+04 -1.164E-01
   1   18   30     3     9    1.7266E+05 -2.5620E+03   1.7522E+05  0.000E+00  0.000E+00  0.000E+00  3.06118E+01  1.673E-01  2.000E+01  2.000E+04 -1.281E-01



1
              HEAD IN LAYER   1 AT END OF TIME STEP   1 IN STRESS PERIOD   11
  ---------------------------------------------------------------------------

          1      2      3      4      5      6      7      8      9     10
         11     12     13     14     15     16     17     18     19     20
         21     22     23     24     25     26     27     28     29     30
 .........................................................................
   1  ****** ****** ****** ****** ****** ****** ****** ****** ****** ******
      ****** ****** ****** ****** ****** ****** ****** ****** ****** ******
      ****** ****** ****** ****** ****** ****** ****** ****** ****** ******
   2  ****** ****** ****** ****** ****** ****** ****** ****** ****** ******
      ****** ****** ****** ****** ****** ****** ****** ****** ****** ******
      ****** ****** ****** ****** ****** ****** ****** ****** ****** ******
   3  ****** ****** ****** ****** ****** ****** ****** ****** ****** ******
      ****** ****** ****** ****** ****** ****** ****** ****** ****** ******
      ****** ****** ****** ****** ****** ****** ****** ****** ****** ******
   4  ****** ****** ****** ****** ****** ****** ****** ****** ****** ******
      ****** ****** ****** ****** ****** ****** ****** ****** ****** ******
      ****** ****** ****** ****** ****** ****** ****** ****** ****** ******
   5  ****** ****** ****** ****** ****** ****** ****** ****** ****** ******
      ****** ****** ****** ****** ****** ****** ****** ****** ****** ******
      ****** ****** ****** ****** ****** ****** ****** ****** ****** ******
   6  ****** ****** ****** ****** ****** ****** ****** ****** ****** ******
      ****** ****** ****** ****** ****** ****** ****** ****** ****** ******
      ****** ****** ****** ****** ****** ****** ****** ****** ****** ******
   7  ****** ****** ****** ****** ****** ****** ****** ****** ****** ******
      ****** ****** ****** ****** ****** ****** ****** ****** ****** ******
      ****** ****** ****** ****** ****** ****** ****** ****** ****** ******
   8  ****** ****** ****** ****** ****** ****** ****** ****** ****** ******
      ****** ****** ****** ****** ****** ****** ****** ****** ****** ******
      ****** ****** ****** ****** ****** ****** ****** ****** ****** ******
   9  ****** ****** ****** ****** ****** ****** ****** ****** ****** ******
      ****** ****** ****** ****** ****** ****** ****** ****** ****** ******
      ****** ****** ****** ****** ****** ****** ****** ****** ****** ******
  10  ****** ****** ****** ****** ****** ****** ****** ****** ****** ******
      ****** ****** ****** ****** ****** ****** ****** ****** ****** ******
      ****** ****** ****** ****** ****** ****** ****** ****** ****** ******
  11  ****** ****** ****** ****** ****** ****** ****** ****** ****** ******
      ****** ****** ****** ****** ****** ****** ****** ****** ****** ******
      ****** ****** ****** ****** ****** ****** ****** ****** ****** ******
  12  ****** ****** ****** ****** ****** ****** ****** ****** ****** ******
      ****** ****** ****** ****** ****** ****** ****** ****** ****** ******
      ****** ****** ****** ****** ****** ****** ****** ****** ****** ******
  13  ****** ****** ****** ****** ****** ****** ****** ****** ****** ******
      ****** ****** ****** ****** ****** ****** ****** ****** ****** ******
      ****** ****** ****** ****** ****** ****** ****** ****** ****** ******
  14  ****** ****** ****** ****** ****** ****** ****** ****** ****** ******
      ****** ****** ****** ****** ****** ****** ****** ****** ****** ******
      ****** ****** ****** ****** ****** ****** ****** ****** ****** ******
  15  ****** ****** ****** ****** ****** ****** ****** ****** ****** ******
      ****** ****** ****** ****** ****** ****** ****** ****** ****** ******
      ****** ****** ****** ****** ****** ****** ****** ****** ****** ******
  16  ****** ****** ****** ****** ****** ****** ****** ****** ****** ******
      ****** ****** ****** ****** ****** ****** ****** ****** ****** ******
      ****** ****** ****** ****** ****** ****** ****** ****** ****** ******
  17  ****** ****** ****** ****** ****** ****** ****** ****** ****** ******
      ****** ****** ****** ****** ****** ****** ****** ****** ****** ******
      ****** ****** ****** ****** ****** ****** ****** ****** ****** ******
