                                  MODFLOW-2005     
      U.S. GEOLOGICAL SURVEY MODULAR FINITE-DIFFERENCE GROUND-WATER FLOW MODEL
                            VERSION 1.11.00 8/8/2013

 LIST FILE: supply2.lst
                         UNIT   10

 OPENING ..\data\supply.dis
 FILE TYPE:DIS   UNIT   11   STATUS:OLD    
 FORMAT:FORMATTED              ACCESS:SEQUENTIAL          

 OPENING ..\data\supply.ba6
 FILE TYPE:BAS6   UNIT   12   STATUS:OLD    
 FORMAT:FORMATTED              ACCESS:SEQUENTIAL          

 OPENING ..\data\supply.bc6
 FILE TYPE:BCF6   UNIT   13   STATUS:OLD    
 FORMAT:FORMATTED              ACCESS:SEQUENTIAL          

 OPENING ..\data\supply.rch
 FILE TYPE:RCH   UNIT   15   STATUS:OLD    
 FORMAT:FORMATTED              ACCESS:SEQUENTIAL          

 OPENING ..\data\supply2.sfr
 FILE TYPE:SFR   UNIT   16   STATUS:OLD    
 FORMAT:FORMATTED              ACCESS:SEQUENTIAL          

 OPENING ..\data\supply.oc
 FILE TYPE:OC   UNIT   17   STATUS:OLD    
 FORMAT:FORMATTED              ACCESS:SEQUENTIAL          

 OPENING ..\data\supply.pcg
 FILE TYPE:PCG   UNIT   18   STATUS:OLD    
 FORMAT:FORMATTED              ACCESS:SEQUENTIAL          

 OPENING supply2.wel
 FILE TYPE:WEL   UNIT   19   STATUS:OLD    
 FORMAT:FORMATTED              ACCESS:SEQUENTIAL          

 OPENING supply2sf.cbc
 FILE TYPE:DATA(BINARY)   UNIT   50   STATUS:UNKNOWN
 FORMAT:BINARY                 ACCESS:SEQUENTIAL          

 OPENING supply2hd.bhd
 FILE TYPE:DATA(BINARY)   UNIT   51   STATUS:UNKNOWN
 FORMAT:BINARY                 ACCESS:SEQUENTIAL          

 BAS -- BASIC PACKAGE, VERSION 7, 5/2/2005 INPUT READ FROM UNIT   12
 
 MODFLOW was compiled using uniform precision
 Precision of REAL and DOUBLE PRECISION variables:          15

 DISCRETIZATION INPUT DATA READ FROM UNIT   11
    1 LAYERS        25 ROWS        30 COLUMNS
   12 STRESS PERIOD(S) IN SIMULATION
 MODEL TIME UNIT IS DAYS
 MODEL LENGTH UNIT IS UNDEFINED
  Confining bed flag for each layer:
   0

                     DELR =   200.000    

                     DELC =   200.000    

 TOP ELEVATION OF LAYER 1 =  100.0000    

   MODEL LAYER BOTTOM EL. =   0.00000     FOR LAYER   1


 STRESS PERIOD     LENGTH       TIME STEPS     MULTIPLIER FOR DELT    SS FLAG
 ----------------------------------------------------------------------------
        1         92.00000          1                    1.500         TR
        2         91.00000          1                    1.500         TR
        3         91.00000          1                    1.500         TR
        4         91.00000          1                    1.500         TR
        5         92.00000          1                    1.500         TR
        6         91.00000          1                    1.500         TR
        7         91.00000          1                    1.500         TR
        8         91.00000          1                    1.500         TR
        9         92.00000          1                    1.500         TR
       10         91.00000          1                    1.500         TR
       11         91.00000          1                    1.500         TR
       12         91.00000          1                    1.500         TR

 TRANSIENT SIMULATION



 
 #MODOFC transient water supply sample problem                                   
 #                                                                               
 THE FREE FORMAT OPTION HAS BEEN SELECTED



                     BOUNDARY ARRAY FOR LAYER   1
 READING ON UNIT   12 WITH FORMAT: (20I4)              

 AQUIFER HEAD WILL BE SET TO   0.0000     AT ALL NO-FLOW NODES (IBOUND=0).



                       INITIAL HEAD FOR LAYER   1
 READING ON UNIT   12 WITH FORMAT: (10F13.0)           

 OUTPUT CONTROL IS SPECIFIED ONLY AT TIME STEPS FOR WHICH OUTPUT IS DESIRED
 COMPACT CELL-BY-CELL BUDGET FILES WILL BE WRITTEN
 HEAD PRINT FORMAT CODE IS  18    DRAWDOWN PRINT FORMAT CODE IS   0
 HEADS WILL BE SAVED ON UNIT   51    DRAWDOWNS WILL BE SAVED ON UNIT    0

 BCF -- BLOCK-CENTERED FLOW PACKAGE, VERSION 7, 5/2/2005
         INPUT READ FROM UNIT 13
 TRANSIENT SIMULATION
 HEAD AT CELLS THAT CONVERT TO DRY=   0.0000    
 WETTING CAPABILITY IS NOT ACTIVE
      LAYER  LAYER-TYPE CODE     INTERBLOCK T
      --------------------------------------------
         1            0          0 -- HARMONIC    

 COLUMN TO ROW ANISOTROPY =  1.000000    

     PRIMARY STORAGE COEF =  5.000000E-02 FOR LAYER   1

     TRANSMIS. ALONG ROWS =   500.000     FOR LAYER   1

 WEL -- WELL PACKAGE, VERSION 7, 5/2/2005 INPUT READ FROM UNIT   19
 # Well package input file written by MMProc
 No named parameters
 MAXIMUM OF      4 ACTIVE WELLS AT ONE TIME


     0 Well parameters

 RCH -- RECHARGE PACKAGE, VERSION 7, 5/2/2005 INPUT READ FROM UNIT   15
 No named parameters
 OPTION 1 -- RECHARGE TO TOP LAYER


     0 Recharge parameters

 SFR7 -- STREAMFLOW ROUTING PACKAGE, VERSION 1.0.7, 2013-01-15
         INPUT READ FROM UNIT  16
 #  Supply2 test problem for GWM-VI
 #  The eighth entry in the first data line is ISTCB2 -
 #    Setting this to a negative number indicates that
 #    streamflows out of the reach will be saved to a
 #    binary file.  The absolute value of ISTCB2 is the
 #    unit to which unformatted flows will be written.
 #
 No named parameters
 Segment information will not be 
 read by reach
 No named parameters
 No specifed inflow files


 NUMBER OF STREAM REACHES IS   40

 NUMBER OF STREAM SEGMENTS IS    3

 NUMBER OF STREAM PARAMETERS IS    0

 NUMBER OF STREAM SEGMENTS DEFINED USING PARAMETERS IS              0

 MAXIMUM ERROR FOR STREAM LEAKAGE RATES IS  1.00E-04

 CONSTANT FOR MANNINGS EQUATION IS  1.2839E+05





   STREAM NETWORK DESCRIPTION: 

   LAYER    ROW    COL   SEGMENT   REACH     LENGTH
                          NUMBER   NUMBER    IN CELL        
   --------------------------------------------------
      1     13      1       1        1    2.0000E+02
      1     13      2       1        2    2.0000E+02
      1     14      3       1        3    2.0000E+02
      1     15      4       1        4    2.0000E+02
      1     16      5       1        5    2.0000E+02
      1     16      6       1        6    2.0000E+02
      1     16      7       1        7    2.0000E+02
      1     16      8       1        8    2.0000E+02
      1     16      9       1        9    2.0000E+02
      1     16     10       1       10    2.0000E+02
      1     16     11       1       11    2.0000E+02
      1     16     12       1       12    2.0000E+02
      1     15     13       1       13    2.0000E+02
      1     14     14       1       14    2.0000E+02
      1     13     15       1       15    2.0000E+02
      1     12     16       1       16    2.0000E+02
      1     12     17       1       17    2.0000E+02
      1     12     18       1       18    2.0000E+02
      1     12     19       1       19    2.0000E+02
      1     13     20       1       20    2.0000E+02
      1     14     21       1       21    2.0000E+02
      1     14     22       1       22    2.0000E+02
      1      9     30       2        1    2.0000E+02
      1      9     29       2        2    2.0000E+02
      1      9     28       2        3    2.0000E+02
      1      9     27       2        4    2.0000E+02
      1     10     26       2        5    2.0000E+02
      1     11     25       2        6    2.0000E+02
      1     12     24       2        7    2.0000E+02
      1     13     23       2        8    2.0000E+02
      1     14     22       2        9    2.0000E+02
      1     14     22       3        1    2.0000E+02
      1     15     23       3        2    2.0000E+02
      1     15     24       3        3    2.0000E+02
      1     15     25       3        4    2.0000E+02
      1     15     26       3        5    2.0000E+02
      1     16     27       3        6    2.0000E+02
      1     17     28       3        7    2.0000E+02
      1     18     29       3        8    2.0000E+02
      1     18     30       3        9    2.0000E+02




 PCG -- CONJUGATE-GRADIENT SOLUTION PACKAGE, VERSION 7, 5/2/2005
 MAXIMUM OF    500 CALLS OF SOLUTION ROUTINE
 MAXIMUM OF      5 INTERNAL ITERATIONS PER CALL TO SOLUTION ROUTINE
 MATRIX PRECONDITIONING TYPE :    1



                                    SOLUTION BY THE CONJUGATE-GRADIENT METHOD
                                   -------------------------------------------
                    MAXIMUM NUMBER OF CALLS TO PCG ROUTINE =      500
                        MAXIMUM ITERATIONS PER CALL TO PCG =        5
                               MATRIX PRECONDITIONING TYPE =        1
        RELAXATION FACTOR (ONLY USED WITH PRECOND. TYPE 1) =    0.10000E+01
 PARAMETER OF POLYNOMIAL PRECOND. = 2 (2) OR IS CALCULATED :        0
                         HEAD CHANGE CRITERION FOR CLOSURE =    0.10000E-05
                     RESIDUAL CHANGE CRITERION FOR CLOSURE =    0.10000E+01
            PCG HEAD AND RESIDUAL CHANGE PRINTOUT INTERVAL =        1
     PRINTING FROM SOLVER IS LIMITED(1) OR SUPPRESSED (>1) =        1
                            STEADY-STATE DAMPING PARAMETER =    0.10000E+01
                               TRANSIENT DAMPING PARAMETER =    0.10000E+01
1
                            STRESS PERIOD NO.    1, LENGTH =   92.00000    
                            -----------------------------------------------

                              NUMBER OF TIME STEPS =     1

                               MULTIPLIER FOR DELT =     1.500

                            INITIAL TIME STEP SIZE =   92.00000    

 WELL NO.  LAYER   ROW   COL   STRESS RATE         
 --------------------------------------------------
      1      1     17     21     -0.3064E+05
      2      1     16     17     -0.1161E+05
      3      1     13     18      -5001.    
      4      1     14     25       0.000    

      4 WELLS

                 RECHARGE =  5.000000E-04



 CLASSIFICATION & COUNT OF STREAM SEGMENTS BASED ON SOURCE OF INFLOW:

                HEADWATER     DIVERSION     RECEIVES TRIBUTARY FLOW
                ---------     ---------     -----------------------
                     2              0               1



                    INPUT DATA FOR EACH STREAM SEGMENT
 ---------------------------------------------------------------------------------------------

 SEGMENT    SEG.     INFLOW   OVERLAND   STREAM    STREAM   ICALC  OUTFLOW  DIVERSION PRIORITY
    NO.    LENGTH     RATE     RUNOFF      ET       PPT.    METH.  TO SEG.  FROM SEG.    NO.

      1  4.400E+03 1.000E+05 0.000E+00 0.000E+00 0.000E+00    1        3        0        0
      2  1.800E+03 5.000E+04 0.000E+00 0.000E+00 0.000E+00    1        3        0        0
      3  1.800E+03 0.000E+00 0.000E+00 0.000E+00 0.000E+00    1        0        0        0


         STREAMBED PROPERTIES AND STREAM DIMENSIONS

 SEGMENT     BED HYD. COND.      BED THICKNESS     ELEV.-TOP OF BED     WIDTH OF STREAM     DEPTH OF STREAM    STREAM ROUGHNESS
    No.     UPPER     LOWER     UPPER     LOWER     UPPER     LOWER     UPPER     LOWER     UPPER     LOWER   CHANNEL      BANK

     1  5.000E+00 5.000E+00 1.000E+00 1.000E+00 4.850E+01 3.800E+01 2.000E+01 2.000E+01                     5.000E-02
     2  5.000E+00 5.000E+00 1.000E+00 1.000E+00 4.025E+01 3.800E+01 2.000E+01 2.000E+01                     5.000E-02
     3  5.000E+00 5.000E+00 1.000E+00 1.000E+00 3.800E+01 3.000E+01 2.000E+01 2.000E+01                     5.000E-02



 
 SOLVING FOR HEAD 


     8 CALLS TO PCG ROUTINE FOR TIME STEP   1 IN STRESS PERIOD    1
    34 TOTAL ITERATIONS

 OUTPUT CONTROL FOR STRESS PERIOD    1   TIME STEP    1
    SAVE BUDGET
    SAVE HEAD FOR ALL LAYERS
    PRINT HEAD FOR ALL LAYERS
 UBDSV2 SAVING "STREAMFLOW OUT  " ON UNIT  50 AT TIME STEP  1, STRESS PERIOD   1



 STREAM LISTING     PERIOD      1   STEP        1

 LAYER ROW COL. STREAM  RCH.  FLOW INTO     FLOW TO   FLOW OUT OF   OVRLND.     DIRECT     STREAM       STREAM     STREAM     STREAM   STREAMBED  STREAMBED
                SEG.NO.  NO.  STRM. RCH.    AQUIFER    STRM. RCH.    RUNOFF     PRECIP       ET          HEAD       DEPTH      WIDTH   CONDCTNC.   GRADIENT

   1   13    1     1     1    1.0000E+05 -5.7565E+03   1.0576E+05  0.000E+00  0.000E+00  0.000E+00  4.84085E+01  1.471E-01  2.000E+01  2.000E+04 -2.878E-01
   1   13    2     1     2    1.0576E+05 -8.6045E+03   1.1436E+05  0.000E+00  0.000E+00  0.000E+00  4.79373E+01  1.532E-01  2.000E+01  2.000E+04 -4.302E-01
   1   14    3     1     3    1.1436E+05 -7.8814E+03   1.2224E+05  0.000E+00  0.000E+00  0.000E+00  4.74668E+01  1.600E-01  2.000E+01  2.000E+04 -3.941E-01
   1   15    4     1     4    1.2224E+05 -7.7095E+03   1.2995E+05  0.000E+00  0.000E+00  0.000E+00  4.69958E+01  1.662E-01  2.000E+01  2.000E+04 -3.855E-01
   1   16    5     1     5    1.2995E+05 -7.4922E+03   1.3744E+05  0.000E+00  0.000E+00  0.000E+00  4.65245E+01  1.722E-01  2.000E+01  2.000E+04 -3.746E-01
   1   16    6     1     6    1.3744E+05 -5.9951E+03   1.4344E+05  0.000E+00  0.000E+00  0.000E+00  4.60523E+01  1.773E-01  2.000E+01  2.000E+04 -2.998E-01
   1   16    7     1     7    1.4344E+05 -6.1259E+03   1.4957E+05  0.000E+00  0.000E+00  0.000E+00  4.55796E+01  1.819E-01  2.000E+01  2.000E+04 -3.063E-01
   1   16    8     1     8    1.4957E+05 -6.1980E+03   1.5576E+05  0.000E+00  0.000E+00  0.000E+00  4.51069E+01  1.865E-01  2.000E+01  2.000E+04 -3.099E-01
   1   16    9     1     9    1.5576E+05 -6.1911E+03   1.6195E+05  0.000E+00  0.000E+00  0.000E+00  4.46341E+01  1.910E-01  2.000E+01  2.000E+04 -3.096E-01
   1   16   10     1    10    1.6195E+05 -6.1015E+03   1.6806E+05  0.000E+00  0.000E+00  0.000E+00  4.41613E+01  1.954E-01  2.000E+01  2.000E+04 -3.051E-01
   1   16   11     1    11    1.6806E+05 -5.9357E+03   1.7399E+05  0.000E+00  0.000E+00  0.000E+00  4.36882E+01  1.996E-01  2.000E+01  2.000E+04 -2.968E-01
   1   16   12     1    12    1.7399E+05 -7.1857E+03   1.8118E+05  0.000E+00  0.000E+00  0.000E+00  4.32155E+01  2.042E-01  2.000E+01  2.000E+04 -3.593E-01
   1   15   13     1    13    1.8118E+05 -7.1535E+03   1.8833E+05  0.000E+00  0.000E+00  0.000E+00  4.27432E+01  2.091E-01  2.000E+01  2.000E+04 -3.577E-01
   1   14   14     1    14    1.8833E+05 -7.0555E+03   1.9539E+05  0.000E+00  0.000E+00  0.000E+00  4.22707E+01  2.139E-01  2.000E+01  2.000E+04 -3.528E-01
   1   13   15     1    15    1.9539E+05 -7.1846E+03   2.0257E+05  0.000E+00  0.000E+00  0.000E+00  4.17981E+01  2.186E-01  2.000E+01  2.000E+04 -3.592E-01
   1   12   16     1    16    2.0257E+05 -8.6789E+03   2.1125E+05  0.000E+00  0.000E+00  0.000E+00  4.13260E+01  2.238E-01  2.000E+01  2.000E+04 -4.339E-01
   1   12   17     1    17    2.1125E+05 -5.2667E+03   2.1652E+05  0.000E+00  0.000E+00  0.000E+00  4.08533E+01  2.283E-01  2.000E+01  2.000E+04 -2.633E-01
   1   12   18     1    18    2.1652E+05 -4.0650E+03   2.2058E+05  0.000E+00  0.000E+00  0.000E+00  4.03790E+01  2.312E-01  2.000E+01  2.000E+04 -2.033E-01
   1   12   19     1    19    2.2058E+05 -6.9685E+03   2.2755E+05  0.000E+00  0.000E+00  0.000E+00  3.99052E+01  2.347E-01  2.000E+01  2.000E+04 -3.484E-01
   1   13   20     1    20    2.2755E+05 -4.2743E+03   2.3182E+05  0.000E+00  0.000E+00  0.000E+00  3.94314E+01  2.382E-01  2.000E+01  2.000E+04 -2.137E-01
   1   14   21     1    21    2.3182E+05 -1.4736E+03   2.3330E+05  0.000E+00  0.000E+00  0.000E+00  3.89559E+01  2.400E-01  2.000E+01  2.000E+04 -7.368E-02
   1   14   22     1    22    2.3330E+05  4.9406E+03   2.2836E+05  0.000E+00  0.000E+00  0.000E+00  3.84776E+01  2.389E-01  2.000E+01  2.000E+04  2.470E-01
   1    9   30     2     1    5.0000E+04 -5.5702E+03   5.5570E+04  0.000E+00  0.000E+00  0.000E+00  4.02447E+01  1.197E-01  2.000E+01  2.000E+04 -2.785E-01
   1    9   29     2     2    5.5570E+04 -5.8692E+03   6.1439E+04  0.000E+00  0.000E+00  0.000E+00  4.00023E+01  1.273E-01  2.000E+01  2.000E+04 -2.935E-01
   1    9   28     2     3    6.1439E+04 -6.1933E+03   6.7633E+04  0.000E+00  0.000E+00  0.000E+00  3.97600E+01  1.350E-01  2.000E+01  2.000E+04 -3.097E-01
   1    9   27     2     4    6.7633E+04 -9.5857E+03   7.7218E+04  0.000E+00  0.000E+00  0.000E+00  3.95197E+01  1.447E-01  2.000E+01  2.000E+04 -4.793E-01
   1   10   26     2     5    7.7218E+04 -7.7143E+03   8.4933E+04  0.000E+00  0.000E+00  0.000E+00  3.92798E+01  1.548E-01  2.000E+01  2.000E+04 -3.857E-01
   1   11   25     2     6    8.4933E+04 -6.5847E+03   9.1517E+04  0.000E+00  0.000E+00  0.000E+00  3.90379E+01  1.629E-01  2.000E+01  2.000E+04 -3.292E-01
   1   12   24     2     7    9.1517E+04 -5.3152E+03   9.6833E+04  0.000E+00  0.000E+00  0.000E+00  3.87944E+01  1.694E-01  2.000E+01  2.000E+04 -2.658E-01
   1   13   23     2     8    9.6833E+04 -3.7256E+03   1.0056E+05  0.000E+00  0.000E+00  0.000E+00  3.85492E+01  1.742E-01  2.000E+01  2.000E+04 -1.863E-01
   1   14   22     2     9    1.0056E+05  1.3984E+03   9.9160E+04  0.000E+00  0.000E+00  0.000E+00  3.83005E+01  1.755E-01  2.000E+01  2.000E+04  6.992E-02
   1   14   22     3     1    3.2752E+05 -8.5698E+03   3.3609E+05  0.000E+00  0.000E+00  0.000E+00  3.78021E+01  2.465E-01  2.000E+01  2.000E+04 -4.285E-01
   1   15   23     3     2    3.3609E+05 -2.0200E+03   3.3811E+05  0.000E+00  0.000E+00  0.000E+00  3.69155E+01  2.489E-01  2.000E+01  2.000E+04 -1.010E-01
   1   15   24     3     3    3.3811E+05 -3.0567E+03   3.4116E+05  0.000E+00  0.000E+00  0.000E+00  3.60278E+01  2.500E-01  2.000E+01  2.000E+04 -1.528E-01
   1   15   25     3     4    3.4116E+05 -3.6637E+03   3.4483E+05  0.000E+00  0.000E+00  0.000E+00  3.51404E+01  2.515E-01  2.000E+01  2.000E+04 -1.832E-01
   1   15   26     3     5    3.4483E+05 -5.3311E+03   3.5016E+05  0.000E+00  0.000E+00  0.000E+00  3.42534E+01  2.534E-01  2.000E+01  2.000E+04 -2.666E-01
   1   16   27     3     6    3.5016E+05 -6.7025E+03   3.5686E+05  0.000E+00  0.000E+00  0.000E+00  3.33672E+01  2.561E-01  2.000E+01  2.000E+04 -3.351E-01
   1   17   28     3     7    3.5686E+05 -7.6230E+03   3.6448E+05  0.000E+00  0.000E+00  0.000E+00  3.24814E+01  2.592E-01  2.000E+01  2.000E+04 -3.812E-01
   1   18   29     3     8    3.6448E+05 -8.7904E+03   3.7327E+05  0.000E+00  0.000E+00  0.000E+00  3.15960E+01  2.627E-01  2.000E+01  2.000E+04 -4.395E-01
   1   18   30     3     9    3.7327E+05 -7.4247E+03   3.8070E+05  0.000E+00  0.000E+00  0.000E+00  3.07106E+01  2.661E-01  2.000E+01  2.000E+04 -3.712E-01



1
              HEAD IN LAYER   1 AT END OF TIME STEP   1 IN STRESS PERIOD    1
  ---------------------------------------------------------------------------

          1      2      3      4      5      6      7      8      9     10
         11     12     13     14     15     16     17     18     19     20
         21     22     23     24     25     26     27     28     29     30
 .........................................................................
   1  ****** ****** ****** ****** ****** ****** ****** ****** ****** ******
      ****** ****** ****** ****** ****** ****** ****** ****** ****** ******
      ****** ****** ****** ****** ****** ****** ****** ****** ****** ******
   2  ****** ****** ****** ****** ****** ****** ****** ****** ****** ******
      ****** ****** ****** ****** ****** ****** ****** ****** ****** ******
      ****** ****** ****** ****** ****** ****** ****** ****** ****** ******
   3  ****** ****** ****** ****** ****** ****** ****** ****** ****** ******
      ****** ****** ****** ****** ****** ****** ****** ****** ****** ******
      ****** ****** ****** ****** ****** ****** ****** ****** ****** ******
   4  ****** ****** ****** ****** ****** ****** ****** ****** ****** ******
      ****** ****** ****** ****** ****** ****** ****** ****** ****** ******
      ****** ****** ****** ****** ****** ****** ****** ****** ****** ******
   5  ****** ****** ****** ****** ****** ****** ****** ****** ****** ******
      ****** ****** ****** ****** ****** ****** ****** ****** ****** ******
      ****** ****** ****** ****** ****** ****** ****** ****** ****** ******
   6  ****** ****** ****** ****** ****** ****** ****** ****** ****** ******
      ****** ****** ****** ****** ****** ****** ****** ****** ****** ******
      ****** ****** ****** ****** ****** ****** ****** ****** ****** ******
   7  ****** ****** ****** ****** ****** ****** ****** ****** ****** ******
      ****** ****** ****** ****** ****** ****** ****** ****** ****** ******
      ****** ****** ****** ****** ****** ****** ****** ****** ****** ******
   8  ****** ****** ****** ****** ****** ****** ****** ****** ****** ******
      ****** ****** ****** ****** ****** ****** ****** ****** ****** ******
      ****** ****** ****** ****** ****** ****** ****** ****** ****** ******
   9  ****** ****** ****** ****** ****** ****** ****** ****** ****** ******
      ****** ****** ****** ****** ****** ****** ****** ****** ****** ******
      ****** ****** ****** ****** ****** ****** ****** ****** ****** ******
  10  ****** ****** ****** ****** ****** ****** ****** ****** ****** ******
      ****** ****** ****** ****** ****** ****** ****** ****** ****** ******
      ****** ****** ****** ****** ****** ****** ****** ****** ****** ******
  11  ****** ****** ****** ****** ****** ****** ****** ****** ****** ******
      ****** ****** ****** ****** ****** ****** ****** ****** ****** ******
      ****** ****** ****** ****** ****** ****** ****** ****** ****** ******
  12  ****** ****** ****** ****** ****** ****** ****** ****** ****** ******
      ****** ****** ****** ****** ****** ****** ****** ****** ****** ******
      ****** ****** ****** ****** ****** ****** ****** ****** ****** ******
  13  ****** ****** ****** ****** ****** ****** ****** ****** ****** ******
      ****** ****** ****** ****** ****** ****** ****** ****** ****** ******
      ****** ****** ****** ****** ****** ****** ****** ****** ****** ******
  14  ****** ****** ****** ****** ****** ****** ****** ****** ****** ******
      ****** ****** ****** ****** ****** ****** ****** ****** ****** ******
      ****** ****** ****** ****** ****** ****** ****** ****** ****** ******
  15  ****** ****** ****** ****** ****** ****** ****** ****** ****** ******
      ****** ****** ****** ****** ****** ****** ****** ****** ****** ******
      ****** ****** ****** ****** ****** ****** ****** ****** ****** ******
  16  ****** ****** ****** ****** ****** ****** ****** ****** ****** ******
      ****** ****** ****** ****** ****** ****** ****** ****** ****** ******
      ****** ****** ****** ****** ****** ****** ****** ****** ****** ******
  17  ****** ****** ****** ****** ****** ****** ****** ****** ****** ******
      ****** ****** ****** ****** ****** ****** ****** ****** ****** ******
      ****** ****** ****** ****** ****** ****** ****** ****** ****** ******
  18  ****** ****** ****** ****** ****** ****** ****** ****** ****** ******
      ****** ****** ****** ****** ****** ****** ****** ****** ****** ******
      ****** ****** ****** ****** ****** ****** ****** ****** ****** ******
  19  ****** ****** ****** ****** ****** ****** ****** ****** ****** ******
      ****** ****** ****** ****** ****** ****** ****** ****** ****** ******
      ****** ****** ****** ****** ****** ****** ****** ****** ****** ******
  20  ****** ****** ****** ****** ****** ****** ****** ****** ****** ******
      ****** ****** ****** ****** ****** ****** ****** ****** ****** ******
      ****** ****** ****** ****** ****** ****** ****** ****** ****** ******
  21  ****** ****** ****** ****** ****** ****** ****** ****** ****** ******
      ****** ****** ****** ****** ****** ****** ****** ****** ****** ******
      ****** ****** ****** ****** ****** ****** ****** ****** ****** ******
  22  ****** ****** ****** ****** ****** ****** ****** ****** ****** ******
      ****** ****** ****** ****** ****** ****** ****** ****** ****** ******
      ****** ****** ****** ****** ****** ****** ****** ****** ****** ******
  23  ****** ****** ****** ****** ****** ****** ****** ****** ****** ******
      ****** ****** ****** ****** ****** ****** ****** ****** ****** ******
      ****** ****** ****** ****** ****** ****** ****** ****** ****** ******
  24  ****** ****** ****** ****** ****** ****** ****** ****** ****** ******
      ****** ****** ****** ****** ****** ****** ****** ****** ****** ******
      ****** ****** ****** ****** ****** ****** ****** ****** ****** ******
  25  ****** ****** ****** ****** ****** ****** ****** ****** ****** ******
      ****** ****** ****** ****** ****** ****** ****** ****** ****** ******
      ****** ****** ****** ****** ****** ****** ****** ****** ****** ******

 HEAD WILL BE SAVED ON UNIT   51 AT END OF TIME STEP    1, STRESS PERIOD    1
1
  VOLUMETRIC BUDGET FOR ENTIRE MODEL AT END OF TIME STEP    1, STRESS PERIOD   1
  ------------------------------------------------------------------------------

     CUMULATIVE VOLUMES      L**3       RATES FOR THIS TIME STEP      L**3/T
     ------------------                 ------------------------

           IN:                                      IN:
           ---                                      ---
             STORAGE =    16568903.9482               STORAGE =      180096.7820
       CONSTANT HEAD =     7732526.8256         CONSTANT HEAD =       84049.2046
               WELLS =           0.0000                 WELLS =           0.0000
            RECHARGE =     1269600.0000              RECHARGE =       13800.0000
      STREAM LEAKAGE =      583182.1724        STREAM LEAKAGE =        6338.9367

            TOTAL IN =    26154212.9461              TOTAL IN =      284284.9233

          OUT:                                     OUT:
          ----                                     ----
             STORAGE =           0.0000               STORAGE =           0.0000
       CONSTANT HEAD =           0.0000         CONSTANT HEAD =           0.0000
               WELLS =     4346763.7077                 WELLS =       47247.4316
            RECHARGE =           0.0000              RECHARGE =           0.0000
      STREAM LEAKAGE =    21807449.3796        STREAM LEAKAGE =      237037.4933

           TOTAL OUT =    26154213.0872             TOTAL OUT =      284284.9249

            IN - OUT =          -0.1411              IN - OUT =      -1.5337E-03

 PERCENT DISCREPANCY =          -0.00     PERCENT DISCREPANCY =          -0.00






         TIME SUMMARY AT END OF TIME STEP    1 IN STRESS PERIOD    1
                    SECONDS     MINUTES      HOURS       DAYS        YEARS
                    -----------------------------------------------------------
   TIME STEP LENGTH 7.94880E+06 1.32480E+05  2208.0      92.000     0.25188    
 STRESS PERIOD TIME 7.94880E+06 1.32480E+05  2208.0      92.000     0.25188    
         TOTAL TIME 7.94880E+06 1.32480E+05  2208.0      92.000     0.25188    
1
1
                            STRESS PERIOD NO.    2, LENGTH =   91.00000    
                            -----------------------------------------------

                              NUMBER OF TIME STEPS =     1

                               MULTIPLIER FOR DELT =     1.500

                            INITIAL TIME STEP SIZE =   91.00000    

 WELL NO.  LAYER   ROW   COL   STRESS RATE         
 --------------------------------------------------
      1      1     17     21     -0.3064E+05
      2      1     16     17     -0.1161E+05
      3      1     13     18      -5001.    
      4      1     14     25       0.000    

      4 WELLS

                 RECHARGE =  2.000000E-03

 REUSING STREAM SEGMENT DATA FROM LAST STRESS PERIOD
 
 SOLVING FOR HEAD 


     7 CALLS TO PCG ROUTINE FOR TIME STEP   1 IN STRESS PERIOD    2
    27 TOTAL ITERATIONS

 OUTPUT CONTROL FOR STRESS PERIOD    2   TIME STEP    1
    SAVE BUDGET
    SAVE HEAD FOR ALL LAYERS
    PRINT HEAD FOR ALL LAYERS
 UBDSV2 SAVING "STREAMFLOW OUT  " ON UNIT  50 AT TIME STEP  1, STRESS PERIOD   2



 STREAM LISTING     PERIOD      2   STEP        1

 LAYER ROW COL. STREAM  RCH.  FLOW INTO     FLOW TO   FLOW OUT OF   OVRLND.     DIRECT     STREAM       STREAM     STREAM     STREAM   STREAMBED  STREAMBED
                SEG.NO.  NO.  STRM. RCH.    AQUIFER    STRM. RCH.    RUNOFF     PRECIP       ET          HEAD       DEPTH      WIDTH   CONDCTNC.   GRADIENT

   1   13    1     1     1    1.0000E+05 -3.8481E+03   1.0385E+05  0.000E+00  0.000E+00  0.000E+00  4.84077E+01  1.463E-01  2.000E+01  2.000E+04 -1.924E-01
   1   13    2     1     2    1.0385E+05 -6.1994E+03   1.1005E+05  0.000E+00  0.000E+00  0.000E+00  4.79347E+01  1.506E-01  2.000E+01  2.000E+04 -3.100E-01
   1   14    3     1     3    1.1005E+05 -5.1636E+03   1.1521E+05  0.000E+00  0.000E+00  0.000E+00  4.74622E+01  1.554E-01  2.000E+01  2.000E+04 -2.582E-01
   1   15    4     1     4    1.1521E+05 -5.0076E+03   1.2022E+05  0.000E+00  0.000E+00  0.000E+00  4.69891E+01  1.595E-01  2.000E+01  2.000E+04 -2.504E-01
   1   16    5     1     5    1.2022E+05 -5.1723E+03   1.2539E+05  0.000E+00  0.000E+00  0.000E+00  4.65159E+01  1.636E-01  2.000E+01  2.000E+04 -2.586E-01
   1   16    6     1     6    1.2539E+05 -4.0972E+03   1.2949E+05  0.000E+00  0.000E+00  0.000E+00  4.60423E+01  1.673E-01  2.000E+01  2.000E+04 -2.049E-01
   1   16    7     1     7    1.2949E+05 -4.1843E+03   1.3367E+05  0.000E+00  0.000E+00  0.000E+00  4.55683E+01  1.705E-01  2.000E+01  2.000E+04 -2.092E-01
   1   16    8     1     8    1.3367E+05 -4.2229E+03   1.3790E+05  0.000E+00  0.000E+00  0.000E+00  4.50942E+01  1.738E-01  2.000E+01  2.000E+04 -2.111E-01
   1   16    9     1     9    1.3790E+05 -4.1927E+03   1.4209E+05  0.000E+00  0.000E+00  0.000E+00  4.46202E+01  1.770E-01  2.000E+01  2.000E+04 -2.096E-01
   1   16   10     1    10    1.4209E+05 -4.0871E+03   1.4618E+05  0.000E+00  0.000E+00  0.000E+00  4.41460E+01  1.801E-01  2.000E+01  2.000E+04 -2.044E-01
   1   16   11     1    11    1.4618E+05 -3.9018E+03   1.5008E+05  0.000E+00  0.000E+00  0.000E+00  4.36717E+01  1.831E-01  2.000E+01  2.000E+04 -1.951E-01
   1   16   12     1    12    1.5008E+05 -4.4704E+03   1.5455E+05  0.000E+00  0.000E+00  0.000E+00  4.31976E+01  1.862E-01  2.000E+01  2.000E+04 -2.235E-01
   1   15   13     1    13    1.5455E+05 -3.9394E+03   1.5849E+05  0.000E+00  0.000E+00  0.000E+00  4.27234E+01  1.893E-01  2.000E+01  2.000E+04 -1.970E-01
   1   14   14     1    14    1.5849E+05 -3.6822E+03   1.6217E+05  0.000E+00  0.000E+00  0.000E+00  4.22488E+01  1.920E-01  2.000E+01  2.000E+04 -1.841E-01
   1   13   15     1    15    1.6217E+05 -3.8826E+03   1.6605E+05  0.000E+00  0.000E+00  0.000E+00  4.17743E+01  1.947E-01  2.000E+01  2.000E+04 -1.941E-01
   1   12   16     1    16    1.6605E+05 -5.9212E+03   1.7197E+05  0.000E+00  0.000E+00  0.000E+00  4.13005E+01  1.982E-01  2.000E+01  2.000E+04 -2.961E-01
   1   12   17     1    17    1.7197E+05 -2.9360E+03   1.7491E+05  0.000E+00  0.000E+00  0.000E+00  4.08263E+01  2.013E-01  2.000E+01  2.000E+04 -1.468E-01
   1   12   18     1    18    1.7491E+05 -1.7155E+03   1.7662E+05  0.000E+00  0.000E+00  0.000E+00  4.03506E+01  2.029E-01  2.000E+01  2.000E+04 -8.578E-02
   1   12   19     1    19    1.7662E+05 -4.2503E+03   1.8087E+05  0.000E+00  0.000E+00  0.000E+00  3.98754E+01  2.050E-01  2.000E+01  2.000E+04 -2.125E-01
   1   13   20     1    20    1.8087E+05 -1.1077E+03   1.8198E+05  0.000E+00  0.000E+00  0.000E+00  3.94000E+01  2.068E-01  2.000E+01  2.000E+04 -5.538E-02
   1   14   21     1    21    1.8198E+05  1.6582E+03   1.8032E+05  0.000E+00  0.000E+00  0.000E+00  3.89225E+01  2.066E-01  2.000E+01  2.000E+04  8.291E-02
   1   14   22     1    22    1.8032E+05  5.5834E+03   1.7474E+05  0.000E+00  0.000E+00  0.000E+00  3.84428E+01  2.041E-01  2.000E+01  2.000E+04  2.792E-01
   1    9   30     2     1    5.0000E+04 -3.4561E+03   5.3456E+04  0.000E+00  0.000E+00  0.000E+00  4.02433E+01  1.183E-01  2.000E+01  2.000E+04 -1.728E-01
   1    9   29     2     2    5.3456E+04 -3.7801E+03   5.7236E+04  0.000E+00  0.000E+00  0.000E+00  3.99981E+01  1.231E-01  2.000E+01  2.000E+04 -1.890E-01
   1    9   28     2     3    5.7236E+04 -4.1559E+03   6.1392E+04  0.000E+00  0.000E+00  0.000E+00  3.97534E+01  1.284E-01  2.000E+01  2.000E+04 -2.078E-01
   1    9   27     2     4    6.1392E+04 -7.1612E+03   6.8553E+04  0.000E+00  0.000E+00  0.000E+00  3.95106E+01  1.356E-01  2.000E+01  2.000E+04 -3.581E-01
   1   10   26     2     5    6.8553E+04 -4.8284E+03   7.3382E+04  0.000E+00  0.000E+00  0.000E+00  3.92680E+01  1.430E-01  2.000E+01  2.000E+04 -2.414E-01
   1   11   25     2     6    7.3382E+04 -3.7270E+03   7.7109E+04  0.000E+00  0.000E+00  0.000E+00  3.90231E+01  1.481E-01  2.000E+01  2.000E+04 -1.864E-01
   1   12   24     2     7    7.7109E+04 -2.7227E+03   7.9831E+04  0.000E+00  0.000E+00  0.000E+00  3.87768E+01  1.518E-01  2.000E+01  2.000E+04 -1.361E-01
   1   13   23     2     8    7.9831E+04 -1.6266E+03   8.1458E+04  0.000E+00  0.000E+00  0.000E+00  3.85294E+01  1.544E-01  2.000E+01  2.000E+04 -8.133E-02
   1   14   22     2     9    8.1458E+04  2.3074E+03   7.9151E+04  0.000E+00  0.000E+00  0.000E+00  3.82790E+01  1.540E-01  2.000E+01  2.000E+04  1.154E-01
   1   14   22     3     1    2.5389E+05 -7.9228E+03   2.6181E+05  0.000E+00  0.000E+00  0.000E+00  3.77675E+01  2.119E-01  2.000E+01  2.000E+04 -3.961E-01
   1   15   23     3     2    2.6181E+05  8.6590E+02   2.6095E+05  0.000E+00  0.000E+00  0.000E+00  3.68803E+01  2.136E-01  2.000E+01  2.000E+04  4.329E-02
   1   15   24     3     3    2.6095E+05 -1.0265E+03   2.6197E+05  0.000E+00  0.000E+00  0.000E+00  3.59914E+01  2.137E-01  2.000E+01  2.000E+04 -5.133E-02
   1   15   25     3     4    2.6197E+05 -1.6190E+03   2.6359E+05  0.000E+00  0.000E+00  0.000E+00  3.51032E+01  2.143E-01  2.000E+01  2.000E+04 -8.095E-02
   1   15   26     3     5    2.6359E+05 -2.6042E+03   2.6620E+05  0.000E+00  0.000E+00  0.000E+00  3.42154E+01  2.154E-01  2.000E+01  2.000E+04 -1.302E-01
   1   16   27     3     6    2.6620E+05 -3.4463E+03   2.6964E+05  0.000E+00  0.000E+00  0.000E+00  3.33279E+01  2.168E-01  2.000E+01  2.000E+04 -1.723E-01
   1   17   28     3     7    2.6964E+05 -4.4425E+03   2.7409E+05  0.000E+00  0.000E+00  0.000E+00  3.24410E+01  2.187E-01  2.000E+01  2.000E+04 -2.221E-01
   1   18   29     3     8    2.7409E+05 -6.1741E+03   2.8026E+05  0.000E+00  0.000E+00  0.000E+00  3.15546E+01  2.213E-01  2.000E+01  2.000E+04 -3.087E-01
   1   18   30     3     9    2.8026E+05 -5.2831E+03   2.8554E+05  0.000E+00  0.000E+00  0.000E+00  3.06685E+01  2.240E-01  2.000E+01  2.000E+04 -2.642E-01



1
              HEAD IN LAYER   1 AT END OF TIME STEP   1 IN STRESS PERIOD    2
  ---------------------------------------------------------------------------

          1      2      3      4      5      6      7      8      9     10
         11     12     13     14     15     16     17     18     19     20
         21     22     23     24     25     26     27     28     29     30
 .........................................................................
   1  ****** ****** ****** ****** ****** ****** ****** ****** ****** ******
      ****** ****** ****** ****** ****** ****** ****** ****** ****** ******
      ****** ****** ****** ****** ****** ****** ****** ****** ****** ******
   2  ****** ****** ****** ****** ****** ****** ****** ****** ****** ******
      ****** ****** ****** ****** ****** ****** ****** ****** ****** ******
      ****** ****** ****** ****** ****** ****** ****** ****** ****** ******
   3  ****** ****** ****** ****** ****** ****** ****** ****** ****** ******
      ****** ****** ****** ****** ****** ****** ****** ****** ****** ******
      ****** ****** ****** ****** ****** ****** ****** ****** ****** ******
   4  ****** ****** ****** ****** ****** ****** ****** ****** ****** ******
      ****** ****** ****** ****** ****** ****** ****** ****** ****** ******
      ****** ****** ****** ****** ****** ****** ****** ****** ****** ******
   5  ****** ****** ****** ****** ****** ****** ****** ****** ****** ******
      ****** ****** ****** ****** ****** ****** ****** ****** ****** ******
      ****** ****** ****** ****** ****** ****** ****** ****** ****** ******
   6  ****** ****** ****** ****** ****** ****** ****** ****** ****** ******
      ****** ****** ****** ****** ****** ****** ****** ****** ****** ******
      ****** ****** ****** ****** ****** ****** ****** ****** ****** ******
   7  ****** ****** ****** ****** ****** ****** ****** ****** ****** ******
      ****** ****** ****** ****** ****** ****** ****** ****** ****** ******
      ****** ****** ****** ****** ****** ****** ****** ****** ****** ******
   8  ****** ****** ****** ****** ****** ****** ****** ****** ****** ******
      ****** ****** ****** ****** ****** ****** ****** ****** ****** ******
      ****** ****** ****** ****** ****** ****** ****** ****** ****** ******
   9  ****** ****** ****** ****** ****** ****** ****** ****** ****** ******
      ****** ****** ****** ****** ****** ****** ****** ****** ****** ******
      ****** ****** ****** ****** ****** ****** ****** ****** ****** ******
  10  ****** ****** ****** ****** ****** ****** ****** ****** ****** ******
      ****** ****** ****** ****** ****** ****** ****** ****** ****** ******
      ****** ****** ****** ****** ****** ****** ****** ****** ****** ******
  11  ****** ****** ****** ****** ****** ****** ****** ****** ****** ******
      ****** ****** ****** ****** ****** ****** ****** ****** ****** ******
      ****** ****** ****** ****** ****** ****** ****** ****** ****** ******
  12  ****** ****** ****** ****** ****** ****** ****** ****** ****** ******
      ****** ****** ****** ****** ****** ****** ****** ****** ****** ******
      ****** ****** ****** ****** ****** ****** ****** ****** ****** ******
  13  ****** ****** ****** ****** ****** ****** ****** ****** ****** ******
      ****** ****** ****** ****** ****** ****** ****** ****** ****** ******
      ****** ****** ****** ****** ****** ****** ****** ****** ****** ******
  14  ****** ****** ****** ****** ****** ****** ****** ****** ****** ******
      ****** ****** ****** ****** ****** ****** ****** ****** ****** ******
      ****** ****** ****** ****** ****** ****** ****** ****** ****** ******
  15  ****** ****** ****** ****** ****** ****** ****** ****** ****** ******
      ****** ****** ****** ****** ****** ****** ****** ****** ****** ******
      ****** ****** ****** ****** ****** ****** ****** ****** ****** ******
  16  ****** ****** ****** ****** ****** ****** ****** ****** ****** ******
      ****** ****** ****** ****** ****** ****** ****** ****** ****** ******
      ****** ****** ****** ****** ****** ****** ****** ****** ****** ******
  17  ****** ****** ****** ****** ****** ****** ****** ****** ****** ******
      ****** ****** ****** ****** ****** ****** ****** ****** ****** ******
      ****** ****** ****** ****** ****** ****** ****** ****** ****** ******
  18  ****** ****** ****** ****** ****** ****** ****** ****** ****** ******
      ****** ****** ****** ****** ****** ****** ****** ****** ****** ******
      ****** ****** ****** ****** ****** ****** ****** ****** ****** ******
  19  ****** ****** ****** ****** ****** ****** ****** ****** ****** ******
      ****** ****** ****** ****** ****** ****** ****** ****** ****** ******
      ****** ****** ****** ****** ****** ****** ****** ****** ****** ******
  20  ****** ****** ****** ****** ****** ****** ****** ****** ****** ******
      ****** ****** ****** ****** ****** ****** ****** ****** ****** ******
      ****** ****** ****** ****** ****** ****** ****** ****** ****** ******
  21  ****** ****** ****** ****** ****** ****** ****** ****** ****** ******
      ****** ****** ****** ****** ****** ****** ****** ****** ****** ******
      ****** ****** ****** ****** ****** ****** ****** ****** ****** ******
  22  ****** ****** ****** ****** ****** ****** ****** ****** ****** ******
      ****** ****** ****** ****** ****** ****** ****** ****** ****** ******
      ****** ****** ****** ****** ****** ****** ****** ****** ****** ******
  23  ****** ****** ****** ****** ****** ****** ****** ****** ****** ******
      ****** ****** ****** ****** ****** ****** ****** ****** ****** ******
      ****** ****** ****** ****** ****** ****** ****** ****** ****** ******
  24  ****** ****** ****** ****** ****** ****** ****** ****** ****** ******
      ****** ****** ****** ****** ****** ****** ****** ****** ****** ******
      ****** ****** ****** ****** ****** ****** ****** ****** ****** ******
  25  ****** ****** ****** ****** ****** ****** ****** ****** ****** ******
      ****** ****** ****** ****** ****** ****** ****** ****** ****** ******
      ****** ****** ****** ****** ****** ****** ****** ****** ****** ******

 HEAD WILL BE SAVED ON UNIT   51 AT END OF TIME STEP    1, STRESS PERIOD    2
1
  VOLUMETRIC BUDGET FOR ENTIRE MODEL AT END OF TIME STEP    1, STRESS PERIOD   2
  ------------------------------------------------------------------------------

     CUMULATIVE VOLUMES      L**3       RATES FOR THIS TIME STEP      L**3/T
     ------------------                 ------------------------

           IN:                                      IN:
           ---                                      ---
             STORAGE =    19379462.9803               STORAGE =       30885.2641
       CONSTANT HEAD =    16532773.2456         CONSTANT HEAD =       96706.0046
               WELLS =           0.0000                 WELLS =           0.0000
            RECHARGE =     6292800.0000              RECHARGE =       55200.0000
      STREAM LEAKAGE =     1530938.5036        STREAM LEAKAGE =       10414.9047

            TOTAL IN =    43735974.7295              TOTAL IN =      193206.1734

          OUT:                                     OUT:
          ----                                     ----
             STORAGE =           0.0000               STORAGE =           0.0000
       CONSTANT HEAD =           0.0000         CONSTANT HEAD =           0.0000
               WELLS =     8646279.9837                 WELLS =       47247.4316
            RECHARGE =           0.0000              RECHARGE =           0.0000
      STREAM LEAKAGE =    35089695.3395        STREAM LEAKAGE =      145958.7468

           TOTAL OUT =    43735975.3232             TOTAL OUT =      193206.1784

            IN - OUT =          -0.5937              IN - OUT =      -4.9741E-03

 PERCENT DISCREPANCY =          -0.00     PERCENT DISCREPANCY =          -0.00






         TIME SUMMARY AT END OF TIME STEP    1 IN STRESS PERIOD    2
                    SECONDS     MINUTES      HOURS       DAYS        YEARS
                    -----------------------------------------------------------
   TIME STEP LENGTH 7.86240E+06 1.31040E+05  2184.0      91.000     0.24914    
 STRESS PERIOD TIME 7.86240E+06 1.31040E+05  2184.0      91.000     0.24914    
         TOTAL TIME 1.58112E+07 2.63520E+05  4392.0      183.00     0.50103    
1
1
                            STRESS PERIOD NO.    3, LENGTH =   91.00000    
                            -----------------------------------------------

                              NUMBER OF TIME STEPS =     1

                               MULTIPLIER FOR DELT =     1.500

                            INITIAL TIME STEP SIZE =   91.00000    

 WELL NO.  LAYER   ROW   COL   STRESS RATE         
 --------------------------------------------------
      1      1     17     21     -0.3064E+05
      2      1     16     17     -0.1161E+05
      3      1     13     18      -5001.    
      4      1     14     25       0.000    

      4 WELLS

                 RECHARGE =   0.00000    

 REUSING STREAM SEGMENT DATA FROM LAST STRESS PERIOD
 
 SOLVING FOR HEAD 


     7 CALLS TO PCG ROUTINE FOR TIME STEP   1 IN STRESS PERIOD    3
    27 TOTAL ITERATIONS

 OUTPUT CONTROL FOR STRESS PERIOD    3   TIME STEP    1
    SAVE BUDGET
    SAVE HEAD FOR ALL LAYERS
    PRINT HEAD FOR ALL LAYERS
 UBDSV2 SAVING "STREAMFLOW OUT  " ON UNIT  50 AT TIME STEP  1, STRESS PERIOD   3



 STREAM LISTING     PERIOD      3   STEP        1

 LAYER ROW COL. STREAM  RCH.  FLOW INTO     FLOW TO   FLOW OUT OF   OVRLND.     DIRECT     STREAM       STREAM     STREAM     STREAM   STREAMBED  STREAMBED
                SEG.NO.  NO.  STRM. RCH.    AQUIFER    STRM. RCH.    RUNOFF     PRECIP       ET          HEAD       DEPTH      WIDTH   CONDCTNC.   GRADIENT

   1   13    1     1     1    1.0000E+05 -2.9386E+03   1.0294E+05  0.000E+00  0.000E+00  0.000E+00  4.84073E+01  1.459E-01  2.000E+01  2.000E+04 -1.469E-01
   1   13    2     1     2    1.0294E+05 -4.9542E+03   1.0789E+05  0.000E+00  0.000E+00  0.000E+00  4.79334E+01  1.493E-01  2.000E+01  2.000E+04 -2.477E-01
   1   14    3     1     3    1.0789E+05 -3.9253E+03   1.1182E+05  0.000E+00  0.000E+00  0.000E+00  4.74599E+01  1.530E-01  2.000E+01  2.000E+04 -1.963E-01
   1   15    4     1     4    1.1182E+05 -3.7910E+03   1.1561E+05  0.000E+00  0.000E+00  0.000E+00  4.69858E+01  1.562E-01  2.000E+01  2.000E+04 -1.896E-01
   1   16    5     1     5    1.1561E+05 -4.0694E+03   1.1968E+05  0.000E+00  0.000E+00  0.000E+00  4.65117E+01  1.595E-01  2.000E+01  2.000E+04 -2.035E-01
   1   16    6     1     6    1.1968E+05 -3.2253E+03   1.2290E+05  0.000E+00  0.000E+00  0.000E+00  4.60374E+01  1.624E-01  2.000E+01  2.000E+04 -1.613E-01
   1   16    7     1     7    1.2290E+05 -3.2889E+03   1.2619E+05  0.000E+00  0.000E+00  0.000E+00  4.55627E+01  1.650E-01  2.000E+01  2.000E+04 -1.644E-01
   1   16    8     1     8    1.2619E+05 -3.3110E+03   1.2950E+05  0.000E+00  0.000E+00  0.000E+00  4.50881E+01  1.676E-01  2.000E+01  2.000E+04 -1.655E-01
   1   16    9     1     9    1.2950E+05 -3.2736E+03   1.3278E+05  0.000E+00  0.000E+00  0.000E+00  4.46134E+01  1.702E-01  2.000E+01  2.000E+04 -1.637E-01
   1   16   10     1    10    1.3278E+05 -3.1688E+03   1.3595E+05  0.000E+00  0.000E+00  0.000E+00  4.41386E+01  1.727E-01  2.000E+01  2.000E+04 -1.584E-01
   1   16   11     1    11    1.3595E+05 -2.9846E+03   1.3893E+05  0.000E+00  0.000E+00  0.000E+00  4.36637E+01  1.751E-01  2.000E+01  2.000E+04 -1.492E-01
   1   16   12     1    12    1.3893E+05 -3.2171E+03   1.4215E+05  0.000E+00  0.000E+00  0.000E+00  4.31888E+01  1.774E-01  2.000E+01  2.000E+04 -1.609E-01
   1   15   13     1    13    1.4215E+05 -2.5550E+03   1.4470E+05  0.000E+00  0.000E+00  0.000E+00  4.27137E+01  1.796E-01  2.000E+01  2.000E+04 -1.278E-01
   1   14   14     1    14    1.4470E+05 -2.2593E+03   1.4696E+05  0.000E+00  0.000E+00  0.000E+00  4.22382E+01  1.814E-01  2.000E+01  2.000E+04 -1.130E-01
   1   13   15     1    15    1.4696E+05 -2.4994E+03   1.4946E+05  0.000E+00  0.000E+00  0.000E+00  4.17627E+01  1.832E-01  2.000E+01  2.000E+04 -1.250E-01
   1   12   16     1    16    1.4946E+05 -4.6357E+03   1.5410E+05  0.000E+00  0.000E+00  0.000E+00  4.12881E+01  1.858E-01  2.000E+01  2.000E+04 -2.318E-01
   1   12   17     1    17    1.5410E+05 -1.9828E+03   1.5608E+05  0.000E+00  0.000E+00  0.000E+00  4.08132E+01  1.882E-01  2.000E+01  2.000E+04 -9.914E-02
   1   12   18     1    18    1.5608E+05 -7.8063E+02   1.5686E+05  0.000E+00  0.000E+00  0.000E+00  4.03370E+01  1.892E-01  2.000E+01  2.000E+04 -3.903E-02
   1   12   19     1    19    1.5686E+05 -3.1348E+03   1.6000E+05  0.000E+00  0.000E+00  0.000E+00  3.98611E+01  1.906E-01  2.000E+01  2.000E+04 -1.567E-01
   1   13   20     1    20    1.6000E+05  2.4924E+01   1.5997E+05  0.000E+00  0.000E+00  0.000E+00  3.93849E+01  1.918E-01  2.000E+01  2.000E+04  1.246E-03
   1   14   21     1    21    1.5997E+05  2.7893E+03   1.5718E+05  0.000E+00  0.000E+00  0.000E+00  3.89067E+01  1.908E-01  2.000E+01  2.000E+04  1.395E-01
   1   14   22     1    22    1.5718E+05  5.7579E+03   1.5142E+05  0.000E+00  0.000E+00  0.000E+00  3.84263E+01  1.876E-01  2.000E+01  2.000E+04  2.879E-01
   1    9   30     2     1    5.0000E+04 -2.6889E+03   5.2689E+04  0.000E+00  0.000E+00  0.000E+00  4.02427E+01  1.177E-01  2.000E+01  2.000E+04 -1.344E-01
   1    9   29     2     2    5.2689E+04 -3.0230E+03   5.5712E+04  0.000E+00  0.000E+00  0.000E+00  3.99966E+01  1.216E-01  2.000E+01  2.000E+04 -1.512E-01
   1    9   28     2     3    5.5712E+04 -3.4098E+03   5.9122E+04  0.000E+00  0.000E+00  0.000E+00  3.97509E+01  1.259E-01  2.000E+01  2.000E+04 -1.705E-01
   1    9   27     2     4    5.9122E+04 -6.1534E+03   6.5275E+04  0.000E+00  0.000E+00  0.000E+00  3.95071E+01  1.321E-01  2.000E+01  2.000E+04 -3.077E-01
   1   10   26     2     5    6.5275E+04 -3.7622E+03   6.9037E+04  0.000E+00  0.000E+00  0.000E+00  3.92633E+01  1.383E-01  2.000E+01  2.000E+04 -1.881E-01
   1   11   25     2     6    6.9037E+04 -2.7102E+03   7.1748E+04  0.000E+00  0.000E+00  0.000E+00  3.90173E+01  1.423E-01  2.000E+01  2.000E+04 -1.355E-01
   1   12   24     2     7    7.1748E+04 -1.8494E+03   7.3597E+04  0.000E+00  0.000E+00  0.000E+00  3.87700E+01  1.450E-01  2.000E+01  2.000E+04 -9.247E-02
   1   13   23     2     8    7.3597E+04 -9.7899E+02   7.4576E+04  0.000E+00  0.000E+00  0.000E+00  3.85217E+01  1.467E-01  2.000E+01  2.000E+04 -4.895E-02
   1   14   22     2     9    7.4576E+04  2.6462E+03   7.1930E+04  0.000E+00  0.000E+00  0.000E+00  3.82707E+01  1.457E-01  2.000E+01  2.000E+04  1.323E-01
   1   14   22     3     1    2.2335E+05 -7.7285E+03   2.3108E+05  0.000E+00  0.000E+00  0.000E+00  3.77520E+01  1.964E-01  2.000E+01  2.000E+04 -3.864E-01
   1   15   23     3     2    2.3108E+05  1.9175E+03   2.2916E+05  0.000E+00  0.000E+00  0.000E+00  3.68646E+01  1.979E-01  2.000E+01  2.000E+04  9.588E-02
   1   15   24     3     3    2.2916E+05 -3.4636E+02   2.2951E+05  0.000E+00  0.000E+00  0.000E+00  3.59753E+01  1.975E-01  2.000E+01  2.000E+04 -1.732E-02
   1   15   25     3     4    2.2951E+05 -9.6347E+02   2.3047E+05  0.000E+00  0.000E+00  0.000E+00  3.50867E+01  1.978E-01  2.000E+01  2.000E+04 -4.817E-02
   1   15   26     3     5    2.3047E+05 -1.7516E+03   2.3223E+05  0.000E+00  0.000E+00  0.000E+00  3.41985E+01  1.985E-01  2.000E+01  2.000E+04 -8.758E-02
   1   16   27     3     6    2.3223E+05 -2.3401E+03   2.3457E+05  0.000E+00  0.000E+00  0.000E+00  3.33107E+01  1.996E-01  2.000E+01  2.000E+04 -1.170E-01
   1   17   28     3     7    2.3457E+05 -3.3289E+03   2.3789E+05  0.000E+00  0.000E+00  0.000E+00  3.24233E+01  2.010E-01  2.000E+01  2.000E+04 -1.664E-01
   1   18   29     3     8    2.3789E+05 -5.1608E+03   2.4306E+05  0.000E+00  0.000E+00  0.000E+00  3.15365E+01  2.032E-01  2.000E+01  2.000E+04 -2.580E-01
   1   18   30     3     9    2.4306E+05 -4.5450E+03   2.4760E+05  0.000E+00  0.000E+00  0.000E+00  3.06501E+01  2.057E-01  2.000E+01  2.000E+04 -2.272E-01



1
              HEAD IN LAYER   1 AT END OF TIME STEP   1 IN STRESS PERIOD    3
  ---------------------------------------------------------------------------

          1      2      3      4      5      6      7      8      9     10
         11     12     13     14     15     16     17     18     19     20
         21     22     23     24     25     26     27     28     29     30
 .........................................................................
   1  ****** ****** ****** ****** ****** ****** ****** ****** ****** ******
      ****** ****** ****** ****** ****** ****** ****** ****** ****** ******
      ****** ****** ****** ****** ****** ****** ****** ****** ****** ******
   2  ****** ****** ****** ****** ****** ****** ****** ****** ****** ******
      ****** ****** ****** ****** ****** ****** ****** ****** ****** ******
      ****** ****** ****** ****** ****** ****** ****** ****** ****** ******
   3  ****** ****** ****** ****** ****** ****** ****** ****** ****** ******
      ****** ****** ****** ****** ****** ****** ****** ****** ****** ******
      ****** ****** ****** ****** ****** ****** ****** ****** ****** ******
   4  ****** ****** ****** ****** ****** ****** ****** ****** ****** ******
      ****** ****** ****** ****** ****** ****** ****** ****** ****** ******
      ****** ****** ****** ****** ****** ****** ****** ****** ****** ******
   5  ****** ****** ****** ****** ****** ****** ****** ****** ****** ******
      ****** ****** ****** ****** ****** ****** ****** ****** ****** ******
      ****** ****** ****** ****** ****** ****** ****** ****** ****** ******
   6  ****** ****** ****** ****** ****** ****** ****** ****** ****** ******
      ****** ****** ****** ****** ****** ****** ****** ****** ****** ******
      ****** ****** ****** ****** ****** ****** ****** ****** ****** ******
   7  ****** ****** ****** ****** ****** ****** ****** ****** ****** ******
      ****** ****** ****** ****** ****** ****** ****** ****** ****** ******
      ****** ****** ****** ****** ****** ****** ****** ****** ****** ******
   8  ****** ****** ****** ****** ****** ****** ****** ****** ****** ******
      ****** ****** ****** ****** ****** ****** ****** ****** ****** ******
      ****** ****** ****** ****** ****** ****** ****** ****** ****** ******
   9  ****** ****** ****** ****** ****** ****** ****** ****** ****** ******
      ****** ****** ****** ****** ****** ****** ****** ****** ****** ******
      ****** ****** ****** ****** ****** ****** ****** ****** ****** ******
  10  ****** ****** ****** ****** ****** ****** ****** ****** ****** ******
      ****** ****** ****** ****** ****** ****** ****** ****** ****** ******
      ****** ****** ****** ****** ****** ****** ****** ****** ****** ******
  11  ****** ****** ****** ****** ****** ****** ****** ****** ****** ******
      ****** ****** ****** ****** ****** ****** ****** ****** ****** ******
      ****** ****** ****** ****** ****** ****** ****** ****** ****** ******
  12  ****** ****** ****** ****** ****** ****** ****** ****** ****** ******
      ****** ****** ****** ****** ****** ****** ****** ****** ****** ******
      ****** ****** ****** ****** ****** ****** ****** ****** ****** ******
  13  ****** ****** ****** ****** ****** ****** ****** ****** ****** ******
      ****** ****** ****** ****** ****** ****** ****** ****** ****** ******
      ****** ****** ****** ****** ****** ****** ****** ****** ****** ******
  14  ****** ****** ****** ****** ****** ****** ****** ****** ****** ******
      ****** ****** ****** ****** ****** ****** ****** ****** ****** ******
      ****** ****** ****** ****** ****** ****** ****** ****** ****** ******
  15  ****** ****** ****** ****** ****** ****** ****** ****** ****** ******
      ****** ****** ****** ****** ****** ****** ****** ****** ****** ******
      ****** ****** ****** ****** ****** ****** ****** ****** ****** ******
  16  ****** ****** ****** ****** ****** ****** ****** ****** ****** ******
      ****** ****** ****** ****** ****** ****** ****** ****** ****** ******
      ****** ****** ****** ****** ****** ****** ****** ****** ****** ******
  17  ****** ****** ****** ****** ****** ****** ****** ****** ****** ******
      ****** ****** ****** ****** ****** ****** ****** ****** ****** ******
      ****** ****** ****** ****** ****** ****** ****** ****** ****** ******
  18  ****** ****** ****** ****** ****** ****** ****** ****** ****** ******
      ****** ****** ****** ****** ****** ****** ****** ****** ****** ******
      ****** ****** ****** ****** ****** ****** ****** ****** ****** ******
  19  ****** ****** ****** ****** ****** ****** ****** ****** ****** ******
      ****** ****** ****** ****** ****** ****** ****** ****** ****** ******
      ****** ****** ****** ****** ****** ****** ****** ****** ****** ******
  20  ****** ****** ****** ****** ****** ****** ****** ****** ****** ******
      ****** ****** ****** ****** ****** ****** ****** ****** ****** ******
      ****** ****** ****** ****** ****** ****** ****** ****** ****** ******
  21  ****** ****** ****** ****** ****** ****** ****** ****** ****** ******
      ****** ****** ****** ****** ****** ****** ****** ****** ****** ******
      ****** ****** ****** ****** ****** ****** ****** ****** ****** ******
  22  ****** ****** ****** ****** ****** ****** ****** ****** ****** ******
      ****** ****** ****** ****** ****** ****** ****** ****** ****** ******
      ****** ****** ****** ****** ****** ****** ****** ****** ****** ******
  23  ****** ****** ****** ****** ****** ****** ****** ****** ****** ******
      ****** ****** ****** ****** ****** ****** ****** ****** ****** ******
      ****** ****** ****** ****** ****** ****** ****** ****** ****** ******
  24  ****** ****** ****** ****** ****** ****** ****** ****** ****** ******
      ****** ****** ****** ****** ****** ****** ****** ****** ****** ******
      ****** ****** ****** ****** ****** ****** ****** ****** ****** ******
  25  ****** ****** ****** ****** ****** ****** ****** ****** ****** ******
      ****** ****** ****** ****** ****** ****** ****** ****** ****** ******
      ****** ****** ****** ****** ****** ****** ****** ****** ****** ******

 HEAD WILL BE SAVED ON UNIT   51 AT END OF TIME STEP    1, STRESS PERIOD    3
1
  VOLUMETRIC BUDGET FOR ENTIRE MODEL AT END OF TIME STEP    1, STRESS PERIOD   3
  ------------------------------------------------------------------------------

     CUMULATIVE VOLUMES      L**3       RATES FOR THIS TIME STEP      L**3/T
     ------------------                 ------------------------

           IN:                                      IN:
           ---                                      ---
             STORAGE =    21698159.0304               STORAGE =       25480.1764
       CONSTANT HEAD =    27395190.9817         CONSTANT HEAD =      119367.2279
               WELLS =           0.0000                 WELLS =           0.0000
            RECHARGE =     6292800.0000              RECHARGE =           0.0000
      STREAM LEAKAGE =     2726308.0970        STREAM LEAKAGE =       13135.9296

            TOTAL IN =    58112458.1091              TOTAL IN =      157983.3338

          OUT:                                     OUT:
          ----                                     ----
             STORAGE =           0.0000               STORAGE =           0.0000
       CONSTANT HEAD =           0.0000         CONSTANT HEAD =           0.0000
               WELLS =    12945796.2598                 WELLS =       47247.4316
            RECHARGE =           0.0000              RECHARGE =           0.0000
      STREAM LEAKAGE =    45166662.6800        STREAM LEAKAGE =      110735.9048

           TOTAL OUT =    58112458.9398             TOTAL OUT =      157983.3364

            IN - OUT =          -0.8307              IN - OUT =      -2.6037E-03

 PERCENT DISCREPANCY =          -0.00     PERCENT DISCREPANCY =          -0.00






         TIME SUMMARY AT END OF TIME STEP    1 IN STRESS PERIOD    3
                    SECONDS     MINUTES      HOURS       DAYS        YEARS
                    -----------------------------------------------------------
   TIME STEP LENGTH 7.86240E+06 1.31040E+05  2184.0      91.000     0.24914    
 STRESS PERIOD TIME 7.86240E+06 1.31040E+05  2184.0      91.000     0.24914    
         TOTAL TIME 2.36736E+07 3.94560E+05  6576.0      274.00     0.75017    
1
1
                            STRESS PERIOD NO.    4, LENGTH =   91.00000    
                            -----------------------------------------------

                              NUMBER OF TIME STEPS =     1

                               MULTIPLIER FOR DELT =     1.500

                            INITIAL TIME STEP SIZE =   91.00000    

 WELL NO.  LAYER   ROW   COL   STRESS RATE         
 --------------------------------------------------
      1      1     17     21     -0.3064E+05
      2      1     16     17     -0.1161E+05
      3      1     13     18      -5001.    
      4      1     14     25       0.000    

      4 WELLS

                 RECHARGE =  1.000000E-03

 REUSING STREAM SEGMENT DATA FROM LAST STRESS PERIOD
 
 SOLVING FOR HEAD 


     6 CALLS TO PCG ROUTINE FOR TIME STEP   1 IN STRESS PERIOD    4
    21 TOTAL ITERATIONS

 OUTPUT CONTROL FOR STRESS PERIOD    4   TIME STEP    1
    SAVE BUDGET
    SAVE HEAD FOR ALL LAYERS
    PRINT HEAD FOR ALL LAYERS
 UBDSV2 SAVING "STREAMFLOW OUT  " ON UNIT  50 AT TIME STEP  1, STRESS PERIOD   4



 STREAM LISTING     PERIOD      4   STEP        1

 LAYER ROW COL. STREAM  RCH.  FLOW INTO     FLOW TO   FLOW OUT OF   OVRLND.     DIRECT     STREAM       STREAM     STREAM     STREAM   STREAMBED  STREAMBED
                SEG.NO.  NO.  STRM. RCH.    AQUIFER    STRM. RCH.    RUNOFF     PRECIP       ET          HEAD       DEPTH      WIDTH   CONDCTNC.   GRADIENT

   1   13    1     1     1    1.0000E+05 -2.9632E+03   1.0296E+05  0.000E+00  0.000E+00  0.000E+00  4.84073E+01  1.459E-01  2.000E+01  2.000E+04 -1.482E-01
   1   13    2     1     2    1.0296E+05 -4.9494E+03   1.0791E+05  0.000E+00  0.000E+00  0.000E+00  4.79334E+01  1.493E-01  2.000E+01  2.000E+04 -2.475E-01
   1   14    3     1     3    1.0791E+05 -3.9755E+03   1.1189E+05  0.000E+00  0.000E+00  0.000E+00  4.74599E+01  1.531E-01  2.000E+01  2.000E+04 -1.988E-01
   1   15    4     1     4    1.1189E+05 -3.8584E+03   1.1575E+05  0.000E+00  0.000E+00  0.000E+00  4.69859E+01  1.563E-01  2.000E+01  2.000E+04 -1.929E-01
   1   16    5     1     5    1.1575E+05 -4.1442E+03   1.1989E+05  0.000E+00  0.000E+00  0.000E+00  4.65119E+01  1.596E-01  2.000E+01  2.000E+04 -2.072E-01
   1   16    6     1     6    1.1989E+05 -3.2796E+03   1.2317E+05  0.000E+00  0.000E+00  0.000E+00  4.60376E+01  1.626E-01  2.000E+01  2.000E+04 -1.640E-01
   1   16    7     1     7    1.2317E+05 -3.3385E+03   1.2651E+05  0.000E+00  0.000E+00  0.000E+00  4.55630E+01  1.652E-01  2.000E+01  2.000E+04 -1.669E-01
   1   16    8     1     8    1.2651E+05 -3.3572E+03   1.2987E+05  0.000E+00  0.000E+00  0.000E+00  4.50883E+01  1.679E-01  2.000E+01  2.000E+04 -1.679E-01
   1   16    9     1     9    1.2987E+05 -3.3173E+03   1.3318E+05  0.000E+00  0.000E+00  0.000E+00  4.46137E+01  1.705E-01  2.000E+01  2.000E+04 -1.659E-01
   1   16   10     1    10    1.3318E+05 -3.2107E+03   1.3639E+05  0.000E+00  0.000E+00  0.000E+00  4.41389E+01  1.730E-01  2.000E+01  2.000E+04 -1.605E-01
   1   16   11     1    11    1.3639E+05 -3.0237E+03   1.3942E+05  0.000E+00  0.000E+00  0.000E+00  4.36641E+01  1.754E-01  2.000E+01  2.000E+04 -1.512E-01
   1   16   12     1    12    1.3942E+05 -3.2438E+03   1.4266E+05  0.000E+00  0.000E+00  0.000E+00  4.31892E+01  1.778E-01  2.000E+01  2.000E+04 -1.622E-01
   1   15   13     1    13    1.4266E+05 -2.5782E+03   1.4524E+05  0.000E+00  0.000E+00  0.000E+00  4.27141E+01  1.800E-01  2.000E+01  2.000E+04 -1.289E-01
   1   14   14     1    14    1.4524E+05 -2.2761E+03   1.4752E+05  0.000E+00  0.000E+00  0.000E+00  4.22386E+01  1.818E-01  2.000E+01  2.000E+04 -1.138E-01
   1   13   15     1    15    1.4752E+05 -2.5158E+03   1.5003E+05  0.000E+00  0.000E+00  0.000E+00  4.17631E+01  1.836E-01  2.000E+01  2.000E+04 -1.258E-01
   1   12   16     1    16    1.5003E+05 -4.6356E+03   1.5467E+05  0.000E+00  0.000E+00  0.000E+00  4.12885E+01  1.862E-01  2.000E+01  2.000E+04 -2.318E-01
   1   12   17     1    17    1.5467E+05 -2.0089E+03   1.5668E+05  0.000E+00  0.000E+00  0.000E+00  4.08136E+01  1.886E-01  2.000E+01  2.000E+04 -1.004E-01
   1   12   18     1    18    1.5668E+05 -8.1448E+02   1.5749E+05  0.000E+00  0.000E+00  0.000E+00  4.03374E+01  1.897E-01  2.000E+01  2.000E+04 -4.072E-02
   1   12   19     1    19    1.5749E+05 -3.1868E+03   1.6068E+05  0.000E+00  0.000E+00  0.000E+00  3.98616E+01  1.911E-01  2.000E+01  2.000E+04 -1.593E-01
   1   13   20     1    20    1.6068E+05 -4.2470E+01   1.6072E+05  0.000E+00  0.000E+00  0.000E+00  3.93855E+01  1.923E-01  2.000E+01  2.000E+04 -2.124E-03
   1   14   21     1    21    1.6072E+05  2.7573E+03   1.5796E+05  0.000E+00  0.000E+00  0.000E+00  3.89072E+01  1.913E-01  2.000E+01  2.000E+04  1.379E-01
   1   14   22     1    22    1.5796E+05  5.7293E+03   1.5223E+05  0.000E+00  0.000E+00  0.000E+00  3.84269E+01  1.882E-01  2.000E+01  2.000E+04  2.865E-01
   1    9   30     2     1    5.0000E+04 -2.8011E+03   5.2801E+04  0.000E+00  0.000E+00  0.000E+00  4.02428E+01  1.178E-01  2.000E+01  2.000E+04 -1.401E-01
   1    9   29     2     2    5.2801E+04 -3.1336E+03   5.5935E+04  0.000E+00  0.000E+00  0.000E+00  3.99968E+01  1.218E-01  2.000E+01  2.000E+04 -1.567E-01
   1    9   28     2     3    5.5935E+04 -3.5163E+03   5.9451E+04  0.000E+00  0.000E+00  0.000E+00  3.97513E+01  1.263E-01  2.000E+01  2.000E+04 -1.758E-01
   1    9   27     2     4    5.9451E+04 -6.2640E+03   6.5715E+04  0.000E+00  0.000E+00  0.000E+00  3.95076E+01  1.326E-01  2.000E+01  2.000E+04 -3.132E-01
   1   10   26     2     5    6.5715E+04 -3.8910E+03   6.9606E+04  0.000E+00  0.000E+00  0.000E+00  3.92639E+01  1.389E-01  2.000E+01  2.000E+04 -1.945E-01
   1   11   25     2     6    6.9606E+04 -2.8399E+03   7.2446E+04  0.000E+00  0.000E+00  0.000E+00  3.90180E+01  1.430E-01  2.000E+01  2.000E+04 -1.420E-01
   1   12   24     2     7    7.2446E+04 -1.9761E+03   7.4422E+04  0.000E+00  0.000E+00  0.000E+00  3.87709E+01  1.459E-01  2.000E+01  2.000E+04 -9.881E-02
   1   13   23     2     8    7.4422E+04 -1.0926E+03   7.5514E+04  0.000E+00  0.000E+00  0.000E+00  3.85227E+01  1.477E-01  2.000E+01  2.000E+04 -5.463E-02
   1   14   22     2     9    7.5514E+04  2.6286E+03   7.2886E+04  0.000E+00  0.000E+00  0.000E+00  3.82718E+01  1.468E-01  2.000E+01  2.000E+04  1.314E-01
   1   14   22     3     1    2.2512E+05 -7.7503E+03   2.3287E+05  0.000E+00  0.000E+00  0.000E+00  3.77529E+01  1.973E-01  2.000E+01  2.000E+04 -3.875E-01
   1   15   23     3     2    2.3287E+05  1.8869E+03   2.3098E+05  0.000E+00  0.000E+00  0.000E+00  3.68655E+01  1.988E-01  2.000E+01  2.000E+04  9.435E-02
   1   15   24     3     3    2.3098E+05 -4.0791E+02   2.3139E+05  0.000E+00  0.000E+00  0.000E+00  3.59762E+01  1.985E-01  2.000E+01  2.000E+04 -2.040E-02
   1   15   25     3     4    2.3139E+05 -1.0432E+03   2.3243E+05  0.000E+00  0.000E+00  0.000E+00  3.50877E+01  1.988E-01  2.000E+01  2.000E+04 -5.216E-02
   1   15   26     3     5    2.3243E+05 -1.8708E+03   2.3430E+05  0.000E+00  0.000E+00  0.000E+00  3.41996E+01  1.996E-01  2.000E+01  2.000E+04 -9.354E-02
   1   16   27     3     6    2.3430E+05 -2.4591E+03   2.3676E+05  0.000E+00  0.000E+00  0.000E+00  3.33118E+01  2.007E-01  2.000E+01  2.000E+04 -1.230E-01
   1   17   28     3     7    2.3676E+05 -3.4472E+03   2.4021E+05  0.000E+00  0.000E+00  0.000E+00  3.24244E+01  2.022E-01  2.000E+01  2.000E+04 -1.724E-01
   1   18   29     3     8    2.4021E+05 -5.2630E+03   2.4547E+05  0.000E+00  0.000E+00  0.000E+00  3.15377E+01  2.044E-01  2.000E+01  2.000E+04 -2.632E-01
   1   18   30     3     9    2.4547E+05 -4.6446E+03   2.5012E+05  0.000E+00  0.000E+00  0.000E+00  3.06513E+01  2.069E-01  2.000E+01  2.000E+04 -2.322E-01



1
              HEAD IN LAYER   1 AT END OF TIME STEP   1 IN STRESS PERIOD    4
  ---------------------------------------------------------------------------

          1      2      3      4      5      6      7      8      9     10
         11     12     13     14     15     16     17     18     19     20
         21     22     23     24     25     26     27     28     29     30
 .........................................................................
   1  ****** ****** ****** ****** ****** ****** ****** ****** ****** ******
      ****** ****** ****** ****** ****** ****** ****** ****** ****** ******
      ****** ****** ****** ****** ****** ****** ****** ****** ****** ******
   2  ****** ****** ****** ****** ****** ****** ****** ****** ****** ******
      ****** ****** ****** ****** ****** ****** ****** ****** ****** ******
      ****** ****** ****** ****** ****** ****** ****** ****** ****** ******
   3  ****** ****** ****** ****** ****** ****** ****** ****** ****** ******
      ****** ****** ****** ****** ****** ****** ****** ****** ****** ******
      ****** ****** ****** ****** ****** ****** ****** ****** ****** ******
   4  ****** ****** ****** ****** ****** ****** ****** ****** ****** ******
      ****** ****** ****** ****** ****** ****** ****** ****** ****** ******
      ****** ****** ****** ****** ****** ****** ****** ****** ****** ******
   5  ****** ****** ****** ****** ****** ****** ****** ****** ****** ******
      ****** ****** ****** ****** ****** ****** ****** ****** ****** ******
      ****** ****** ****** ****** ****** ****** ****** ****** ****** ******
   6  ****** ****** ****** ****** ****** ****** ****** ****** ****** ******
      ****** ****** ****** ****** ****** ****** ****** ****** ****** ******
      ****** ****** ****** ****** ****** ****** ****** ****** ****** ******
   7  ****** ****** ****** ****** ****** ****** ****** ****** ****** ******
      ****** ****** ****** ****** ****** ****** ****** ****** ****** ******
      ****** ****** ****** ****** ****** ****** ****** ****** ****** ******
   8  ****** ****** ****** ****** ****** ****** ****** ****** ****** ******
      ****** ****** ****** ****** ****** ****** ****** ****** ****** ******
      ****** ****** ****** ****** ****** ****** ****** ****** ****** ******
   9  ****** ****** ****** ****** ****** ****** ****** ****** ****** ******
      ****** ****** ****** ****** ****** ****** ****** ****** ****** ******
      ****** ****** ****** ****** ****** ****** ****** ****** ****** ******
  10  ****** ****** ****** ****** ****** ****** ****** ****** ****** ******
      ****** ****** ****** ****** ****** ****** ****** ****** ****** ******
      ****** ****** ****** ****** ****** ****** ****** ****** ****** ******
  11  ****** ****** ****** ****** ****** ****** ****** ****** ****** ******
      ****** ****** ****** ****** ****** ****** ****** ****** ****** ******
      ****** ****** ****** ****** ****** ****** ****** ****** ****** ******
  12  ****** ****** ****** ****** ****** ****** ****** ****** ****** ******
      ****** ****** ****** ****** ****** ****** ****** ****** ****** ******
      ****** ****** ****** ****** ****** ****** ****** ****** ****** ******
  13  ****** ****** ****** ****** ****** ****** ****** ****** ****** ******
      ****** ****** ****** ****** ****** ****** ****** ****** ****** ******
      ****** ****** ****** ****** ****** ****** ****** ****** ****** ******
  14  ****** ****** ****** ****** ****** ****** ****** ****** ****** ******
      ****** ****** ****** ****** ****** ****** ****** ****** ****** ******
      ****** ****** ****** ****** ****** ****** ****** ****** ****** ******
  15  ****** ****** ****** ****** ****** ****** ****** ****** ****** ******
      ****** ****** ****** ****** ****** ****** ****** ****** ****** ******
      ****** ****** ****** ****** ****** ****** ****** ****** ****** ******
  16  ****** ****** ****** ****** ****** ****** ****** ****** ****** ******
      ****** ****** ****** ****** ****** ****** ****** ****** ****** ******
      ****** ****** ****** ****** ****** ****** ****** ****** ****** ******
  17  ****** ****** ****** ****** ****** ****** ****** ****** ****** ******
      ****** ****** ****** ****** ****** ****** ****** ****** ****** ******
      ****** ****** ****** ****** ****** ****** ****** ****** ****** ******
  18  ****** ****** ****** ****** ****** ****** ****** ****** ****** ******
      ****** ****** ****** ****** ****** ****** ****** ****** ****** ******
      ****** ****** ****** ****** ****** ****** ****** ****** ****** ******
  19  ****** ****** ****** ****** ****** ****** ****** ****** ****** ******
      ****** ****** ****** ****** ****** ****** ****** ****** ****** ******
      ****** ****** ****** ****** ****** ****** ****** ****** ****** ******
  20  ****** ****** ****** ****** ****** ****** ****** ****** ****** ******
      ****** ****** ****** ****** ****** ****** ****** ****** ****** ******
      ****** ****** ****** ****** ****** ****** ****** ****** ****** ******
  21  ****** ****** ****** ****** ****** ****** ****** ****** ****** ******
      ****** ****** ****** ****** ****** ****** ****** ****** ****** ******
      ****** ****** ****** ****** ****** ****** ****** ****** ****** ******
  22  ****** ****** ****** ****** ****** ****** ****** ****** ****** ******
      ****** ****** ****** ****** ****** ****** ****** ****** ****** ******
      ****** ****** ****** ****** ****** ****** ****** ****** ****** ******
  23  ****** ****** ****** ****** ****** ****** ****** ****** ****** ******
      ****** ****** ****** ****** ****** ****** ****** ****** ****** ******
      ****** ****** ****** ****** ****** ****** ****** ****** ****** ******
  24  ****** ****** ****** ****** ****** ****** ****** ****** ****** ******
      ****** ****** ****** ****** ****** ****** ****** ****** ****** ******
      ****** ****** ****** ****** ****** ****** ****** ****** ****** ******
  25  ****** ****** ****** ****** ****** ****** ****** ****** ****** ******
      ****** ****** ****** ****** ****** ****** ****** ****** ****** ******
      ****** ****** ****** ****** ****** ****** ****** ****** ****** ******

 HEAD WILL BE SAVED ON UNIT   51 AT END OF TIME STEP    1, STRESS PERIOD    4
1
  VOLUMETRIC BUDGET FOR ENTIRE MODEL AT END OF TIME STEP    1, STRESS PERIOD   4
  ------------------------------------------------------------------------------

     CUMULATIVE VOLUMES      L**3       RATES FOR THIS TIME STEP      L**3/T
     ------------------                 ------------------------

           IN:                                      IN:
           ---                                      ---
             STORAGE =    21823314.0777               STORAGE =        1375.3302
       CONSTANT HEAD =    38196472.3303         CONSTANT HEAD =      118695.3994
               WELLS =           0.0000                 WELLS =           0.0000
            RECHARGE =     8804400.0000              RECHARGE =       27600.0000
      STREAM LEAKAGE =     3909506.6626        STREAM LEAKAGE =       13002.1820

            TOTAL IN =    72733693.0707              TOTAL IN =      160672.9117

          OUT:                                     OUT:
          ----                                     ----
             STORAGE =       27755.2442               STORAGE =         305.0027
       CONSTANT HEAD =           0.0000         CONSTANT HEAD =           0.0000
               WELLS =    17245312.5359                 WELLS =       47247.4316
            RECHARGE =           0.0000              RECHARGE =           0.0000
      STREAM LEAKAGE =    55460625.9339        STREAM LEAKAGE =      113120.4753

           TOTAL OUT =    72733693.7139             TOTAL OUT =      160672.9096

            IN - OUT =          -0.6432              IN - OUT =       2.0599E-03

 PERCENT DISCREPANCY =          -0.00     PERCENT DISCREPANCY =           0.00






         TIME SUMMARY AT END OF TIME STEP    1 IN STRESS PERIOD    4
                    SECONDS     MINUTES      HOURS       DAYS        YEARS
                    -----------------------------------------------------------
   TIME STEP LENGTH 7.86240E+06 1.31040E+05  2184.0      91.000     0.24914    
 STRESS PERIOD TIME 7.86240E+06 1.31040E+05  2184.0      91.000     0.24914    
         TOTAL TIME 3.15360E+07 5.25600E+05  8760.0      365.00     0.99932    
1
1
                            STRESS PERIOD NO.    5, LENGTH =   92.00000    
                            -----------------------------------------------

                              NUMBER OF TIME STEPS =     1

                               MULTIPLIER FOR DELT =     1.500

                            INITIAL TIME STEP SIZE =   92.00000    

 WELL NO.  LAYER   ROW   COL   STRESS RATE         
 --------------------------------------------------
      1      1     17     21     -0.3064E+05
      2      1     16     17     -0.1161E+05
      3      1     13     18      -5001.    
      4      1     14     25       0.000    

      4 WELLS

                 RECHARGE =  5.000000E-04

 REUSING STREAM SEGMENT DATA FROM LAST STRESS PERIOD
 
 SOLVING FOR HEAD 


     6 CALLS TO PCG ROUTINE FOR TIME STEP   1 IN STRESS PERIOD    5
    23 TOTAL ITERATIONS

 OUTPUT CONTROL FOR STRESS PERIOD    5   TIME STEP    1
    SAVE BUDGET
    SAVE HEAD FOR ALL LAYERS
    PRINT HEAD FOR ALL LAYERS
 UBDSV2 SAVING "STREAMFLOW OUT  " ON UNIT  50 AT TIME STEP  1, STRESS PERIOD   5



 STREAM LISTING     PERIOD      5   STEP        1

 LAYER ROW COL. STREAM  RCH.  FLOW INTO     FLOW TO   FLOW OUT OF   OVRLND.     DIRECT     STREAM       STREAM     STREAM     STREAM   STREAMBED  STREAMBED
                SEG.NO.  NO.  STRM. RCH.    AQUIFER    STRM. RCH.    RUNOFF     PRECIP       ET          HEAD       DEPTH      WIDTH   CONDCTNC.   GRADIENT

   1   13    1     1     1    1.0000E+05 -2.7902E+03   1.0279E+05  0.000E+00  0.000E+00  0.000E+00  4.84072E+01  1.459E-01  2.000E+01  2.000E+04 -1.395E-01
   1   13    2     1     2    1.0279E+05 -4.7094E+03   1.0750E+05  0.000E+00  0.000E+00  0.000E+00  4.79332E+01  1.491E-01  2.000E+01  2.000E+04 -2.355E-01
   1   14    3     1     3    1.0750E+05 -3.7520E+03   1.1125E+05  0.000E+00  0.000E+00  0.000E+00  4.74595E+01  1.526E-01  2.000E+01  2.000E+04 -1.876E-01
   1   15    4     1     4    1.1125E+05 -3.6458E+03   1.1490E+05  0.000E+00  0.000E+00  0.000E+00  4.69853E+01  1.557E-01  2.000E+01  2.000E+04 -1.823E-01
   1   16    5     1     5    1.1490E+05 -3.9587E+03   1.1886E+05  0.000E+00  0.000E+00  0.000E+00  4.65111E+01  1.588E-01  2.000E+01  2.000E+04 -1.979E-01
   1   16    6     1     6    1.1886E+05 -3.1269E+03   1.2198E+05  0.000E+00  0.000E+00  0.000E+00  4.60367E+01  1.617E-01  2.000E+01  2.000E+04 -1.563E-01
   1   16    7     1     7    1.2198E+05 -3.1811E+03   1.2516E+05  0.000E+00  0.000E+00  0.000E+00  4.55620E+01  1.642E-01  2.000E+01  2.000E+04 -1.591E-01
   1   16    8     1     8    1.2516E+05 -3.1970E+03   1.2836E+05  0.000E+00  0.000E+00  0.000E+00  4.50872E+01  1.668E-01  2.000E+01  2.000E+04 -1.599E-01
   1   16    9     1     9    1.2836E+05 -3.1566E+03   1.3152E+05  0.000E+00  0.000E+00  0.000E+00  4.46124E+01  1.693E-01  2.000E+01  2.000E+04 -1.578E-01
   1   16   10     1    10    1.3152E+05 -3.0511E+03   1.3457E+05  0.000E+00  0.000E+00  0.000E+00  4.41376E+01  1.717E-01  2.000E+01  2.000E+04 -1.526E-01
   1   16   11     1    11    1.3457E+05 -2.8664E+03   1.3744E+05  0.000E+00  0.000E+00  0.000E+00  4.36626E+01  1.740E-01  2.000E+01  2.000E+04 -1.433E-01
   1   16   12     1    12    1.3744E+05 -3.0406E+03   1.4048E+05  0.000E+00  0.000E+00  0.000E+00  4.31876E+01  1.762E-01  2.000E+01  2.000E+04 -1.520E-01
   1   15   13     1    13    1.4048E+05 -2.3502E+03   1.4283E+05  0.000E+00  0.000E+00  0.000E+00  4.27124E+01  1.783E-01  2.000E+01  2.000E+04 -1.175E-01
   1   14   14     1    14    1.4283E+05 -2.0406E+03   1.4487E+05  0.000E+00  0.000E+00  0.000E+00  4.22367E+01  1.799E-01  2.000E+01  2.000E+04 -1.020E-01
   1   13   15     1    15    1.4487E+05 -2.2826E+03   1.4715E+05  0.000E+00  0.000E+00  0.000E+00  4.17611E+01  1.815E-01  2.000E+01  2.000E+04 -1.141E-01
   1   12   16     1    16    1.4715E+05 -4.4081E+03   1.5156E+05  0.000E+00  0.000E+00  0.000E+00  4.12863E+01  1.840E-01  2.000E+01  2.000E+04 -2.204E-01
   1   12   17     1    17    1.5156E+05 -1.8480E+03   1.5341E+05  0.000E+00  0.000E+00  0.000E+00  4.08113E+01  1.863E-01  2.000E+01  2.000E+04 -9.240E-02
   1   12   18     1    18    1.5341E+05 -6.5964E+02   1.5406E+05  0.000E+00  0.000E+00  0.000E+00  4.03350E+01  1.872E-01  2.000E+01  2.000E+04 -3.298E-02
   1   12   19     1    19    1.5406E+05 -3.0027E+03   1.5707E+05  0.000E+00  0.000E+00  0.000E+00  3.98590E+01  1.886E-01  2.000E+01  2.000E+04 -1.501E-01
   1   13   20     1    20    1.5707E+05  1.3324E+02   1.5693E+05  0.000E+00  0.000E+00  0.000E+00  3.93828E+01  1.896E-01  2.000E+01  2.000E+04  6.662E-03
   1   14   21     1    21    1.5693E+05  2.9238E+03   1.5401E+05  0.000E+00  0.000E+00  0.000E+00  3.89044E+01  1.885E-01  2.000E+01  2.000E+04  1.462E-01
   1   14   22     1    22    1.5401E+05  5.7551E+03   1.4826E+05  0.000E+00  0.000E+00  0.000E+00  3.84240E+01  1.853E-01  2.000E+01  2.000E+04  2.878E-01
   1    9   30     2     1    5.0000E+04 -2.6857E+03   5.2686E+04  0.000E+00  0.000E+00  0.000E+00  4.02427E+01  1.177E-01  2.000E+01  2.000E+04 -1.343E-01
   1    9   29     2     2    5.2686E+04 -3.0185E+03   5.5704E+04  0.000E+00  0.000E+00  0.000E+00  3.99966E+01  1.216E-01  2.000E+01  2.000E+04 -1.509E-01
   1    9   28     2     3    5.5704E+04 -3.4004E+03   5.9104E+04  0.000E+00  0.000E+00  0.000E+00  3.97509E+01  1.259E-01  2.000E+01  2.000E+04 -1.700E-01
   1    9   27     2     4    5.9104E+04 -6.1028E+03   6.5207E+04  0.000E+00  0.000E+00  0.000E+00  3.95070E+01  1.320E-01  2.000E+01  2.000E+04 -3.051E-01
   1   10   26     2     5    6.5207E+04 -3.7250E+03   6.8932E+04  0.000E+00  0.000E+00  0.000E+00  3.92632E+01  1.382E-01  2.000E+01  2.000E+04 -1.862E-01
   1   11   25     2     6    6.8932E+04 -2.6802E+03   7.1613E+04  0.000E+00  0.000E+00  0.000E+00  3.90171E+01  1.421E-01  2.000E+01  2.000E+04 -1.340E-01
   1   12   24     2     7    7.1613E+04 -1.8341E+03   7.3447E+04  0.000E+00  0.000E+00  0.000E+00  3.87698E+01  1.448E-01  2.000E+01  2.000E+04 -9.171E-02
   1   13   23     2     8    7.3447E+04 -9.8131E+02   7.4428E+04  0.000E+00  0.000E+00  0.000E+00  3.85215E+01  1.465E-01  2.000E+01  2.000E+04 -4.907E-02
   1   14   22     2     9    7.4428E+04  2.6858E+03   7.1742E+04  0.000E+00  0.000E+00  0.000E+00  3.82705E+01  1.455E-01  2.000E+01  2.000E+04  1.343E-01
   1   14   22     3     1    2.2000E+05 -7.7198E+03   2.2772E+05  0.000E+00  0.000E+00  0.000E+00  3.77502E+01  1.947E-01  2.000E+01  2.000E+04 -3.860E-01
   1   15   23     3     2    2.2772E+05  2.0419E+03   2.2568E+05  0.000E+00  0.000E+00  0.000E+00  3.68628E+01  1.961E-01  2.000E+01  2.000E+04  1.021E-01
   1   15   24     3     3    2.2568E+05 -3.0254E+02   2.2598E+05  0.000E+00  0.000E+00  0.000E+00  3.59735E+01  1.957E-01  2.000E+01  2.000E+04 -1.513E-02
   1   15   25     3     4    2.2598E+05 -9.4197E+02   2.2692E+05  0.000E+00  0.000E+00  0.000E+00  3.50849E+01  1.960E-01  2.000E+01  2.000E+04 -4.710E-02
   1   15   26     3     5    2.2692E+05 -1.7481E+03   2.2867E+05  0.000E+00  0.000E+00  0.000E+00  3.41967E+01  1.967E-01  2.000E+01  2.000E+04 -8.740E-02
   1   16   27     3     6    2.2867E+05 -2.3001E+03   2.3097E+05  0.000E+00  0.000E+00  0.000E+00  3.33089E+01  1.978E-01  2.000E+01  2.000E+04 -1.150E-01
   1   17   28     3     7    2.3097E+05 -3.2847E+03   2.3425E+05  0.000E+00  0.000E+00  0.000E+00  3.24214E+01  1.992E-01  2.000E+01  2.000E+04 -1.642E-01
   1   18   29     3     8    2.3425E+05 -5.1090E+03   2.3936E+05  0.000E+00  0.000E+00  0.000E+00  3.15347E+01  2.013E-01  2.000E+01  2.000E+04 -2.554E-01
   1   18   30     3     9    2.3936E+05 -4.5325E+03   2.4389E+05  0.000E+00  0.000E+00  0.000E+00  3.06482E+01  2.038E-01  2.000E+01  2.000E+04 -2.266E-01



1
              HEAD IN LAYER   1 AT END OF TIME STEP   1 IN STRESS PERIOD    5
  ---------------------------------------------------------------------------

          1      2      3      4      5      6      7      8      9     10
         11     12     13     14     15     16     17     18     19     20
         21     22     23     24     25     26     27     28     29     30
 .........................................................................
   1  ****** ****** ****** ****** ****** ****** ****** ****** ****** ******
      ****** ****** ****** ****** ****** ****** ****** ****** ****** ******
      ****** ****** ****** ****** ****** ****** ****** ****** ****** ******
   2  ****** ****** ****** ****** ****** ****** ****** ****** ****** ******
      ****** ****** ****** ****** ****** ****** ****** ****** ****** ******
      ****** ****** ****** ****** ****** ****** ****** ****** ****** ******
   3  ****** ****** ****** ****** ****** ****** ****** ****** ****** ******
      ****** ****** ****** ****** ****** ****** ****** ****** ****** ******
      ****** ****** ****** ****** ****** ****** ****** ****** ****** ******
   4  ****** ****** ****** ****** ****** ****** ****** ****** ****** ******
      ****** ****** ****** ****** ****** ****** ****** ****** ****** ******
      ****** ****** ****** ****** ****** ****** ****** ****** ****** ******
   5  ****** ****** ****** ****** ****** ****** ****** ****** ****** ******
      ****** ****** ****** ****** ****** ****** ****** ****** ****** ******
      ****** ****** ****** ****** ****** ****** ****** ****** ****** ******
   6  ****** ****** ****** ****** ****** ****** ****** ****** ****** ******
      ****** ****** ****** ****** ****** ****** ****** ****** ****** ******
      ****** ****** ****** ****** ****** ****** ****** ****** ****** ******
   7  ****** ****** ****** ****** ****** ****** ****** ****** ****** ******
      ****** ****** ****** ****** ****** ****** ****** ****** ****** ******
      ****** ****** ****** ****** ****** ****** ****** ****** ****** ******
   8  ****** ****** ****** ****** ****** ****** ****** ****** ****** ******
      ****** ****** ****** ****** ****** ****** ****** ****** ****** ******
      ****** ****** ****** ****** ****** ****** ****** ****** ****** ******
   9  ****** ****** ****** ****** ****** ****** ****** ****** ****** ******
      ****** ****** ****** ****** ****** ****** ****** ****** ****** ******
      ****** ****** ****** ****** ****** ****** ****** ****** ****** ******
  10  ****** ****** ****** ****** ****** ****** ****** ****** ****** ******
      ****** ****** ****** ****** ****** ****** ****** ****** ****** ******
      ****** ****** ****** ****** ****** ****** ****** ****** ****** ******
  11  ****** ****** ****** ****** ****** ****** ****** ****** ****** ******
      ****** ****** ****** ****** ****** ****** ****** ****** ****** ******
      ****** ****** ****** ****** ****** ****** ****** ****** ****** ******
  12  ****** ****** ****** ****** ****** ****** ****** ****** ****** ******
      ****** ****** ****** ****** ****** ****** ****** ****** ****** ******
      ****** ****** ****** ****** ****** ****** ****** ****** ****** ******
  13  ****** ****** ****** ****** ****** ****** ****** ****** ****** ******
      ****** ****** ****** ****** ****** ****** ****** ****** ****** ******
      ****** ****** ****** ****** ****** ****** ****** ****** ****** ******
  14  ****** ****** ****** ****** ****** ****** ****** ****** ****** ******
      ****** ****** ****** ****** ****** ****** ****** ****** ****** ******
      ****** ****** ****** ****** ****** ****** ****** ****** ****** ******
  15  ****** ****** ****** ****** ****** ****** ****** ****** ****** ******
      ****** ****** ****** ****** ****** ****** ****** ****** ****** ******
      ****** ****** ****** ****** ****** ****** ****** ****** ****** ******
  16  ****** ****** ****** ****** ****** ****** ****** ****** ****** ******
      ****** ****** ****** ****** ****** ****** ****** ****** ****** ******
      ****** ****** ****** ****** ****** ****** ****** ****** ****** ******
  17  ****** ****** ****** ****** ****** ****** ****** ****** ****** ******
      ****** ****** ****** ****** ****** ****** ****** ****** ****** ******
      ****** ****** ****** ****** ****** ****** ****** ****** ****** ******
  18  ****** ****** ****** ****** ****** ****** ****** ****** ****** ******
      ****** ****** ****** ****** ****** ****** ****** ****** ****** ******
      ****** ****** ****** ****** ****** ****** ****** ****** ****** ******
  19  ****** ****** ****** ****** ****** ****** ****** ****** ****** ******
      ****** ****** ****** ****** ****** ****** ****** ****** ****** ******
      ****** ****** ****** ****** ****** ****** ****** ****** ****** ******
  20  ****** ****** ****** ****** ****** ****** ****** ****** ****** ******
      ****** ****** ****** ****** ****** ****** ****** ****** ****** ******
      ****** ****** ****** ****** ****** ****** ****** ****** ****** ******
  21  ****** ****** ****** ****** ****** ****** ****** ****** ****** ******
      ****** ****** ****** ****** ****** ****** ****** ****** ****** ******
      ****** ****** ****** ****** ****** ****** ****** ****** ****** ******
  22  ****** ****** ****** ****** ****** ****** ****** ****** ****** ******
      ****** ****** ****** ****** ****** ****** ****** ****** ****** ******
      ****** ****** ****** ****** ****** ****** ****** ****** ****** ******
  23  ****** ****** ****** ****** ****** ****** ****** ****** ****** ******
      ****** ****** ****** ****** ****** ****** ****** ****** ****** ******
      ****** ****** ****** ****** ****** ****** ****** ****** ****** ******
  24  ****** ****** ****** ****** ****** ****** ****** ****** ****** ******
      ****** ****** ****** ****** ****** ****** ****** ****** ****** ******
      ****** ****** ****** ****** ****** ****** ****** ****** ****** ******
  25  ****** ****** ****** ****** ****** ****** ****** ****** ****** ******
      ****** ****** ****** ****** ****** ****** ****** ****** ****** ******
      ****** ****** ****** ****** ****** ****** ****** ****** ****** ******

 HEAD WILL BE SAVED ON UNIT   51 AT END OF TIME STEP    1, STRESS PERIOD    5
1
  VOLUMETRIC BUDGET FOR ENTIRE MODEL AT END OF TIME STEP    1, STRESS PERIOD   5
  ------------------------------------------------------------------------------

     CUMULATIVE VOLUMES      L**3       RATES FOR THIS TIME STEP      L**3/T
     ------------------                 ------------------------

           IN:                                      IN:
           ---                                      ---
             STORAGE =    22227428.1929               STORAGE =        4392.5447
       CONSTANT HEAD =    49507796.5586         CONSTANT HEAD =      122949.1764
               WELLS =           0.0000                 WELLS =           0.0000
            RECHARGE =    10074000.0000              RECHARGE =       13800.0000
      STREAM LEAKAGE =     5155174.0057        STREAM LEAKAGE =       13539.8624

            TOTAL IN =    86964398.7572              TOTAL IN =      154681.5835

          OUT:                                     OUT:
          ----                                     ----
             STORAGE =       27755.2442               STORAGE =           0.0000
       CONSTANT HEAD =           0.0000         CONSTANT HEAD =           0.0000
               WELLS =    21592076.2435                 WELLS =       47247.4316
            RECHARGE =           0.0000              RECHARGE =           0.0000
      STREAM LEAKAGE =    65344567.9840        STREAM LEAKAGE =      107434.1527

           TOTAL OUT =    86964399.4717             TOTAL OUT =      154681.5843

            IN - OUT =          -0.7144              IN - OUT =      -7.7384E-04

 PERCENT DISCREPANCY =          -0.00     PERCENT DISCREPANCY =          -0.00






         TIME SUMMARY AT END OF TIME STEP    1 IN STRESS PERIOD    5
                    SECONDS     MINUTES      HOURS       DAYS        YEARS
                    -----------------------------------------------------------
   TIME STEP LENGTH 7.94880E+06 1.32480E+05  2208.0      92.000     0.25188    
 STRESS PERIOD TIME 7.94880E+06 1.32480E+05  2208.0      92.000     0.25188    
         TOTAL TIME 3.94848E+07 6.58080E+05  10968.      457.00      1.2512    
1
1
                            STRESS PERIOD NO.    6, LENGTH =   91.00000    
                            -----------------------------------------------

                              NUMBER OF TIME STEPS =     1

                               MULTIPLIER FOR DELT =     1.500

                            INITIAL TIME STEP SIZE =   91.00000    

 WELL NO.  LAYER   ROW   COL   STRESS RATE         
 --------------------------------------------------
      1      1     17     21     -0.3064E+05
      2      1     16     17     -0.1161E+05
      3      1     13     18      -5001.    
      4      1     14     25       0.000    

      4 WELLS

                 RECHARGE =  2.000000E-03

 REUSING STREAM SEGMENT DATA FROM LAST STRESS PERIOD
 
 SOLVING FOR HEAD 


     7 CALLS TO PCG ROUTINE FOR TIME STEP   1 IN STRESS PERIOD    6
    26 TOTAL ITERATIONS

 OUTPUT CONTROL FOR STRESS PERIOD    6   TIME STEP    1
    SAVE BUDGET
    SAVE HEAD FOR ALL LAYERS
    PRINT HEAD FOR ALL LAYERS
 UBDSV2 SAVING "STREAMFLOW OUT  " ON UNIT  50 AT TIME STEP  1, STRESS PERIOD   6



 STREAM LISTING     PERIOD      6   STEP        1

 LAYER ROW COL. STREAM  RCH.  FLOW INTO     FLOW TO   FLOW OUT OF   OVRLND.     DIRECT     STREAM       STREAM     STREAM     STREAM   STREAMBED  STREAMBED
                SEG.NO.  NO.  STRM. RCH.    AQUIFER    STRM. RCH.    RUNOFF     PRECIP       ET          HEAD       DEPTH      WIDTH   CONDCTNC.   GRADIENT

   1   13    1     1     1    1.0000E+05 -3.1898E+03   1.0319E+05  0.000E+00  0.000E+00  0.000E+00  4.84074E+01  1.460E-01  2.000E+01  2.000E+04 -1.595E-01
   1   13    2     1     2    1.0319E+05 -5.2351E+03   1.0842E+05  0.000E+00  0.000E+00  0.000E+00  4.79337E+01  1.496E-01  2.000E+01  2.000E+04 -2.618E-01
   1   14    3     1     3    1.0842E+05 -4.2916E+03   1.1272E+05  0.000E+00  0.000E+00  0.000E+00  4.74605E+01  1.536E-01  2.000E+01  2.000E+04 -2.146E-01
   1   15    4     1     4    1.1272E+05 -4.1828E+03   1.1690E+05  0.000E+00  0.000E+00  0.000E+00  4.69867E+01  1.571E-01  2.000E+01  2.000E+04 -2.091E-01
   1   16    5     1     5    1.1690E+05 -4.4573E+03   1.2136E+05  0.000E+00  0.000E+00  0.000E+00  4.65129E+01  1.607E-01  2.000E+01  2.000E+04 -2.229E-01
   1   16    6     1     6    1.2136E+05 -3.5188E+03   1.2488E+05  0.000E+00  0.000E+00  0.000E+00  4.60389E+01  1.639E-01  2.000E+01  2.000E+04 -1.759E-01
   1   16    7     1     7    1.2488E+05 -3.5785E+03   1.2845E+05  0.000E+00  0.000E+00  0.000E+00  4.55644E+01  1.667E-01  2.000E+01  2.000E+04 -1.789E-01
   1   16    8     1     8    1.2845E+05 -3.5976E+03   1.3205E+05  0.000E+00  0.000E+00  0.000E+00  4.50900E+01  1.695E-01  2.000E+01  2.000E+04 -1.799E-01
   1   16    9     1     9    1.3205E+05 -3.5569E+03   1.3561E+05  0.000E+00  0.000E+00  0.000E+00  4.46155E+01  1.723E-01  2.000E+01  2.000E+04 -1.778E-01
   1   16   10     1    10    1.3561E+05 -3.4478E+03   1.3906E+05  0.000E+00  0.000E+00  0.000E+00  4.41409E+01  1.750E-01  2.000E+01  2.000E+04 -1.724E-01
   1   16   11     1    11    1.3906E+05 -3.2578E+03   1.4231E+05  0.000E+00  0.000E+00  0.000E+00  4.36662E+01  1.775E-01  2.000E+01  2.000E+04 -1.629E-01
   1   16   12     1    12    1.4231E+05 -3.5440E+03   1.4586E+05  0.000E+00  0.000E+00  0.000E+00  4.31915E+01  1.801E-01  2.000E+01  2.000E+04 -1.772E-01
   1   15   13     1    13    1.4586E+05 -2.8961E+03   1.4875E+05  0.000E+00  0.000E+00  0.000E+00  4.27166E+01  1.825E-01  2.000E+01  2.000E+04 -1.448E-01
   1   14   14     1    14    1.4875E+05 -2.5959E+03   1.5135E+05  0.000E+00  0.000E+00  0.000E+00  4.22413E+01  1.845E-01  2.000E+01  2.000E+04 -1.298E-01
   1   13   15     1    15    1.5135E+05 -2.8287E+03   1.5418E+05  0.000E+00  0.000E+00  0.000E+00  4.17661E+01  1.865E-01  2.000E+01  2.000E+04 -1.414E-01
   1   12   16     1    16    1.5418E+05 -4.9299E+03   1.5911E+05  0.000E+00  0.000E+00  0.000E+00  4.12916E+01  1.894E-01  2.000E+01  2.000E+04 -2.465E-01
   1   12   17     1    17    1.5911E+05 -2.2381E+03   1.6135E+05  0.000E+00  0.000E+00  0.000E+00  4.08169E+01  1.919E-01  2.000E+01  2.000E+04 -1.119E-01
   1   12   18     1    18    1.6135E+05 -1.0437E+03   1.6239E+05  0.000E+00  0.000E+00  0.000E+00  4.03408E+01  1.931E-01  2.000E+01  2.000E+04 -5.219E-02
   1   12   19     1    19    1.6239E+05 -3.4718E+03   1.6586E+05  0.000E+00  0.000E+00  0.000E+00  3.98652E+01  1.947E-01  2.000E+01  2.000E+04 -1.736E-01
   1   13   20     1    20    1.6586E+05 -3.2466E+02   1.6619E+05  0.000E+00  0.000E+00  0.000E+00  3.93893E+01  1.961E-01  2.000E+01  2.000E+04 -1.623E-02
   1   14   21     1    21    1.6619E+05  2.5035E+03   1.6368E+05  0.000E+00  0.000E+00  0.000E+00  3.89112E+01  1.953E-01  2.000E+01  2.000E+04  1.252E-01
   1   14   22     1    22    1.6368E+05  5.6771E+03   1.5801E+05  0.000E+00  0.000E+00  0.000E+00  3.84310E+01  1.924E-01  2.000E+01  2.000E+04  2.839E-01
   1    9   30     2     1    5.0000E+04 -3.0428E+03   5.3043E+04  0.000E+00  0.000E+00  0.000E+00  4.02430E+01  1.180E-01  2.000E+01  2.000E+04 -1.521E-01
   1    9   29     2     2    5.3043E+04 -3.3727E+03   5.6415E+04  0.000E+00  0.000E+00  0.000E+00  3.99973E+01  1.223E-01  2.000E+01  2.000E+04 -1.686E-01
   1    9   28     2     3    5.6415E+04 -3.7524E+03   6.0168E+04  0.000E+00  0.000E+00  0.000E+00  3.97520E+01  1.270E-01  2.000E+01  2.000E+04 -1.876E-01
   1    9   27     2     4    6.0168E+04 -6.5724E+03   6.6740E+04  0.000E+00  0.000E+00  0.000E+00  3.95087E+01  1.337E-01  2.000E+01  2.000E+04 -3.286E-01
   1   10   26     2     5    6.6740E+04 -4.2110E+03   7.0951E+04  0.000E+00  0.000E+00  0.000E+00  3.92654E+01  1.404E-01  2.000E+01  2.000E+04 -2.105E-01
   1   11   25     2     6    7.0951E+04 -3.1452E+03   7.4096E+04  0.000E+00  0.000E+00  0.000E+00  3.90198E+01  1.448E-01  2.000E+01  2.000E+04 -1.573E-01
   1   12   24     2     7    7.4096E+04 -2.2452E+03   7.6342E+04  0.000E+00  0.000E+00  0.000E+00  3.87730E+01  1.480E-01  2.000E+01  2.000E+04 -1.123E-01
   1   13   23     2     8    7.6342E+04 -1.3021E+03   7.7644E+04  0.000E+00  0.000E+00  0.000E+00  3.85251E+01  1.501E-01  2.000E+01  2.000E+04 -6.510E-02
   1   14   22     2     9    7.7644E+04  2.5446E+03   7.5099E+04  0.000E+00  0.000E+00  0.000E+00  3.82744E+01  1.494E-01  2.000E+01  2.000E+04  1.272E-01
   1   14   22     3     1    2.3311E+05 -7.8033E+03   2.4091E+05  0.000E+00  0.000E+00  0.000E+00  3.77570E+01  2.014E-01  2.000E+01  2.000E+04 -3.902E-01
   1   15   23     3     2    2.4091E+05  1.6493E+03   2.3926E+05  0.000E+00  0.000E+00  0.000E+00  3.68697E+01  2.030E-01  2.000E+01  2.000E+04  8.247E-02
   1   15   24     3     3    2.3926E+05 -5.8761E+02   2.3985E+05  0.000E+00  0.000E+00  0.000E+00  3.59805E+01  2.027E-01  2.000E+01  2.000E+04 -2.938E-02
   1   15   25     3     4    2.3985E+05 -1.2284E+03   2.4108E+05  0.000E+00  0.000E+00  0.000E+00  3.50921E+01  2.032E-01  2.000E+01  2.000E+04 -6.142E-02
   1   15   26     3     5    2.4108E+05 -2.1183E+03   2.4319E+05  0.000E+00  0.000E+00  0.000E+00  3.42040E+01  2.040E-01  2.000E+01  2.000E+04 -1.059E-01
   1   16   27     3     6    2.4319E+05 -2.7639E+03   2.4596E+05  0.000E+00  0.000E+00  0.000E+00  3.33164E+01  2.053E-01  2.000E+01  2.000E+04 -1.382E-01
   1   17   28     3     7    2.4596E+05 -3.7581E+03   2.4972E+05  0.000E+00  0.000E+00  0.000E+00  3.24291E+01  2.069E-01  2.000E+01  2.000E+04 -1.879E-01
   1   18   29     3     8    2.4972E+05 -5.5530E+03   2.5527E+05  0.000E+00  0.000E+00  0.000E+00  3.15426E+01  2.092E-01  2.000E+01  2.000E+04 -2.776E-01
   1   18   30     3     9    2.5527E+05 -4.8680E+03   2.6014E+05  0.000E+00  0.000E+00  0.000E+00  3.06563E+01  2.118E-01  2.000E+01  2.000E+04 -2.434E-01



1
              HEAD IN LAYER   1 AT END OF TIME STEP   1 IN STRESS PERIOD    6
  ---------------------------------------------------------------------------

          1      2      3      4      5      6      7      8      9     10
         11     12     13     14     15     16     17     18     19     20
         21     22     23     24     25     26     27     28     29     30
 .........................................................................
   1  ****** ****** ****** ****** ****** ****** ****** ****** ****** ******
      ****** ****** ****** ****** ****** ****** ****** ****** ****** ******
      ****** ****** ****** ****** ****** ****** ****** ****** ****** ******
   2  ****** ****** ****** ****** ****** ****** ****** ****** ****** ******
      ****** ****** ****** ****** ****** ****** ****** ****** ****** ******
      ****** ****** ****** ****** ****** ****** ****** ****** ****** ******
   3  ****** ****** ****** ****** ****** ****** ****** ****** ****** ******
      ****** ****** ****** ****** ****** ****** ****** ****** ****** ******
      ****** ****** ****** ****** ****** ****** ****** ****** ****** ******
   4  ****** ****** ****** ****** ****** ****** ****** ****** ****** ******
      ****** ****** ****** ****** ****** ****** ****** ****** ****** ******
      ****** ****** ****** ****** ****** ****** ****** ****** ****** ******
   5  ****** ****** ****** ****** ****** ****** ****** ****** ****** ******
      ****** ****** ****** ****** ****** ****** ****** ****** ****** ******
      ****** ****** ****** ****** ****** ****** ****** ****** ****** ******
   6  ****** ****** ****** ****** ****** ****** ****** ****** ****** ******
      ****** ****** ****** ****** ****** ****** ****** ****** ****** ******
      ****** ****** ****** ****** ****** ****** ****** ****** ****** ******
   7  ****** ****** ****** ****** ****** ****** ****** ****** ****** ******
      ****** ****** ****** ****** ****** ****** ****** ****** ****** ******
      ****** ****** ****** ****** ****** ****** ****** ****** ****** ******
   8  ****** ****** ****** ****** ****** ****** ****** ****** ****** ******
      ****** ****** ****** ****** ****** ****** ****** ****** ****** ******
      ****** ****** ****** ****** ****** ****** ****** ****** ****** ******
   9  ****** ****** ****** ****** ****** ****** ****** ****** ****** ******
      ****** ****** ****** ****** ****** ****** ****** ****** ****** ******
      ****** ****** ****** ****** ****** ****** ****** ****** ****** ******
  10  ****** ****** ****** ****** ****** ****** ****** ****** ****** ******
      ****** ****** ****** ****** ****** ****** ****** ****** ****** ******
      ****** ****** ****** ****** ****** ****** ****** ****** ****** ******
  11  ****** ****** ****** ****** ****** ****** ****** ****** ****** ******
      ****** ****** ****** ****** ****** ****** ****** ****** ****** ******
      ****** ****** ****** ****** ****** ****** ****** ****** ****** ******
  12  ****** ****** ****** ****** ****** ****** ****** ****** ****** ******
      ****** ****** ****** ****** ****** ****** ****** ****** ****** ******
      ****** ****** ****** ****** ****** ****** ****** ****** ****** ******
  13  ****** ****** ****** ****** ****** ****** ****** ****** ****** ******
      ****** ****** ****** ****** ****** ****** ****** ****** ****** ******
      ****** ****** ****** ****** ****** ****** ****** ****** ****** ******
  14  ****** ****** ****** ****** ****** ****** ****** ****** ****** ******
      ****** ****** ****** ****** ****** ****** ****** ****** ****** ******
      ****** ****** ****** ****** ****** ****** ****** ****** ****** ******
  15  ****** ****** ****** ****** ****** ****** ****** ****** ****** ******
      ****** ****** ****** ****** ****** ****** ****** ****** ****** ******
      ****** ****** ****** ****** ****** ****** ****** ****** ****** ******
  16  ****** ****** ****** ****** ****** ****** ****** ****** ****** ******
      ****** ****** ****** ****** ****** ****** ****** ****** ****** ******
      ****** ****** ****** ****** ****** ****** ****** ****** ****** ******
  17  ****** ****** ****** ****** ****** ****** ****** ****** ****** ******
      ****** ****** ****** ****** ****** ****** ****** ****** ****** ******
      ****** ****** ****** ****** ****** ****** ****** ****** ****** ******
  18  ****** ****** ****** ****** ****** ****** ****** ****** ****** ******
      ****** ****** ****** ****** ****** ****** ****** ****** ****** ******
      ****** ****** ****** ****** ****** ****** ****** ****** ****** ******
  19  ****** ****** ****** ****** ****** ****** ****** ****** ****** ******
      ****** ****** ****** ****** ****** ****** ****** ****** ****** ******
      ****** ****** ****** ****** ****** ****** ****** ****** ****** ******
  20  ****** ****** ****** ****** ****** ****** ****** ****** ****** ******
      ****** ****** ****** ****** ****** ****** ****** ****** ****** ******
      ****** ****** ****** ****** ****** ****** ****** ****** ****** ******
  21  ****** ****** ****** ****** ****** ****** ****** ****** ****** ******
      ****** ****** ****** ****** ****** ****** ****** ****** ****** ******
      ****** ****** ****** ****** ****** ****** ****** ****** ****** ******
  22  ****** ****** ****** ****** ****** ****** ****** ****** ****** ******
      ****** ****** ****** ****** ****** ****** ****** ****** ****** ******
      ****** ****** ****** ****** ****** ****** ****** ****** ****** ******
  23  ****** ****** ****** ****** ****** ****** ****** ****** ****** ******
      ****** ****** ****** ****** ****** ****** ****** ****** ****** ******
      ****** ****** ****** ****** ****** ****** ****** ****** ****** ******
  24  ****** ****** ****** ****** ****** ****** ****** ****** ****** ******
      ****** ****** ****** ****** ****** ****** ****** ****** ****** ******
      ****** ****** ****** ****** ****** ****** ****** ****** ****** ******
  25  ****** ****** ****** ****** ****** ****** ****** ****** ****** ******
      ****** ****** ****** ****** ****** ****** ****** ****** ****** ******
      ****** ****** ****** ****** ****** ****** ****** ****** ****** ******

 HEAD WILL BE SAVED ON UNIT   51 AT END OF TIME STEP    1, STRESS PERIOD    6
1
  VOLUMETRIC BUDGET FOR ENTIRE MODEL AT END OF TIME STEP    1, STRESS PERIOD   6
  ------------------------------------------------------------------------------

     CUMULATIVE VOLUMES      L**3       RATES FOR THIS TIME STEP      L**3/T
     ------------------                 ------------------------

           IN:                                      IN:
           ---                                      ---
             STORAGE =    22227428.1929               STORAGE =           0.0000
       CONSTANT HEAD =    59726788.0484         CONSTANT HEAD =      112296.6098
               WELLS =           0.0000                 WELLS =           0.0000
            RECHARGE =    15097200.0000              RECHARGE =       55200.0000
      STREAM LEAKAGE =     6281251.0566        STREAM LEAKAGE =       12374.4731

            TOTAL IN =   103332667.2979              TOTAL IN =      179871.0829

          OUT:                                     OUT:
          ----                                     ----
             STORAGE =      947986.7066               STORAGE =       10112.4337
       CONSTANT HEAD =           0.0000         CONSTANT HEAD =           0.0000
               WELLS =    25891592.5196                 WELLS =       47247.4316
            RECHARGE =           0.0000              RECHARGE =           0.0000
      STREAM LEAKAGE =    76493088.6322        STREAM LEAKAGE =      122511.2159

           TOTAL OUT =   103332667.8585             TOTAL OUT =      179871.0812

            IN - OUT =          -0.5606              IN - OUT =       1.6907E-03

 PERCENT DISCREPANCY =          -0.00     PERCENT DISCREPANCY =           0.00






         TIME SUMMARY AT END OF TIME STEP    1 IN STRESS PERIOD    6
                    SECONDS     MINUTES      HOURS       DAYS        YEARS
                    -----------------------------------------------------------
   TIME STEP LENGTH 7.86240E+06 1.31040E+05  2184.0      91.000     0.24914    
 STRESS PERIOD TIME 7.86240E+06 1.31040E+05  2184.0      91.000     0.24914    
         TOTAL TIME 4.73472E+07 7.89120E+05  13152.      548.00      1.5003    
1
1
                            STRESS PERIOD NO.    7, LENGTH =   91.00000    
                            -----------------------------------------------

                              NUMBER OF TIME STEPS =     1

                               MULTIPLIER FOR DELT =     1.500

                            INITIAL TIME STEP SIZE =   91.00000    

 WELL NO.  LAYER   ROW   COL   STRESS RATE         
 --------------------------------------------------
      1      1     17     21     -0.3064E+05
      2      1     16     17     -0.1161E+05
      3      1     13     18      -5001.    
      4      1     14     25       0.000    

      4 WELLS

                 RECHARGE =   0.00000    

 REUSING STREAM SEGMENT DATA FROM LAST STRESS PERIOD
 
 SOLVING FOR HEAD 


     7 CALLS TO PCG ROUTINE FOR TIME STEP   1 IN STRESS PERIOD    7
    26 TOTAL ITERATIONS

 OUTPUT CONTROL FOR STRESS PERIOD    7   TIME STEP    1
    SAVE BUDGET
    SAVE HEAD FOR ALL LAYERS
    PRINT HEAD FOR ALL LAYERS
 UBDSV2 SAVING "STREAMFLOW OUT  " ON UNIT  50 AT TIME STEP  1, STRESS PERIOD   7



 STREAM LISTING     PERIOD      7   STEP        1

 LAYER ROW COL. STREAM  RCH.  FLOW INTO     FLOW TO   FLOW OUT OF   OVRLND.     DIRECT     STREAM       STREAM     STREAM     STREAM   STREAMBED  STREAMBED
                SEG.NO.  NO.  STRM. RCH.    AQUIFER    STRM. RCH.    RUNOFF     PRECIP       ET          HEAD       DEPTH      WIDTH   CONDCTNC.   GRADIENT

   1   13    1     1     1    1.0000E+05 -2.6958E+03   1.0270E+05  0.000E+00  0.000E+00  0.000E+00  4.84072E+01  1.458E-01  2.000E+01  2.000E+04 -1.348E-01
   1   13    2     1     2    1.0270E+05 -4.5866E+03   1.0728E+05  0.000E+00  0.000E+00  0.000E+00  4.79330E+01  1.489E-01  2.000E+01  2.000E+04 -2.293E-01
   1   14    3     1     3    1.0728E+05 -3.6257E+03   1.1091E+05  0.000E+00  0.000E+00  0.000E+00  4.74592E+01  1.524E-01  2.000E+01  2.000E+04 -1.813E-01
   1   15    4     1     4    1.1091E+05 -3.5222E+03   1.1443E+05  0.000E+00  0.000E+00  0.000E+00  4.69849E+01  1.554E-01  2.000E+01  2.000E+04 -1.761E-01
   1   16    5     1     5    1.1443E+05 -3.8498E+03   1.1828E+05  0.000E+00  0.000E+00  0.000E+00  4.65107E+01  1.584E-01  2.000E+01  2.000E+04 -1.925E-01
   1   16    6     1     6    1.1828E+05 -3.0370E+03   1.2132E+05  0.000E+00  0.000E+00  0.000E+00  4.60362E+01  1.612E-01  2.000E+01  2.000E+04 -1.519E-01
   1   16    7     1     7    1.2132E+05 -3.0892E+03   1.2441E+05  0.000E+00  0.000E+00  0.000E+00  4.55614E+01  1.637E-01  2.000E+01  2.000E+04 -1.545E-01
   1   16    8     1     8    1.2441E+05 -3.1041E+03   1.2751E+05  0.000E+00  0.000E+00  0.000E+00  4.50866E+01  1.661E-01  2.000E+01  2.000E+04 -1.552E-01
   1   16    9     1     9    1.2751E+05 -3.0635E+03   1.3057E+05  0.000E+00  0.000E+00  0.000E+00  4.46117E+01  1.686E-01  2.000E+01  2.000E+04 -1.532E-01
   1   16   10     1    10    1.3057E+05 -2.9587E+03   1.3353E+05  0.000E+00  0.000E+00  0.000E+00  4.41368E+01  1.709E-01  2.000E+01  2.000E+04 -1.479E-01
   1   16   11     1    11    1.3353E+05 -2.7753E+03   1.3631E+05  0.000E+00  0.000E+00  0.000E+00  4.36618E+01  1.731E-01  2.000E+01  2.000E+04 -1.388E-01
   1   16   12     1    12    1.3631E+05 -2.9270E+03   1.3924E+05  0.000E+00  0.000E+00  0.000E+00  4.31867E+01  1.753E-01  2.000E+01  2.000E+04 -1.463E-01
   1   15   13     1    13    1.3924E+05 -2.2226E+03   1.4146E+05  0.000E+00  0.000E+00  0.000E+00  4.27114E+01  1.773E-01  2.000E+01  2.000E+04 -1.111E-01
   1   14   14     1    14    1.4146E+05 -1.9104E+03   1.4337E+05  0.000E+00  0.000E+00  0.000E+00  4.22357E+01  1.788E-01  2.000E+01  2.000E+04 -9.552E-02
   1   13   15     1    15    1.4337E+05 -2.1548E+03   1.4552E+05  0.000E+00  0.000E+00  0.000E+00  4.17599E+01  1.804E-01  2.000E+01  2.000E+04 -1.077E-01
   1   12   16     1    16    1.4552E+05 -4.2903E+03   1.4981E+05  0.000E+00  0.000E+00  0.000E+00  4.12850E+01  1.828E-01  2.000E+01  2.000E+04 -2.145E-01
   1   12   17     1    17    1.4981E+05 -1.7578E+03   1.5157E+05  0.000E+00  0.000E+00  0.000E+00  4.08100E+01  1.850E-01  2.000E+01  2.000E+04 -8.789E-02
   1   12   18     1    18    1.5157E+05 -5.7087E+02   1.5214E+05  0.000E+00  0.000E+00  0.000E+00  4.03336E+01  1.859E-01  2.000E+01  2.000E+04 -2.854E-02
   1   12   19     1    19    1.5214E+05 -2.8959E+03   1.5504E+05  0.000E+00  0.000E+00  0.000E+00  3.98576E+01  1.871E-01  2.000E+01  2.000E+04 -1.448E-01
   1   13   20     1    20    1.5504E+05  2.4333E+02   1.5479E+05  0.000E+00  0.000E+00  0.000E+00  3.93813E+01  1.881E-01  2.000E+01  2.000E+04  1.217E-02
   1   14   21     1    21    1.5479E+05  3.0234E+03   1.5177E+05  0.000E+00  0.000E+00  0.000E+00  3.89028E+01  1.869E-01  2.000E+01  2.000E+04  1.512E-01
   1   14   22     1    22    1.5177E+05  5.7758E+03   1.4600E+05  0.000E+00  0.000E+00  0.000E+00  3.84223E+01  1.837E-01  2.000E+01  2.000E+04  2.888E-01
   1    9   30     2     1    5.0000E+04 -2.6001E+03   5.2600E+04  0.000E+00  0.000E+00  0.000E+00  4.02427E+01  1.177E-01  2.000E+01  2.000E+04 -1.300E-01
   1    9   29     2     2    5.2600E+04 -2.9336E+03   5.5534E+04  0.000E+00  0.000E+00  0.000E+00  3.99964E+01  1.214E-01  2.000E+01  2.000E+04 -1.467E-01
   1    9   28     2     3    5.5534E+04 -3.3166E+03   5.8850E+04  0.000E+00  0.000E+00  0.000E+00  3.97506E+01  1.256E-01  2.000E+01  2.000E+04 -1.658E-01
   1    9   27     2     4    5.8850E+04 -5.9973E+03   6.4848E+04  0.000E+00  0.000E+00  0.000E+00  3.95066E+01  1.316E-01  2.000E+01  2.000E+04 -2.999E-01
   1   10   26     2     5    6.4848E+04 -3.6101E+03   6.8458E+04  0.000E+00  0.000E+00  0.000E+00  3.92627E+01  1.377E-01  2.000E+01  2.000E+04 -1.805E-01
   1   11   25     2     6    6.8458E+04 -2.5677E+03   7.1025E+04  0.000E+00  0.000E+00  0.000E+00  3.90165E+01  1.415E-01  2.000E+01  2.000E+04 -1.284E-01
   1   12   24     2     7    7.1025E+04 -1.7312E+03   7.2756E+04  0.000E+00  0.000E+00  0.000E+00  3.87691E+01  1.441E-01  2.000E+01  2.000E+04 -8.656E-02
   1   13   23     2     8    7.2756E+04 -8.9697E+02   7.3653E+04  0.000E+00  0.000E+00  0.000E+00  3.85206E+01  1.456E-01  2.000E+01  2.000E+04 -4.485E-02
   1   14   22     2     9    7.3653E+04  2.7208E+03   7.0933E+04  0.000E+00  0.000E+00  0.000E+00  3.82696E+01  1.446E-01  2.000E+01  2.000E+04  1.360E-01
   1   14   22     3     1    2.1693E+05 -7.6982E+03   2.2463E+05  0.000E+00  0.000E+00  0.000E+00  3.77486E+01  1.931E-01  2.000E+01  2.000E+04 -3.849E-01
   1   15   23     3     2    2.2463E+05  2.1351E+03   2.2249E+05  0.000E+00  0.000E+00  0.000E+00  3.68612E+01  1.945E-01  2.000E+01  2.000E+04  1.068E-01
   1   15   24     3     3    2.2249E+05 -2.3045E+02   2.2272E+05  0.000E+00  0.000E+00  0.000E+00  3.59718E+01  1.940E-01  2.000E+01  2.000E+04 -1.152E-02
   1   15   25     3     4    2.2272E+05 -8.6810E+02   2.2359E+05  0.000E+00  0.000E+00  0.000E+00  3.50832E+01  1.943E-01  2.000E+01  2.000E+04 -4.340E-02
   1   15   26     3     5    2.2359E+05 -1.6529E+03   2.2524E+05  0.000E+00  0.000E+00  0.000E+00  3.41950E+01  1.950E-01  2.000E+01  2.000E+04 -8.265E-02
   1   16   27     3     6    2.2524E+05 -2.1855E+03   2.2743E+05  0.000E+00  0.000E+00  0.000E+00  3.33071E+01  1.960E-01  2.000E+01  2.000E+04 -1.093E-01
   1   17   28     3     7    2.2743E+05 -3.1690E+03   2.3060E+05  0.000E+00  0.000E+00  0.000E+00  3.24196E+01  1.973E-01  2.000E+01  2.000E+04 -1.585E-01
   1   18   29     3     8    2.3060E+05 -5.0034E+03   2.3560E+05  0.000E+00  0.000E+00  0.000E+00  3.15328E+01  1.994E-01  2.000E+01  2.000E+04 -2.502E-01
   1   18   30     3     9    2.3560E+05 -4.4496E+03   2.4005E+05  0.000E+00  0.000E+00  0.000E+00  3.06463E+01  2.019E-01  2.000E+01  2.000E+04 -2.225E-01



1
              HEAD IN LAYER   1 AT END OF TIME STEP   1 IN STRESS PERIOD    7
  ---------------------------------------------------------------------------

          1      2      3      4      5      6      7      8      9     10
         11     12     13     14     15     16     17     18     19     20
         21     22     23     24     25     26     27     28     29     30
 .........................................................................
   1  ****** ****** ****** ****** ****** ****** ****** ****** ****** ******
      ****** ****** ****** ****** ****** ****** ****** ****** ****** ******
      ****** ****** ****** ****** ****** ****** ****** ****** ****** ******
   2  ****** ****** ****** ****** ****** ****** ****** ****** ****** ******
      ****** ****** ****** ****** ****** ****** ****** ****** ****** ******
      ****** ****** ****** ****** ****** ****** ****** ****** ****** ******
   3  ****** ****** ****** ****** ****** ****** ****** ****** ****** ******
      ****** ****** ****** ****** ****** ****** ****** ****** ****** ******
      ****** ****** ****** ****** ****** ****** ****** ****** ****** ******
   4  ****** ****** ****** ****** ****** ****** ****** ****** ****** ******
      ****** ****** ****** ****** ****** ****** ****** ****** ****** ******
      ****** ****** ****** ****** ****** ****** ****** ****** ****** ******
   5  ****** ****** ****** ****** ****** ****** ****** ****** ****** ******
      ****** ****** ****** ****** ****** ****** ****** ****** ****** ******
      ****** ****** ****** ****** ****** ****** ****** ****** ****** ******
   6  ****** ****** ****** ****** ****** ****** ****** ****** ****** ******
      ****** ****** ****** ****** ****** ****** ****** ****** ****** ******
      ****** ****** ****** ****** ****** ****** ****** ****** ****** ******
   7  ****** ****** ****** ****** ****** ****** ****** ****** ****** ******
      ****** ****** ****** ****** ****** ****** ****** ****** ****** ******
      ****** ****** ****** ****** ****** ****** ****** ****** ****** ******
   8  ****** ****** ****** ****** ****** ****** ****** ****** ****** ******
      ****** ****** ****** ****** ****** ****** ****** ****** ****** ******
      ****** ****** ****** ****** ****** ****** ****** ****** ****** ******
   9  ****** ****** ****** ****** ****** ****** ****** ****** ****** ******
      ****** ****** ****** ****** ****** ****** ****** ****** ****** ******
      ****** ****** ****** ****** ****** ****** ****** ****** ****** ******
  10  ****** ****** ****** ****** ****** ****** ****** ****** ****** ******
      ****** ****** ****** ****** ****** ****** ****** ****** ****** ******
      ****** ****** ****** ****** ****** ****** ****** ****** ****** ******
  11  ****** ****** ****** ****** ****** ****** ****** ****** ****** ******
      ****** ****** ****** ****** ****** ****** ****** ****** ****** ******
      ****** ****** ****** ****** ****** ****** ****** ****** ****** ******
  12  ****** ****** ****** ****** ****** ****** ****** ****** ****** ******
      ****** ****** ****** ****** ****** ****** ****** ****** ****** ******
      ****** ****** ****** ****** ****** ****** ****** ****** ****** ******
  13  ****** ****** ****** ****** ****** ****** ****** ****** ****** ******
      ****** ****** ****** ****** ****** ****** ****** ****** ****** ******
      ****** ****** ****** ****** ****** ****** ****** ****** ****** ******
  14  ****** ****** ****** ****** ****** ****** ****** ****** ****** ******
      ****** ****** ****** ****** ****** ****** ****** ****** ****** ******
      ****** ****** ****** ****** ****** ****** ****** ****** ****** ******
  15  ****** ****** ****** ****** ****** ****** ****** ****** ****** ******
      ****** ****** ****** ****** ****** ****** ****** ****** ****** ******
      ****** ****** ****** ****** ****** ****** ****** ****** ****** ******
  16  ****** ****** ****** ****** ****** ****** ****** ****** ****** ******
      ****** ****** ****** ****** ****** ****** ****** ****** ****** ******
      ****** ****** ****** ****** ****** ****** ****** ****** ****** ******
  17  ****** ****** ****** ****** ****** ****** ****** ****** ****** ******
      ****** ****** ****** ****** ****** ****** ****** ****** ****** ******
      ****** ****** ****** ****** ****** ****** ****** ****** ****** ******
  18  ****** ****** ****** ****** ****** ****** ****** ****** ****** ******
      ****** ****** ****** ****** ****** ****** ****** ****** ****** ******
      ****** ****** ****** ****** ****** ****** ****** ****** ****** ******
  19  ****** ****** ****** ****** ****** ****** ****** ****** ****** ******
      ****** ****** ****** ****** ****** ****** ****** ****** ****** ******
      ****** ****** ****** ****** ****** ****** ****** ****** ****** ******
  20  ****** ****** ****** ****** ****** ****** ****** ****** ****** ******
      ****** ****** ****** ****** ****** ****** ****** ****** ****** ******
      ****** ****** ****** ****** ****** ****** ****** ****** ****** ******
  21  ****** ****** ****** ****** ****** ****** ****** ****** ****** ******
      ****** ****** ****** ****** ****** ****** ****** ****** ****** ******
      ****** ****** ****** ****** ****** ****** ****** ****** ****** ******
  22  ****** ****** ****** ****** ****** ****** ****** ****** ****** ******
      ****** ****** ****** ****** ****** ****** ****** ****** ****** ******
      ****** ****** ****** ****** ****** ****** ****** ****** ****** ******
  23  ****** ****** ****** ****** ****** ****** ****** ****** ****** ******
      ****** ****** ****** ****** ****** ****** ****** ****** ****** ******
      ****** ****** ****** ****** ****** ****** ****** ****** ****** ******
  24  ****** ****** ****** ****** ****** ****** ****** ****** ****** ******
      ****** ****** ****** ****** ****** ****** ****** ****** ****** ******
      ****** ****** ****** ****** ****** ****** ****** ****** ****** ******
  25  ****** ****** ****** ****** ****** ****** ****** ****** ****** ******
      ****** ****** ****** ****** ****** ****** ****** ****** ****** ******
      ****** ****** ****** ****** ****** ****** ****** ****** ****** ******

 HEAD WILL BE SAVED ON UNIT   51 AT END OF TIME STEP    1, STRESS PERIOD    7
1
  VOLUMETRIC BUDGET FOR ENTIRE MODEL AT END OF TIME STEP    1, STRESS PERIOD   7
  ------------------------------------------------------------------------------

     CUMULATIVE VOLUMES      L**3       RATES FOR THIS TIME STEP      L**3/T
     ------------------                 ------------------------

           IN:                                      IN:
           ---                                      ---
             STORAGE =    23328493.8498               STORAGE =       12099.6226
       CONSTANT HEAD =    71119790.2592         CONSTANT HEAD =      125197.8265
               WELLS =           0.0000                 WELLS =           0.0000
            RECHARGE =    15097200.0000              RECHARGE =           0.0000
      STREAM LEAKAGE =     7546005.5110        STREAM LEAKAGE =       13898.4006

            TOTAL IN =   117091489.6200              TOTAL IN =      151195.8497

          OUT:                                     OUT:
          ----                                     ----
             STORAGE =      947986.7066               STORAGE =           0.0000
       CONSTANT HEAD =           0.0000         CONSTANT HEAD =           0.0000
               WELLS =    30191108.7957                 WELLS =       47247.4316
            RECHARGE =           0.0000              RECHARGE =           0.0000
      STREAM LEAKAGE =    85952394.8794        STREAM LEAKAGE =      103948.4203

           TOTAL OUT =   117091490.3817             TOTAL OUT =      151195.8519

            IN - OUT =          -0.7617              IN - OUT =      -2.2101E-03

 PERCENT DISCREPANCY =          -0.00     PERCENT DISCREPANCY =          -0.00






         TIME SUMMARY AT END OF TIME STEP    1 IN STRESS PERIOD    7
                    SECONDS     MINUTES      HOURS       DAYS        YEARS
                    -----------------------------------------------------------
   TIME STEP LENGTH 7.86240E+06 1.31040E+05  2184.0      91.000     0.24914    
 STRESS PERIOD TIME 7.86240E+06 1.31040E+05  2184.0      91.000     0.24914    
         TOTAL TIME 5.52096E+07 9.20160E+05  15336.      639.00      1.7495    
1
1
                            STRESS PERIOD NO.    8, LENGTH =   91.00000    
                            -----------------------------------------------

                              NUMBER OF TIME STEPS =     1

                               MULTIPLIER FOR DELT =     1.500

                            INITIAL TIME STEP SIZE =   91.00000    

 WELL NO.  LAYER   ROW   COL   STRESS RATE         
 --------------------------------------------------
      1      1     17     21     -0.3064E+05
      2      1     16     17     -0.1161E+05
      3      1     13     18      -5001.    
      4      1     14     25       0.000    

      4 WELLS

                 RECHARGE =  1.000000E-03

 REUSING STREAM SEGMENT DATA FROM LAST STRESS PERIOD
 
 SOLVING FOR HEAD 


     6 CALLS TO PCG ROUTINE FOR TIME STEP   1 IN STRESS PERIOD    8
    23 TOTAL ITERATIONS

 OUTPUT CONTROL FOR STRESS PERIOD    8   TIME STEP    1
    SAVE BUDGET
    SAVE HEAD FOR ALL LAYERS
    PRINT HEAD FOR ALL LAYERS
 UBDSV2 SAVING "STREAMFLOW OUT  " ON UNIT  50 AT TIME STEP  1, STRESS PERIOD   8



 STREAM LISTING     PERIOD      8   STEP        1

 LAYER ROW COL. STREAM  RCH.  FLOW INTO     FLOW TO   FLOW OUT OF   OVRLND.     DIRECT     STREAM       STREAM     STREAM     STREAM   STREAMBED  STREAMBED
                SEG.NO.  NO.  STRM. RCH.    AQUIFER    STRM. RCH.    RUNOFF     PRECIP       ET          HEAD       DEPTH      WIDTH   CONDCTNC.   GRADIENT

   1   13    1     1     1    1.0000E+05 -2.8652E+03   1.0287E+05  0.000E+00  0.000E+00  0.000E+00  4.84073E+01  1.459E-01  2.000E+01  2.000E+04 -1.433E-01
   1   13    2     1     2    1.0287E+05 -4.7981E+03   1.0766E+05  0.000E+00  0.000E+00  0.000E+00  4.79333E+01  1.492E-01  2.000E+01  2.000E+04 -2.399E-01
   1   14    3     1     3    1.0766E+05 -3.8601E+03   1.1152E+05  0.000E+00  0.000E+00  0.000E+00  4.74596E+01  1.528E-01  2.000E+01  2.000E+04 -1.930E-01
   1   15    4     1     4    1.1152E+05 -3.7597E+03   1.1528E+05  0.000E+00  0.000E+00  0.000E+00  4.69855E+01  1.560E-01  2.000E+01  2.000E+04 -1.880E-01
   1   16    5     1     5    1.1528E+05 -4.0701E+03   1.1935E+05  0.000E+00  0.000E+00  0.000E+00  4.65115E+01  1.592E-01  2.000E+01  2.000E+04 -2.035E-01
   1   16    6     1     6    1.1935E+05 -3.2119E+03   1.2257E+05  0.000E+00  0.000E+00  0.000E+00  4.60371E+01  1.621E-01  2.000E+01  2.000E+04 -1.606E-01
   1   16    7     1     7    1.2257E+05 -3.2657E+03   1.2583E+05  0.000E+00  0.000E+00  0.000E+00  4.55625E+01  1.647E-01  2.000E+01  2.000E+04 -1.633E-01
   1   16    8     1     8    1.2583E+05 -3.2816E+03   1.2911E+05  0.000E+00  0.000E+00  0.000E+00  4.50878E+01  1.673E-01  2.000E+01  2.000E+04 -1.641E-01
   1   16    9     1     9    1.2911E+05 -3.2409E+03   1.3235E+05  0.000E+00  0.000E+00  0.000E+00  4.46131E+01  1.699E-01  2.000E+01  2.000E+04 -1.620E-01
   1   16   10     1    10    1.3235E+05 -3.1350E+03   1.3549E+05  0.000E+00  0.000E+00  0.000E+00  4.41383E+01  1.724E-01  2.000E+01  2.000E+04 -1.568E-01
   1   16   11     1    11    1.3549E+05 -2.9498E+03   1.3844E+05  0.000E+00  0.000E+00  0.000E+00  4.36633E+01  1.747E-01  2.000E+01  2.000E+04 -1.475E-01
   1   16   12     1    12    1.3844E+05 -3.1473E+03   1.4159E+05  0.000E+00  0.000E+00  0.000E+00  4.31884E+01  1.770E-01  2.000E+01  2.000E+04 -1.574E-01
   1   15   13     1    13    1.4159E+05 -2.4623E+03   1.4405E+05  0.000E+00  0.000E+00  0.000E+00  4.27132E+01  1.791E-01  2.000E+01  2.000E+04 -1.231E-01
   1   14   14     1    14    1.4405E+05 -2.1523E+03   1.4620E+05  0.000E+00  0.000E+00  0.000E+00  4.22377E+01  1.809E-01  2.000E+01  2.000E+04 -1.076E-01
   1   13   15     1    15    1.4620E+05 -2.3910E+03   1.4859E+05  0.000E+00  0.000E+00  0.000E+00  4.17621E+01  1.826E-01  2.000E+01  2.000E+04 -1.195E-01
   1   12   16     1    16    1.4859E+05 -4.5050E+03   1.5310E+05  0.000E+00  0.000E+00  0.000E+00  4.12874E+01  1.851E-01  2.000E+01  2.000E+04 -2.253E-01
   1   12   17     1    17    1.5310E+05 -1.9289E+03   1.5503E+05  0.000E+00  0.000E+00  0.000E+00  4.08125E+01  1.875E-01  2.000E+01  2.000E+04 -9.645E-02
   1   12   18     1    18    1.5503E+05 -7.4182E+02   1.5577E+05  0.000E+00  0.000E+00  0.000E+00  4.03362E+01  1.884E-01  2.000E+01  2.000E+04 -3.709E-02
   1   12   19     1    19    1.5577E+05 -3.1047E+03   1.5887E+05  0.000E+00  0.000E+00  0.000E+00  3.98603E+01  1.898E-01  2.000E+01  2.000E+04 -1.552E-01
   1   13   20     1    20    1.5887E+05  2.6240E+01   1.5885E+05  0.000E+00  0.000E+00  0.000E+00  3.93841E+01  1.910E-01  2.000E+01  2.000E+04  1.312E-03
   1   14   21     1    21    1.5885E+05  2.8281E+03   1.5602E+05  0.000E+00  0.000E+00  0.000E+00  3.89058E+01  1.899E-01  2.000E+01  2.000E+04  1.414E-01
   1   14   22     1    22    1.5602E+05  5.7328E+03   1.5028E+05  0.000E+00  0.000E+00  0.000E+00  3.84254E+01  1.868E-01  2.000E+01  2.000E+04  2.866E-01
   1    9   30     2     1    5.0000E+04 -2.7791E+03   5.2779E+04  0.000E+00  0.000E+00  0.000E+00  4.02428E+01  1.178E-01  2.000E+01  2.000E+04 -1.390E-01
   1    9   29     2     2    5.2779E+04 -3.1108E+03   5.5890E+04  0.000E+00  0.000E+00  0.000E+00  3.99968E+01  1.218E-01  2.000E+01  2.000E+04 -1.555E-01
   1    9   28     2     3    5.5890E+04 -3.4912E+03   5.9381E+04  0.000E+00  0.000E+00  0.000E+00  3.97512E+01  1.262E-01  2.000E+01  2.000E+04 -1.746E-01
   1    9   27     2     4    5.9381E+04 -6.2167E+03   6.5598E+04  0.000E+00  0.000E+00  0.000E+00  3.95075E+01  1.325E-01  2.000E+01  2.000E+04 -3.108E-01
   1   10   26     2     5    6.5598E+04 -3.8465E+03   6.9444E+04  0.000E+00  0.000E+00  0.000E+00  3.92638E+01  1.388E-01  2.000E+01  2.000E+04 -1.923E-01
   1   11   25     2     6    6.9444E+04 -2.7976E+03   7.2242E+04  0.000E+00  0.000E+00  0.000E+00  3.90178E+01  1.428E-01  2.000E+01  2.000E+04 -1.399E-01
   1   12   24     2     7    7.2242E+04 -1.9399E+03   7.4182E+04  0.000E+00  0.000E+00  0.000E+00  3.87707E+01  1.457E-01  2.000E+01  2.000E+04 -9.700E-02
   1   13   23     2     8    7.4182E+04 -1.0667E+03   7.5248E+04  0.000E+00  0.000E+00  0.000E+00  3.85224E+01  1.474E-01  2.000E+01  2.000E+04 -5.333E-02
   1   14   22     2     9    7.5248E+04  2.6539E+03   7.2595E+04  0.000E+00  0.000E+00  0.000E+00  3.82715E+01  1.465E-01  2.000E+01  2.000E+04  1.327E-01
   1   14   22     3     1    2.2288E+05 -7.7416E+03   2.3062E+05  0.000E+00  0.000E+00  0.000E+00  3.77517E+01  1.962E-01  2.000E+01  2.000E+04 -3.871E-01
   1   15   23     3     2    2.3062E+05  1.9518E+03   2.2867E+05  0.000E+00  0.000E+00  0.000E+00  3.68643E+01  1.977E-01  2.000E+01  2.000E+04  9.759E-02
   1   15   24     3     3    2.2867E+05 -3.7418E+02   2.2904E+05  0.000E+00  0.000E+00  0.000E+00  3.59750E+01  1.973E-01  2.000E+01  2.000E+04 -1.871E-02
   1   15   25     3     4    2.2904E+05 -1.0167E+03   2.3006E+05  0.000E+00  0.000E+00  0.000E+00  3.50865E+01  1.976E-01  2.000E+01  2.000E+04 -5.084E-02
   1   15   26     3     5    2.3006E+05 -1.8475E+03   2.3191E+05  0.000E+00  0.000E+00  0.000E+00  3.41984E+01  1.984E-01  2.000E+01  2.000E+04 -9.238E-02
   1   16   27     3     6    2.3191E+05 -2.4193E+03   2.3433E+05  0.000E+00  0.000E+00  0.000E+00  3.33106E+01  1.995E-01  2.000E+01  2.000E+04 -1.210E-01
   1   17   28     3     7    2.3433E+05 -3.4052E+03   2.3773E+05  0.000E+00  0.000E+00  0.000E+00  3.24232E+01  2.009E-01  2.000E+01  2.000E+04 -1.703E-01
   1   18   29     3     8    2.3773E+05 -5.2192E+03   2.4295E+05  0.000E+00  0.000E+00  0.000E+00  3.15365E+01  2.031E-01  2.000E+01  2.000E+04 -2.610E-01
   1   18   30     3     9    2.4295E+05 -4.6199E+03   2.4757E+05  0.000E+00  0.000E+00  0.000E+00  3.06501E+01  2.056E-01  2.000E+01  2.000E+04 -2.310E-01



1
              HEAD IN LAYER   1 AT END OF TIME STEP   1 IN STRESS PERIOD    8
  ---------------------------------------------------------------------------

          1      2      3      4      5      6      7      8      9     10
         11     12     13     14     15     16     17     18     19     20
         21     22     23     24     25     26     27     28     29     30
 .........................................................................
   1  ****** ****** ****** ****** ****** ****** ****** ****** ****** ******
      ****** ****** ****** ****** ****** ****** ****** ****** ****** ******
      ****** ****** ****** ****** ****** ****** ****** ****** ****** ******
   2  ****** ****** ****** ****** ****** ****** ****** ****** ****** ******
      ****** ****** ****** ****** ****** ****** ****** ****** ****** ******
      ****** ****** ****** ****** ****** ****** ****** ****** ****** ******
   3  ****** ****** ****** ****** ****** ****** ****** ****** ****** ******
      ****** ****** ****** ****** ****** ****** ****** ****** ****** ******
      ****** ****** ****** ****** ****** ****** ****** ****** ****** ******
   4  ****** ****** ****** ****** ****** ****** ****** ****** ****** ******
      ****** ****** ****** ****** ****** ****** ****** ****** ****** ******
      ****** ****** ****** ****** ****** ****** ****** ****** ****** ******
   5  ****** ****** ****** ****** ****** ****** ****** ****** ****** ******
      ****** ****** ****** ****** ****** ****** ****** ****** ****** ******
      ****** ****** ****** ****** ****** ****** ****** ****** ****** ******
   6  ****** ****** ****** ****** ****** ****** ****** ****** ****** ******
      ****** ****** ****** ****** ****** ****** ****** ****** ****** ******
      ****** ****** ****** ****** ****** ****** ****** ****** ****** ******
   7  ****** ****** ****** ****** ****** ****** ****** ****** ****** ******
      ****** ****** ****** ****** ****** ****** ****** ****** ****** ******
      ****** ****** ****** ****** ****** ****** ****** ****** ****** ******
   8  ****** ****** ****** ****** ****** ****** ****** ****** ****** ******
      ****** ****** ****** ****** ****** ****** ****** ****** ****** ******
      ****** ****** ****** ****** ****** ****** ****** ****** ****** ******
   9  ****** ****** ****** ****** ****** ****** ****** ****** ****** ******
      ****** ****** ****** ****** ****** ****** ****** ****** ****** ******
      ****** ****** ****** ****** ****** ****** ****** ****** ****** ******
  10  ****** ****** ****** ****** ****** ****** ****** ****** ****** ******
      ****** ****** ****** ****** ****** ****** ****** ****** ****** ******
      ****** ****** ****** ****** ****** ****** ****** ****** ****** ******
  11  ****** ****** ****** ****** ****** ****** ****** ****** ****** ******
      ****** ****** ****** ****** ****** ****** ****** ****** ****** ******
      ****** ****** ****** ****** ****** ****** ****** ****** ****** ******
  12  ****** ****** ****** ****** ****** ****** ****** ****** ****** ******
      ****** ****** ****** ****** ****** ****** ****** ****** ****** ******
      ****** ****** ****** ****** ****** ****** ****** ****** ****** ******
  13  ****** ****** ****** ****** ****** ****** ****** ****** ****** ******
      ****** ****** ****** ****** ****** ****** ****** ****** ****** ******
      ****** ****** ****** ****** ****** ****** ****** ****** ****** ******
  14  ****** ****** ****** ****** ****** ****** ****** ****** ****** ******
      ****** ****** ****** ****** ****** ****** ****** ****** ****** ******
      ****** ****** ****** ****** ****** ****** ****** ****** ****** ******
  15  ****** ****** ****** ****** ****** ****** ****** ****** ****** ******
      ****** ****** ****** ****** ****** ****** ****** ****** ****** ******
      ****** ****** ****** ****** ****** ****** ****** ****** ****** ******
  16  ****** ****** ****** ****** ****** ****** ****** ****** ****** ******
      ****** ****** ****** ****** ****** ****** ****** ****** ****** ******
      ****** ****** ****** ****** ****** ****** ****** ****** ****** ******
  17  ****** ****** ****** ****** ****** ****** ****** ****** ****** ******
      ****** ****** ****** ****** ****** ****** ****** ****** ****** ******
      ****** ****** ****** ****** ****** ****** ****** ****** ****** ******
  18  ****** ****** ****** ****** ****** ****** ****** ****** ****** ******
      ****** ****** ****** ****** ****** ****** ****** ****** ****** ******
      ****** ****** ****** ****** ****** ****** ****** ****** ****** ******
  19  ****** ****** ****** ****** ****** ****** ****** ****** ****** ******
      ****** ****** ****** ****** ****** ****** ****** ****** ****** ******
      ****** ****** ****** ****** ****** ****** ****** ****** ****** ******
  20  ****** ****** ****** ****** ****** ****** ****** ****** ****** ******
      ****** ****** ****** ****** ****** ****** ****** ****** ****** ******
      ****** ****** ****** ****** ****** ****** ****** ****** ****** ******
  21  ****** ****** ****** ****** ****** ****** ****** ****** ****** ******
      ****** ****** ****** ****** ****** ****** ****** ****** ****** ******
      ****** ****** ****** ****** ****** ****** ****** ****** ****** ******
  22  ****** ****** ****** ****** ****** ****** ****** ****** ****** ******
      ****** ****** ****** ****** ****** ****** ****** ****** ****** ******
      ****** ****** ****** ****** ****** ****** ****** ****** ****** ******
  23  ****** ****** ****** ****** ****** ****** ****** ****** ****** ******
      ****** ****** ****** ****** ****** ****** ****** ****** ****** ******
      ****** ****** ****** ****** ****** ****** ****** ****** ****** ******
  24  ****** ****** ****** ****** ****** ****** ****** ****** ****** ******
      ****** ****** ****** ****** ****** ****** ****** ****** ****** ******
      ****** ****** ****** ****** ****** ****** ****** ****** ****** ******
  25  ****** ****** ****** ****** ****** ****** ****** ****** ****** ******
      ****** ****** ****** ****** ****** ****** ****** ****** ****** ******
      ****** ****** ****** ****** ****** ****** ****** ****** ****** ******

 HEAD WILL BE SAVED ON UNIT   51 AT END OF TIME STEP    1, STRESS PERIOD    8
1
  VOLUMETRIC BUDGET FOR ENTIRE MODEL AT END OF TIME STEP    1, STRESS PERIOD   8
  ------------------------------------------------------------------------------

     CUMULATIVE VOLUMES      L**3       RATES FOR THIS TIME STEP      L**3/T
     ------------------                 ------------------------

           IN:                                      IN:
           ---                                      ---
             STORAGE =    23328493.8498               STORAGE =           0.0000
       CONSTANT HEAD =    82117457.9833         CONSTANT HEAD =      120853.4915
               WELLS =           0.0000                 WELLS =           0.0000
            RECHARGE =    17608800.0000              RECHARGE =       27600.0000
      STREAM LEAKAGE =     8746554.6500        STREAM LEAKAGE =       13192.8477

            TOTAL IN =   131801306.4831              TOTAL IN =      161646.3392

          OUT:                                     OUT:
          ----                                     ----
             STORAGE =     1278790.5756               STORAGE =        3635.2074
       CONSTANT HEAD =           0.0000         CONSTANT HEAD =           0.0000
               WELLS =    34490625.0717                 WELLS =       47247.4316
            RECHARGE =           0.0000              RECHARGE =           0.0000
      STREAM LEAKAGE =    96031891.5205        STREAM LEAKAGE =      110763.6994

           TOTAL OUT =   131801307.1678             TOTAL OUT =      161646.3383

            IN - OUT =          -0.6846              IN - OUT =       8.4657E-04

 PERCENT DISCREPANCY =          -0.00     PERCENT DISCREPANCY =           0.00






         TIME SUMMARY AT END OF TIME STEP    1 IN STRESS PERIOD    8
                    SECONDS     MINUTES      HOURS       DAYS        YEARS
                    -----------------------------------------------------------
   TIME STEP LENGTH 7.86240E+06 1.31040E+05  2184.0      91.000     0.24914    
 STRESS PERIOD TIME 7.86240E+06 1.31040E+05  2184.0      91.000     0.24914    
         TOTAL TIME 6.30720E+07 1.05120E+06  17520.      730.00      1.9986    
1
1
                            STRESS PERIOD NO.    9, LENGTH =   92.00000    
                            -----------------------------------------------

                              NUMBER OF TIME STEPS =     1

                               MULTIPLIER FOR DELT =     1.500

                            INITIAL TIME STEP SIZE =   92.00000    

 WELL NO.  LAYER   ROW   COL   STRESS RATE         
 --------------------------------------------------
      1      1     17     21     -0.3064E+05
      2      1     16     17     -0.1161E+05
      3      1     13     18      -5001.    
      4      1     14     25       0.000    

      4 WELLS

                 RECHARGE =  5.000000E-04

 REUSING STREAM SEGMENT DATA FROM LAST STRESS PERIOD
 
 SOLVING FOR HEAD 


     6 CALLS TO PCG ROUTINE FOR TIME STEP   1 IN STRESS PERIOD    9
    22 TOTAL ITERATIONS

 OUTPUT CONTROL FOR STRESS PERIOD    9   TIME STEP    1
    SAVE BUDGET
    SAVE HEAD FOR ALL LAYERS
    PRINT HEAD FOR ALL LAYERS
 UBDSV2 SAVING "STREAMFLOW OUT  " ON UNIT  50 AT TIME STEP  1, STRESS PERIOD   9



 STREAM LISTING     PERIOD      9   STEP        1

 LAYER ROW COL. STREAM  RCH.  FLOW INTO     FLOW TO   FLOW OUT OF   OVRLND.     DIRECT     STREAM       STREAM     STREAM     STREAM   STREAMBED  STREAMBED
                SEG.NO.  NO.  STRM. RCH.    AQUIFER    STRM. RCH.    RUNOFF     PRECIP       ET          HEAD       DEPTH      WIDTH   CONDCTNC.   GRADIENT

   1   13    1     1     1    1.0000E+05 -2.7497E+03   1.0275E+05  0.000E+00  0.000E+00  0.000E+00  4.84072E+01  1.458E-01  2.000E+01  2.000E+04 -1.375E-01
   1   13    2     1     2    1.0275E+05 -4.6461E+03   1.0740E+05  0.000E+00  0.000E+00  0.000E+00  4.79331E+01  1.490E-01  2.000E+01  2.000E+04 -2.323E-01
   1   14    3     1     3    1.0740E+05 -3.7059E+03   1.1110E+05  0.000E+00  0.000E+00  0.000E+00  4.74594E+01  1.525E-01  2.000E+01  2.000E+04 -1.853E-01
   1   15    4     1     4    1.1110E+05 -3.6080E+03   1.1471E+05  0.000E+00  0.000E+00  0.000E+00  4.69851E+01  1.556E-01  2.000E+01  2.000E+04 -1.804E-01
   1   16    5     1     5    1.1471E+05 -3.9327E+03   1.1864E+05  0.000E+00  0.000E+00  0.000E+00  4.65109E+01  1.587E-01  2.000E+01  2.000E+04 -1.966E-01
   1   16    6     1     6    1.1864E+05 -3.1015E+03   1.2174E+05  0.000E+00  0.000E+00  0.000E+00  4.60365E+01  1.615E-01  2.000E+01  2.000E+04 -1.551E-01
   1   16    7     1     7    1.2174E+05 -3.1535E+03   1.2490E+05  0.000E+00  0.000E+00  0.000E+00  4.55618E+01  1.640E-01  2.000E+01  2.000E+04 -1.577E-01
   1   16    8     1     8    1.2490E+05 -3.1683E+03   1.2807E+05  0.000E+00  0.000E+00  0.000E+00  4.50870E+01  1.665E-01  2.000E+01  2.000E+04 -1.584E-01
   1   16    9     1     9    1.2807E+05 -3.1277E+03   1.3119E+05  0.000E+00  0.000E+00  0.000E+00  4.46122E+01  1.690E-01  2.000E+01  2.000E+04 -1.564E-01
   1   16   10     1    10    1.3119E+05 -3.0229E+03   1.3422E+05  0.000E+00  0.000E+00  0.000E+00  4.41373E+01  1.714E-01  2.000E+01  2.000E+04 -1.511E-01
   1   16   11     1    11    1.3422E+05 -2.8394E+03   1.3706E+05  0.000E+00  0.000E+00  0.000E+00  4.36623E+01  1.737E-01  2.000E+01  2.000E+04 -1.420E-01
   1   16   12     1    12    1.3706E+05 -3.0078E+03   1.4006E+05  0.000E+00  0.000E+00  0.000E+00  4.31873E+01  1.759E-01  2.000E+01  2.000E+04 -1.504E-01
   1   15   13     1    13    1.4006E+05 -2.3083E+03   1.4237E+05  0.000E+00  0.000E+00  0.000E+00  4.27120E+01  1.779E-01  2.000E+01  2.000E+04 -1.154E-01
   1   14   14     1    14    1.4237E+05 -1.9949E+03   1.4437E+05  0.000E+00  0.000E+00  0.000E+00  4.22364E+01  1.796E-01  2.000E+01  2.000E+04 -9.975E-02
   1   13   15     1    15    1.4437E+05 -2.2357E+03   1.4660E+05  0.000E+00  0.000E+00  0.000E+00  4.17607E+01  1.811E-01  2.000E+01  2.000E+04 -1.118E-01
   1   12   16     1    16    1.4660E+05 -4.3573E+03   1.5096E+05  0.000E+00  0.000E+00  0.000E+00  4.12859E+01  1.836E-01  2.000E+01  2.000E+04 -2.179E-01
   1   12   17     1    17    1.5096E+05 -1.8185E+03   1.5278E+05  0.000E+00  0.000E+00  0.000E+00  4.08109E+01  1.859E-01  2.000E+01  2.000E+04 -9.092E-02
   1   12   18     1    18    1.5278E+05 -6.3341E+02   1.5341E+05  0.000E+00  0.000E+00  0.000E+00  4.03345E+01  1.868E-01  2.000E+01  2.000E+04 -3.167E-02
   1   12   19     1    19    1.5341E+05 -2.9732E+03   1.5638E+05  0.000E+00  0.000E+00  0.000E+00  3.98585E+01  1.881E-01  2.000E+01  2.000E+04 -1.487E-01
   1   13   20     1    20    1.5638E+05  1.5588E+02   1.5623E+05  0.000E+00  0.000E+00  0.000E+00  3.93823E+01  1.891E-01  2.000E+01  2.000E+04  7.794E-03
   1   14   21     1    21    1.5623E+05  2.9459E+03   1.5328E+05  0.000E+00  0.000E+00  0.000E+00  3.89039E+01  1.880E-01  2.000E+01  2.000E+04  1.473E-01
   1   14   22     1    22    1.5328E+05  5.7554E+03   1.4753E+05  0.000E+00  0.000E+00  0.000E+00  3.84234E+01  1.848E-01  2.000E+01  2.000E+04  2.878E-01
   1    9   30     2     1    5.0000E+04 -2.6795E+03   5.2679E+04  0.000E+00  0.000E+00  0.000E+00  4.02427E+01  1.177E-01  2.000E+01  2.000E+04 -1.340E-01
   1    9   29     2     2    5.2679E+04 -3.0120E+03   5.5691E+04  0.000E+00  0.000E+00  0.000E+00  3.99966E+01  1.216E-01  2.000E+01  2.000E+04 -1.506E-01
   1    9   28     2     3    5.5691E+04 -3.3928E+03   5.9084E+04  0.000E+00  0.000E+00  0.000E+00  3.97509E+01  1.259E-01  2.000E+01  2.000E+04 -1.696E-01
   1    9   27     2     4    5.9084E+04 -6.0874E+03   6.5172E+04  0.000E+00  0.000E+00  0.000E+00  3.95070E+01  1.320E-01  2.000E+01  2.000E+04 -3.044E-01
   1   10   26     2     5    6.5172E+04 -3.7106E+03   6.8882E+04  0.000E+00  0.000E+00  0.000E+00  3.92631E+01  1.381E-01  2.000E+01  2.000E+04 -1.855E-01
   1   11   25     2     6    6.8882E+04 -2.6662E+03   7.1548E+04  0.000E+00  0.000E+00  0.000E+00  3.90170E+01  1.420E-01  2.000E+01  2.000E+04 -1.333E-01
   1   12   24     2     7    7.1548E+04 -1.8219E+03   7.3370E+04  0.000E+00  0.000E+00  0.000E+00  3.87698E+01  1.448E-01  2.000E+01  2.000E+04 -9.110E-02
   1   13   23     2     8    7.3370E+04 -9.7235E+02   7.4343E+04  0.000E+00  0.000E+00  0.000E+00  3.85214E+01  1.464E-01  2.000E+01  2.000E+04 -4.862E-02
   1   14   22     2     9    7.4343E+04  2.6948E+03   7.1648E+04  0.000E+00  0.000E+00  0.000E+00  3.82704E+01  1.454E-01  2.000E+01  2.000E+04  1.347E-01
   1   14   22     3     1    2.1918E+05 -7.7173E+03   2.2689E+05  0.000E+00  0.000E+00  0.000E+00  3.77498E+01  1.942E-01  2.000E+01  2.000E+04 -3.859E-01
   1   15   23     3     2    2.2689E+05  2.0616E+03   2.2483E+05  0.000E+00  0.000E+00  0.000E+00  3.68624E+01  1.957E-01  2.000E+01  2.000E+04  1.031E-01
   1   15   24     3     3    2.2483E+05 -2.9245E+02   2.2512E+05  0.000E+00  0.000E+00  0.000E+00  3.59730E+01  1.952E-01  2.000E+01  2.000E+04 -1.462E-02
   1   15   25     3     4    2.2512E+05 -9.3425E+02   2.2606E+05  0.000E+00  0.000E+00  0.000E+00  3.50845E+01  1.956E-01  2.000E+01  2.000E+04 -4.671E-02
   1   15   26     3     5    2.2606E+05 -1.7420E+03   2.2780E+05  0.000E+00  0.000E+00  0.000E+00  3.41963E+01  1.963E-01  2.000E+01  2.000E+04 -8.710E-02
   1   16   27     3     6    2.2780E+05 -2.2892E+03   2.3009E+05  0.000E+00  0.000E+00  0.000E+00  3.33084E+01  1.973E-01  2.000E+01  2.000E+04 -1.145E-01
   1   17   28     3     7    2.3009E+05 -3.2729E+03   2.3336E+05  0.000E+00  0.000E+00  0.000E+00  3.24210E+01  1.987E-01  2.000E+01  2.000E+04 -1.636E-01
   1   18   29     3     8    2.3336E+05 -5.0963E+03   2.3846E+05  0.000E+00  0.000E+00  0.000E+00  3.15342E+01  2.009E-01  2.000E+01  2.000E+04 -2.548E-01
   1   18   30     3     9    2.3846E+05 -4.5257E+03   2.4298E+05  0.000E+00  0.000E+00  0.000E+00  3.06478E+01  2.033E-01  2.000E+01  2.000E+04 -2.263E-01



1
              HEAD IN LAYER   1 AT END OF TIME STEP   1 IN STRESS PERIOD    9
  ---------------------------------------------------------------------------

          1      2      3      4      5      6      7      8      9     10
         11     12     13     14     15     16     17     18     19     20
         21     22     23     24     25     26     27     28     29     30
 .........................................................................
   1  ****** ****** ****** ****** ****** ****** ****** ****** ****** ******
      ****** ****** ****** ****** ****** ****** ****** ****** ****** ******
      ****** ****** ****** ****** ****** ****** ****** ****** ****** ******
   2  ****** ****** ****** ****** ****** ****** ****** ****** ****** ******
      ****** ****** ****** ****** ****** ****** ****** ****** ****** ******
      ****** ****** ****** ****** ****** ****** ****** ****** ****** ******
   3  ****** ****** ****** ****** ****** ****** ****** ****** ****** ******
      ****** ****** ****** ****** ****** ****** ****** ****** ****** ******
      ****** ****** ****** ****** ****** ****** ****** ****** ****** ******
   4  ****** ****** ****** ****** ****** ****** ****** ****** ****** ******
      ****** ****** ****** ****** ****** ****** ****** ****** ****** ******
      ****** ****** ****** ****** ****** ****** ****** ****** ****** ******
   5  ****** ****** ****** ****** ****** ****** ****** ****** ****** ******
      ****** ****** ****** ****** ****** ****** ****** ****** ****** ******
      ****** ****** ****** ****** ****** ****** ****** ****** ****** ******
   6  ****** ****** ****** ****** ****** ****** ****** ****** ****** ******
      ****** ****** ****** ****** ****** ****** ****** ****** ****** ******
      ****** ****** ****** ****** ****** ****** ****** ****** ****** ******
   7  ****** ****** ****** ****** ****** ****** ****** ****** ****** ******
      ****** ****** ****** ****** ****** ****** ****** ****** ****** ******
      ****** ****** ****** ****** ****** ****** ****** ****** ****** ******
   8  ****** ****** ****** ****** ****** ****** ****** ****** ****** ******
      ****** ****** ****** ****** ****** ****** ****** ****** ****** ******
      ****** ****** ****** ****** ****** ****** ****** ****** ****** ******
   9  ****** ****** ****** ****** ****** ****** ****** ****** ****** ******
      ****** ****** ****** ****** ****** ****** ****** ****** ****** ******
      ****** ****** ****** ****** ****** ****** ****** ****** ****** ******
  10  ****** ****** ****** ****** ****** ****** ****** ****** ****** ******
      ****** ****** ****** ****** ****** ****** ****** ****** ****** ******
      ****** ****** ****** ****** ****** ****** ****** ****** ****** ******
  11  ****** ****** ****** ****** ****** ****** ****** ****** ****** ******
      ****** ****** ****** ****** ****** ****** ****** ****** ****** ******
      ****** ****** ****** ****** ****** ****** ****** ****** ****** ******
  12  ****** ****** ****** ****** ****** ****** ****** ****** ****** ******
      ****** ****** ****** ****** ****** ****** ****** ****** ****** ******
      ****** ****** ****** ****** ****** ****** ****** ****** ****** ******
  13  ****** ****** ****** ****** ****** ****** ****** ****** ****** ******
      ****** ****** ****** ****** ****** ****** ****** ****** ****** ******
      ****** ****** ****** ****** ****** ****** ****** ****** ****** ******
  14  ****** ****** ****** ****** ****** ****** ****** ****** ****** ******
      ****** ****** ****** ****** ****** ****** ****** ****** ****** ******
      ****** ****** ****** ****** ****** ****** ****** ****** ****** ******
  15  ****** ****** ****** ****** ****** ****** ****** ****** ****** ******
      ****** ****** ****** ****** ****** ****** ****** ****** ****** ******
      ****** ****** ****** ****** ****** ****** ****** ****** ****** ******
  16  ****** ****** ****** ****** ****** ****** ****** ****** ****** ******
      ****** ****** ****** ****** ****** ****** ****** ****** ****** ******
      ****** ****** ****** ****** ****** ****** ****** ****** ****** ******
  17  ****** ****** ****** ****** ****** ****** ****** ****** ****** ******
      ****** ****** ****** ****** ****** ****** ****** ****** ****** ******
      ****** ****** ****** ****** ****** ****** ****** ****** ****** ******
  18  ****** ****** ****** ****** ****** ****** ****** ****** ****** ******
      ****** ****** ****** ****** ****** ****** ****** ****** ****** ******
      ****** ****** ****** ****** ****** ****** ****** ****** ****** ******
  19  ****** ****** ****** ****** ****** ****** ****** ****** ****** ******
      ****** ****** ****** ****** ****** ****** ****** ****** ****** ******
      ****** ****** ****** ****** ****** ****** ****** ****** ****** ******
  20  ****** ****** ****** ****** ****** ****** ****** ****** ****** ******
      ****** ****** ****** ****** ****** ****** ****** ****** ****** ******
      ****** ****** ****** ****** ****** ****** ****** ****** ****** ******
  21  ****** ****** ****** ****** ****** ****** ****** ****** ****** ******
      ****** ****** ****** ****** ****** ****** ****** ****** ****** ******
      ****** ****** ****** ****** ****** ****** ****** ****** ****** ******
  22  ****** ****** ****** ****** ****** ****** ****** ****** ****** ******
      ****** ****** ****** ****** ****** ****** ****** ****** ****** ******
      ****** ****** ****** ****** ****** ****** ****** ****** ****** ******
  23  ****** ****** ****** ****** ****** ****** ****** ****** ****** ******
      ****** ****** ****** ****** ****** ****** ****** ****** ****** ******
      ****** ****** ****** ****** ****** ****** ****** ****** ****** ******
  24  ****** ****** ****** ****** ****** ****** ****** ****** ****** ******
      ****** ****** ****** ****** ****** ****** ****** ****** ****** ******
      ****** ****** ****** ****** ****** ****** ****** ****** ****** ******
  25  ****** ****** ****** ****** ****** ****** ****** ****** ****** ******
      ****** ****** ****** ****** ****** ****** ****** ****** ****** ******
      ****** ****** ****** ****** ****** ****** ****** ****** ****** ******

 HEAD WILL BE SAVED ON UNIT   51 AT END OF TIME STEP    1, STRESS PERIOD    9
1
  VOLUMETRIC BUDGET FOR ENTIRE MODEL AT END OF TIME STEP    1, STRESS PERIOD   9
  ------------------------------------------------------------------------------

     CUMULATIVE VOLUMES      L**3       RATES FOR THIS TIME STEP      L**3/T
     ------------------                 ------------------------

           IN:                                      IN:
           ---                                      ---
             STORAGE =    23575067.1397               STORAGE =        2680.1445
       CONSTANT HEAD =    93502578.3400         CONSTANT HEAD =      123751.3082
               WELLS =           0.0000                 WELLS =           0.0000
            RECHARGE =    18878400.0000              RECHARGE =       13800.0000
      STREAM LEAKAGE =     9999002.6809        STREAM LEAKAGE =       13613.5656

            TOTAL IN =   145955048.1607              TOTAL IN =      153845.0182

          OUT:                                     OUT:
          ----                                     ----
             STORAGE =     1278790.5756               STORAGE =           0.0000
       CONSTANT HEAD =           0.0000         CONSTANT HEAD =           0.0000
               WELLS =    38837388.7794                 WELLS =       47247.4316
            RECHARGE =           0.0000              RECHARGE =           0.0000
      STREAM LEAKAGE =   105838869.7788        STREAM LEAKAGE =      106597.5898

           TOTAL OUT =   145955049.1338             TOTAL OUT =      153845.0214

            IN - OUT =          -0.9731              IN - OUT =      -3.1357E-03

 PERCENT DISCREPANCY =          -0.00     PERCENT DISCREPANCY =          -0.00






         TIME SUMMARY AT END OF TIME STEP    1 IN STRESS PERIOD    9
                    SECONDS     MINUTES      HOURS       DAYS        YEARS
                    -----------------------------------------------------------
   TIME STEP LENGTH 7.94880E+06 1.32480E+05  2208.0      92.000     0.25188    
 STRESS PERIOD TIME 7.94880E+06 1.32480E+05  2208.0      92.000     0.25188    
         TOTAL TIME 7.10208E+07 1.18368E+06  19728.      822.00      2.2505    
1
1
                            STRESS PERIOD NO.   10, LENGTH =   91.00000    
                            -----------------------------------------------

                              NUMBER OF TIME STEPS =     1

                               MULTIPLIER FOR DELT =     1.500

                            INITIAL TIME STEP SIZE =   91.00000    

 WELL NO.  LAYER   ROW   COL   STRESS RATE         
 --------------------------------------------------
      1      1     17     21     -0.3064E+05
      2      1     16     17     -0.1161E+05
      3      1     13     18      -5001.    
      4      1     14     25       0.000    

      4 WELLS

                 RECHARGE =  2.000000E-03

 REUSING STREAM SEGMENT DATA FROM LAST STRESS PERIOD
 
 SOLVING FOR HEAD 


     7 CALLS TO PCG ROUTINE FOR TIME STEP   1 IN STRESS PERIOD   10
    26 TOTAL ITERATIONS

 OUTPUT CONTROL FOR STRESS PERIOD   10   TIME STEP    1
    SAVE BUDGET
    SAVE HEAD FOR ALL LAYERS
    PRINT HEAD FOR ALL LAYERS
 UBDSV2 SAVING "STREAMFLOW OUT  " ON UNIT  50 AT TIME STEP  1, STRESS PERIOD  10



 STREAM LISTING     PERIOD     10   STEP        1

 LAYER ROW COL. STREAM  RCH.  FLOW INTO     FLOW TO   FLOW OUT OF   OVRLND.     DIRECT     STREAM       STREAM     STREAM     STREAM   STREAMBED  STREAMBED
                SEG.NO.  NO.  STRM. RCH.    AQUIFER    STRM. RCH.    RUNOFF     PRECIP       ET          HEAD       DEPTH      WIDTH   CONDCTNC.   GRADIENT

   1   13    1     1     1    1.0000E+05 -3.1729E+03   1.0317E+05  0.000E+00  0.000E+00  0.000E+00  4.84074E+01  1.460E-01  2.000E+01  2.000E+04 -1.586E-01
   1   13    2     1     2    1.0317E+05 -5.2083E+03   1.0838E+05  0.000E+00  0.000E+00  0.000E+00  4.79337E+01  1.496E-01  2.000E+01  2.000E+04 -2.604E-01
   1   14    3     1     3    1.0838E+05 -4.2726E+03   1.1265E+05  0.000E+00  0.000E+00  0.000E+00  4.74604E+01  1.536E-01  2.000E+01  2.000E+04 -2.136E-01
   1   15    4     1     4    1.1265E+05 -4.1677E+03   1.1682E+05  0.000E+00  0.000E+00  0.000E+00  4.69866E+01  1.571E-01  2.000E+01  2.000E+04 -2.084E-01
   1   16    5     1     5    1.1682E+05 -4.4478E+03   1.2127E+05  0.000E+00  0.000E+00  0.000E+00  4.65129E+01  1.606E-01  2.000E+01  2.000E+04 -2.224E-01
   1   16    6     1     6    1.2127E+05 -3.5090E+03   1.2478E+05  0.000E+00  0.000E+00  0.000E+00  4.60388E+01  1.638E-01  2.000E+01  2.000E+04 -1.754E-01
   1   16    7     1     7    1.2478E+05 -3.5676E+03   1.2835E+05  0.000E+00  0.000E+00  0.000E+00  4.55643E+01  1.666E-01  2.000E+01  2.000E+04 -1.784E-01
   1   16    8     1     8    1.2835E+05 -3.5864E+03   1.3193E+05  0.000E+00  0.000E+00  0.000E+00  4.50899E+01  1.694E-01  2.000E+01  2.000E+04 -1.793E-01
   1   16    9     1     9    1.3193E+05 -3.5457E+03   1.3548E+05  0.000E+00  0.000E+00  0.000E+00  4.46154E+01  1.722E-01  2.000E+01  2.000E+04 -1.773E-01
   1   16   10     1    10    1.3548E+05 -3.4369E+03   1.3891E+05  0.000E+00  0.000E+00  0.000E+00  4.41408E+01  1.749E-01  2.000E+01  2.000E+04 -1.718E-01
   1   16   11     1    11    1.3891E+05 -3.2476E+03   1.4216E+05  0.000E+00  0.000E+00  0.000E+00  4.36661E+01  1.774E-01  2.000E+01  2.000E+04 -1.624E-01
   1   16   12     1    12    1.4216E+05 -3.5325E+03   1.4570E+05  0.000E+00  0.000E+00  0.000E+00  4.31913E+01  1.800E-01  2.000E+01  2.000E+04 -1.766E-01
   1   15   13     1    13    1.4570E+05 -2.8804E+03   1.4858E+05  0.000E+00  0.000E+00  0.000E+00  4.27165E+01  1.824E-01  2.000E+01  2.000E+04 -1.440E-01
   1   14   14     1    14    1.4858E+05 -2.5785E+03   1.5115E+05  0.000E+00  0.000E+00  0.000E+00  4.22412E+01  1.844E-01  2.000E+01  2.000E+04 -1.289E-01
   1   13   15     1    15    1.5115E+05 -2.8104E+03   1.5396E+05  0.000E+00  0.000E+00  0.000E+00  4.17659E+01  1.864E-01  2.000E+01  2.000E+04 -1.405E-01
   1   12   16     1    16    1.5396E+05 -4.9096E+03   1.5887E+05  0.000E+00  0.000E+00  0.000E+00  4.12915E+01  1.892E-01  2.000E+01  2.000E+04 -2.455E-01
   1   12   17     1    17    1.5887E+05 -2.2269E+03   1.6110E+05  0.000E+00  0.000E+00  0.000E+00  4.08168E+01  1.918E-01  2.000E+01  2.000E+04 -1.113E-01
   1   12   18     1    18    1.6110E+05 -1.0339E+03   1.6213E+05  0.000E+00  0.000E+00  0.000E+00  4.03407E+01  1.929E-01  2.000E+01  2.000E+04 -5.169E-02
   1   12   19     1    19    1.6213E+05 -3.4608E+03   1.6560E+05  0.000E+00  0.000E+00  0.000E+00  3.98650E+01  1.945E-01  2.000E+01  2.000E+04 -1.730E-01
   1   13   20     1    20    1.6560E+05 -3.1688E+02   1.6591E+05  0.000E+00  0.000E+00  0.000E+00  3.93891E+01  1.959E-01  2.000E+01  2.000E+04 -1.584E-02
   1   14   21     1    21    1.6591E+05  2.5106E+03   1.6340E+05  0.000E+00  0.000E+00  0.000E+00  3.89110E+01  1.951E-01  2.000E+01  2.000E+04  1.255E-01
   1   14   22     1    22    1.6340E+05  5.6770E+03   1.5772E+05  0.000E+00  0.000E+00  0.000E+00  3.84308E+01  1.922E-01  2.000E+01  2.000E+04  2.839E-01
   1    9   30     2     1    5.0000E+04 -3.0408E+03   5.3041E+04  0.000E+00  0.000E+00  0.000E+00  4.02430E+01  1.180E-01  2.000E+01  2.000E+04 -1.520E-01
   1    9   29     2     2    5.3041E+04 -3.3706E+03   5.6411E+04  0.000E+00  0.000E+00  0.000E+00  3.99973E+01  1.223E-01  2.000E+01  2.000E+04 -1.685E-01
   1    9   28     2     3    5.6411E+04 -3.7499E+03   6.0161E+04  0.000E+00  0.000E+00  0.000E+00  3.97520E+01  1.270E-01  2.000E+01  2.000E+04 -1.875E-01
   1    9   27     2     4    6.0161E+04 -6.5670E+03   6.6728E+04  0.000E+00  0.000E+00  0.000E+00  3.95087E+01  1.337E-01  2.000E+01  2.000E+04 -3.283E-01
   1   10   26     2     5    6.6728E+04 -4.2059E+03   7.0934E+04  0.000E+00  0.000E+00  0.000E+00  3.92654E+01  1.404E-01  2.000E+01  2.000E+04 -2.103E-01
   1   11   25     2     6    7.0934E+04 -3.1402E+03   7.4074E+04  0.000E+00  0.000E+00  0.000E+00  3.90198E+01  1.448E-01  2.000E+01  2.000E+04 -1.570E-01
   1   12   24     2     7    7.4074E+04 -2.2408E+03   7.6315E+04  0.000E+00  0.000E+00  0.000E+00  3.87730E+01  1.480E-01  2.000E+01  2.000E+04 -1.120E-01
   1   13   23     2     8    7.6315E+04 -1.2988E+03   7.7614E+04  0.000E+00  0.000E+00  0.000E+00  3.85251E+01  1.501E-01  2.000E+01  2.000E+04 -6.494E-02
   1   14   22     2     9    7.7614E+04  2.5478E+03   7.5066E+04  0.000E+00  0.000E+00  0.000E+00  3.82744E+01  1.494E-01  2.000E+01  2.000E+04  1.274E-01
   1   14   22     3     1    2.3279E+05 -7.8025E+03   2.4059E+05  0.000E+00  0.000E+00  0.000E+00  3.77568E+01  2.013E-01  2.000E+01  2.000E+04 -3.901E-01
   1   15   23     3     2    2.4059E+05  1.6554E+03   2.3894E+05  0.000E+00  0.000E+00  0.000E+00  3.68695E+01  2.028E-01  2.000E+01  2.000E+04  8.277E-02
   1   15   24     3     3    2.3894E+05 -5.8452E+02   2.3952E+05  0.000E+00  0.000E+00  0.000E+00  3.59804E+01  2.026E-01  2.000E+01  2.000E+04 -2.923E-02
   1   15   25     3     4    2.3952E+05 -1.2261E+03   2.4075E+05  0.000E+00  0.000E+00  0.000E+00  3.50919E+01  2.030E-01  2.000E+01  2.000E+04 -6.130E-02
   1   15   26     3     5    2.4075E+05 -2.1166E+03   2.4287E+05  0.000E+00  0.000E+00  0.000E+00  3.42039E+01  2.039E-01  2.000E+01  2.000E+04 -1.058E-01
   1   16   27     3     6    2.4287E+05 -2.7607E+03   2.4563E+05  0.000E+00  0.000E+00  0.000E+00  3.33162E+01  2.051E-01  2.000E+01  2.000E+04 -1.380E-01
   1   17   28     3     7    2.4563E+05 -3.7546E+03   2.4938E+05  0.000E+00  0.000E+00  0.000E+00  3.24290E+01  2.068E-01  2.000E+01  2.000E+04 -1.877E-01
   1   18   29     3     8    2.4938E+05 -5.5492E+03   2.5493E+05  0.000E+00  0.000E+00  0.000E+00  3.15424E+01  2.091E-01  2.000E+01  2.000E+04 -2.775E-01
   1   18   30     3     9    2.5493E+05 -4.8660E+03   2.5980E+05  0.000E+00  0.000E+00  0.000E+00  3.06561E+01  2.117E-01  2.000E+01  2.000E+04 -2.433E-01



1
              HEAD IN LAYER   1 AT END OF TIME STEP   1 IN STRESS PERIOD   10
  ---------------------------------------------------------------------------

          1      2      3      4      5      6      7      8      9     10
         11     12     13     14     15     16     17     18     19     20
         21     22     23     24     25     26     27     28     29     30
 .........................................................................
   1  ****** ****** ****** ****** ****** ****** ****** ****** ****** ******
      ****** ****** ****** ****** ****** ****** ****** ****** ****** ******
      ****** ****** ****** ****** ****** ****** ****** ****** ****** ******
   2  ****** ****** ****** ****** ****** ****** ****** ****** ****** ******
      ****** ****** ****** ****** ****** ****** ****** ****** ****** ******
      ****** ****** ****** ****** ****** ****** ****** ****** ****** ******
   3  ****** ****** ****** ****** ****** ****** ****** ****** ****** ******
      ****** ****** ****** ****** ****** ****** ****** ****** ****** ******
      ****** ****** ****** ****** ****** ****** ****** ****** ****** ******
   4  ****** ****** ****** ****** ****** ****** ****** ****** ****** ******
      ****** ****** ****** ****** ****** ****** ****** ****** ****** ******
      ****** ****** ****** ****** ****** ****** ****** ****** ****** ******
   5  ****** ****** ****** ****** ****** ****** ****** ****** ****** ******
      ****** ****** ****** ****** ****** ****** ****** ****** ****** ******
      ****** ****** ****** ****** ****** ****** ****** ****** ****** ******
   6  ****** ****** ****** ****** ****** ****** ****** ****** ****** ******
      ****** ****** ****** ****** ****** ****** ****** ****** ****** ******
      ****** ****** ****** ****** ****** ****** ****** ****** ****** ******
   7  ****** ****** ****** ****** ****** ****** ****** ****** ****** ******
      ****** ****** ****** ****** ****** ****** ****** ****** ****** ******
      ****** ****** ****** ****** ****** ****** ****** ****** ****** ******
   8  ****** ****** ****** ****** ****** ****** ****** ****** ****** ******
      ****** ****** ****** ****** ****** ****** ****** ****** ****** ******
      ****** ****** ****** ****** ****** ****** ****** ****** ****** ******
   9  ****** ****** ****** ****** ****** ****** ****** ****** ****** ******
      ****** ****** ****** ****** ****** ****** ****** ****** ****** ******
      ****** ****** ****** ****** ****** ****** ****** ****** ****** ******
  10  ****** ****** ****** ****** ****** ****** ****** ****** ****** ******
      ****** ****** ****** ****** ****** ****** ****** ****** ****** ******
      ****** ****** ****** ****** ****** ****** ****** ****** ****** ******
  11  ****** ****** ****** ****** ****** ****** ****** ****** ****** ******
      ****** ****** ****** ****** ****** ****** ****** ****** ****** ******
      ****** ****** ****** ****** ****** ****** ****** ****** ****** ******
  12  ****** ****** ****** ****** ****** ****** ****** ****** ****** ******
      ****** ****** ****** ****** ****** ****** ****** ****** ****** ******
      ****** ****** ****** ****** ****** ****** ****** ****** ****** ******
  13  ****** ****** ****** ****** ****** ****** ****** ****** ****** ******
      ****** ****** ****** ****** ****** ****** ****** ****** ****** ******
      ****** ****** ****** ****** ****** ****** ****** ****** ****** ******
  14  ****** ****** ****** ****** ****** ****** ****** ****** ****** ******
      ****** ****** ****** ****** ****** ****** ****** ****** ****** ******
      ****** ****** ****** ****** ****** ****** ****** ****** ****** ******
  15  ****** ****** ****** ****** ****** ****** ****** ****** ****** ******
      ****** ****** ****** ****** ****** ****** ****** ****** ****** ******
      ****** ****** ****** ****** ****** ****** ****** ****** ****** ******
  16  ****** ****** ****** ****** ****** ****** ****** ****** ****** ******
      ****** ****** ****** ****** ****** ****** ****** ****** ****** ******
      ****** ****** ****** ****** ****** ****** ****** ****** ****** ******
  17  ****** ****** ****** ****** ****** ****** ****** ****** ****** ******
      ****** ****** ****** ****** ****** ****** ****** ****** ****** ******
      ****** ****** ****** ****** ****** ****** ****** ****** ****** ******
  18  ****** ****** ****** ****** ****** ****** ****** ****** ****** ******
      ****** ****** ****** ****** ****** ****** ****** ****** ****** ******
      ****** ****** ****** ****** ****** ****** ****** ****** ****** ******
  19  ****** ****** ****** ****** ****** ****** ****** ****** ****** ******
      ****** ****** ****** ****** ****** ****** ****** ****** ****** ******
      ****** ****** ****** ****** ****** ****** ****** ****** ****** ******
  20  ****** ****** ****** ****** ****** ****** ****** ****** ****** ******
      ****** ****** ****** ****** ****** ****** ****** ****** ****** ******
      ****** ****** ****** ****** ****** ****** ****** ****** ****** ******
  21  ****** ****** ****** ****** ****** ****** ****** ****** ****** ******
      ****** ****** ****** ****** ****** ****** ****** ****** ****** ******
      ****** ****** ****** ****** ****** ****** ****** ****** ****** ******
  22  ****** ****** ****** ****** ****** ****** ****** ****** ****** ******
      ****** ****** ****** ****** ****** ****** ****** ****** ****** ******
      ****** ****** ****** ****** ****** ****** ****** ****** ****** ******
  23  ****** ****** ****** ****** ****** ****** ****** ****** ****** ******
      ****** ****** ****** ****** ****** ****** ****** ****** ****** ******
      ****** ****** ****** ****** ****** ****** ****** ****** ****** ******
  24  ****** ****** ****** ****** ****** ****** ****** ****** ****** ******
      ****** ****** ****** ****** ****** ****** ****** ****** ****** ******
      ****** ****** ****** ****** ****** ****** ****** ****** ****** ******
  25  ****** ****** ****** ****** ****** ****** ****** ****** ****** ******
      ****** ****** ****** ****** ****** ****** ****** ****** ****** ******
      ****** ****** ****** ****** ****** ****** ****** ****** ****** ******

 HEAD WILL BE SAVED ON UNIT   51 AT END OF TIME STEP    1, STRESS PERIOD   10
1
  VOLUMETRIC BUDGET FOR ENTIRE MODEL AT END OF TIME STEP    1, STRESS PERIOD  10
  ------------------------------------------------------------------------------

     CUMULATIVE VOLUMES      L**3       RATES FOR THIS TIME STEP      L**3/T
     ------------------                 ------------------------

           IN:                                      IN:
           ---                                      ---
             STORAGE =    23575067.1397               STORAGE =           0.0000
       CONSTANT HEAD =   103749378.7124         CONSTANT HEAD =      112602.2019
               WELLS =           0.0000                 WELLS =           0.0000
            RECHARGE =    23901600.0000              RECHARGE =       55200.0000
      STREAM LEAKAGE =    11126561.9879        STREAM LEAKAGE =       12390.7616

            TOTAL IN =   162352607.8399              TOTAL IN =      180192.9635

          OUT:                                     OUT:
          ----                                     ----
             STORAGE =     2257855.7104               STORAGE =       10758.9575
       CONSTANT HEAD =           0.0000         CONSTANT HEAD =           0.0000
               WELLS =    43136905.0555                 WELLS =       47247.4316
            RECHARGE =           0.0000              RECHARGE =           0.0000
      STREAM LEAKAGE =   116957847.8863        STREAM LEAKAGE =      122186.5726

           TOTAL OUT =   162352608.6522             TOTAL OUT =      180192.9617

            IN - OUT =          -0.8123              IN - OUT =       1.7680E-03

 PERCENT DISCREPANCY =          -0.00     PERCENT DISCREPANCY =           0.00






         TIME SUMMARY AT END OF TIME STEP    1 IN STRESS PERIOD   10
                    SECONDS     MINUTES      HOURS       DAYS        YEARS
                    -----------------------------------------------------------
   TIME STEP LENGTH 7.86240E+06 1.31040E+05  2184.0      91.000     0.24914    
 STRESS PERIOD TIME 7.86240E+06 1.31040E+05  2184.0      91.000     0.24914    
         TOTAL TIME 7.88832E+07 1.31472E+06  21912.      913.00      2.4997    
1
1
                            STRESS PERIOD NO.   11, LENGTH =   91.00000    
                            -----------------------------------------------

                              NUMBER OF TIME STEPS =     1

                               MULTIPLIER FOR DELT =     1.500

                            INITIAL TIME STEP SIZE =   91.00000    

 WELL NO.  LAYER   ROW   COL   STRESS RATE         
 --------------------------------------------------
      1      1     17     21     -0.3064E+05
      2      1     16     17     -0.1161E+05
      3      1     13     18      -5001.    
      4      1     14     25       0.000    

      4 WELLS

                 RECHARGE =   0.00000    

 REUSING STREAM SEGMENT DATA FROM LAST STRESS PERIOD
 
 SOLVING FOR HEAD 


     7 CALLS TO PCG ROUTINE FOR TIME STEP   1 IN STRESS PERIOD   11
    26 TOTAL ITERATIONS

 OUTPUT CONTROL FOR STRESS PERIOD   11   TIME STEP    1
    SAVE BUDGET
    SAVE HEAD FOR ALL LAYERS
    PRINT HEAD FOR ALL LAYERS
 UBDSV2 SAVING "STREAMFLOW OUT  " ON UNIT  50 AT TIME STEP  1, STRESS PERIOD  11



 STREAM LISTING     PERIOD     11   STEP        1

 LAYER ROW COL. STREAM  RCH.  FLOW INTO     FLOW TO   FLOW OUT OF   OVRLND.     DIRECT     STREAM       STREAM     STREAM     STREAM   STREAMBED  STREAMBED
                SEG.NO.  NO.  STRM. RCH.    AQUIFER    STRM. RCH.    RUNOFF     PRECIP       ET          HEAD       DEPTH      WIDTH   CONDCTNC.   GRADIENT

   1   13    1     1     1    1.0000E+05 -2.6887E+03   1.0269E+05  0.000E+00  0.000E+00  0.000E+00  4.84072E+01  1.458E-01  2.000E+01  2.000E+04 -1.344E-01
   1   13    2     1     2    1.0269E+05 -4.5753E+03   1.0726E+05  0.000E+00  0.000E+00  0.000E+00  4.79330E+01  1.489E-01  2.000E+01  2.000E+04 -2.288E-01
   1   14    3     1     3    1.0726E+05 -3.6178E+03   1.1088E+05  0.000E+00  0.000E+00  0.000E+00  4.74592E+01  1.524E-01  2.000E+01  2.000E+04 -1.809E-01
   1   15    4     1     4    1.1088E+05 -3.5161E+03   1.1440E+05  0.000E+00  0.000E+00  0.000E+00  4.69849E+01  1.554E-01  2.000E+01  2.000E+04 -1.758E-01
   1   16    5     1     5    1.1440E+05 -3.8462E+03   1.1824E+05  0.000E+00  0.000E+00  0.000E+00  4.65107E+01  1.584E-01  2.000E+01  2.000E+04 -1.923E-01
   1   16    6     1     6    1.1824E+05 -3.0331E+03   1.2128E+05  0.000E+00  0.000E+00  0.000E+00  4.60362E+01  1.612E-01  2.000E+01  2.000E+04 -1.517E-01
   1   16    7     1     7    1.2128E+05 -3.0849E+03   1.2436E+05  0.000E+00  0.000E+00  0.000E+00  4.55614E+01  1.636E-01  2.000E+01  2.000E+04 -1.542E-01
   1   16    8     1     8    1.2436E+05 -3.0997E+03   1.2746E+05  0.000E+00  0.000E+00  0.000E+00  4.50866E+01  1.661E-01  2.000E+01  2.000E+04 -1.550E-01
   1   16    9     1     9    1.2746E+05 -3.0591E+03   1.3052E+05  0.000E+00  0.000E+00  0.000E+00  4.46117E+01  1.685E-01  2.000E+01  2.000E+04 -1.530E-01
   1   16   10     1    10    1.3052E+05 -2.9545E+03   1.3348E+05  0.000E+00  0.000E+00  0.000E+00  4.41368E+01  1.709E-01  2.000E+01  2.000E+04 -1.477E-01
   1   16   11     1    11    1.3348E+05 -2.7714E+03   1.3625E+05  0.000E+00  0.000E+00  0.000E+00  4.36617E+01  1.731E-01  2.000E+01  2.000E+04 -1.386E-01
   1   16   12     1    12    1.3625E+05 -2.9229E+03   1.3917E+05  0.000E+00  0.000E+00  0.000E+00  4.31866E+01  1.753E-01  2.000E+01  2.000E+04 -1.461E-01
   1   15   13     1    13    1.3917E+05 -2.2166E+03   1.4139E+05  0.000E+00  0.000E+00  0.000E+00  4.27113E+01  1.772E-01  2.000E+01  2.000E+04 -1.108E-01
   1   14   14     1    14    1.4139E+05 -1.9036E+03   1.4329E+05  0.000E+00  0.000E+00  0.000E+00  4.22356E+01  1.788E-01  2.000E+01  2.000E+04 -9.518E-02
   1   13   15     1    15    1.4329E+05 -2.1475E+03   1.4544E+05  0.000E+00  0.000E+00  0.000E+00  4.17598E+01  1.803E-01  2.000E+01  2.000E+04 -1.074E-01
   1   12   16     1    16    1.4544E+05 -4.2821E+03   1.4972E+05  0.000E+00  0.000E+00  0.000E+00  4.12850E+01  1.827E-01  2.000E+01  2.000E+04 -2.141E-01
   1   12   17     1    17    1.4972E+05 -1.7534E+03   1.5147E+05  0.000E+00  0.000E+00  0.000E+00  4.08099E+01  1.849E-01  2.000E+01  2.000E+04 -8.767E-02
   1   12   18     1    18    1.5147E+05 -5.6710E+02   1.5204E+05  0.000E+00  0.000E+00  0.000E+00  4.03335E+01  1.858E-01  2.000E+01  2.000E+04 -2.835E-02
   1   12   19     1    19    1.5204E+05 -2.8917E+03   1.5493E+05  0.000E+00  0.000E+00  0.000E+00  3.98575E+01  1.871E-01  2.000E+01  2.000E+04 -1.446E-01
   1   13   20     1    20    1.5493E+05  2.4608E+02   1.5469E+05  0.000E+00  0.000E+00  0.000E+00  3.93812E+01  1.880E-01  2.000E+01  2.000E+04  1.230E-02
   1   14   21     1    21    1.5469E+05  3.0257E+03   1.5166E+05  0.000E+00  0.000E+00  0.000E+00  3.89027E+01  1.868E-01  2.000E+01  2.000E+04  1.513E-01
   1   14   22     1    22    1.5166E+05  5.7756E+03   1.4588E+05  0.000E+00  0.000E+00  0.000E+00  3.84222E+01  1.836E-01  2.000E+01  2.000E+04  2.888E-01
   1    9   30     2     1    5.0000E+04 -2.5994E+03   5.2599E+04  0.000E+00  0.000E+00  0.000E+00  4.02427E+01  1.177E-01  2.000E+01  2.000E+04 -1.300E-01
   1    9   29     2     2    5.2599E+04 -2.9329E+03   5.5532E+04  0.000E+00  0.000E+00  0.000E+00  3.99964E+01  1.214E-01  2.000E+01  2.000E+04 -1.466E-01
   1    9   28     2     3    5.5532E+04 -3.3157E+03   5.8848E+04  0.000E+00  0.000E+00  0.000E+00  3.97506E+01  1.256E-01  2.000E+01  2.000E+04 -1.658E-01
   1    9   27     2     4    5.8848E+04 -5.9953E+03   6.4843E+04  0.000E+00  0.000E+00  0.000E+00  3.95066E+01  1.316E-01  2.000E+01  2.000E+04 -2.998E-01
   1   10   26     2     5    6.4843E+04 -3.6082E+03   6.8452E+04  0.000E+00  0.000E+00  0.000E+00  3.92627E+01  1.377E-01  2.000E+01  2.000E+04 -1.804E-01
   1   11   25     2     6    6.8452E+04 -2.5658E+03   7.1017E+04  0.000E+00  0.000E+00  0.000E+00  3.90165E+01  1.415E-01  2.000E+01  2.000E+04 -1.283E-01
   1   12   24     2     7    7.1017E+04 -1.7295E+03   7.2747E+04  0.000E+00  0.000E+00  0.000E+00  3.87691E+01  1.441E-01  2.000E+01  2.000E+04 -8.647E-02
   1   13   23     2     8    7.2747E+04 -8.9571E+02   7.3642E+04  0.000E+00  0.000E+00  0.000E+00  3.85206E+01  1.456E-01  2.000E+01  2.000E+04 -4.479E-02
   1   14   22     2     9    7.3642E+04  2.7220E+03   7.0920E+04  0.000E+00  0.000E+00  0.000E+00  3.82695E+01  1.445E-01  2.000E+01  2.000E+04  1.361E-01
   1   14   22     3     1    2.1680E+05 -7.6979E+03   2.2450E+05  0.000E+00  0.000E+00  0.000E+00  3.77485E+01  1.930E-01  2.000E+01  2.000E+04 -3.849E-01
   1   15   23     3     2    2.2450E+05  2.1370E+03   2.2237E+05  0.000E+00  0.000E+00  0.000E+00  3.68611E+01  1.944E-01  2.000E+01  2.000E+04  1.068E-01
   1   15   24     3     3    2.2237E+05 -2.2949E+02   2.2260E+05  0.000E+00  0.000E+00  0.000E+00  3.59717E+01  1.939E-01  2.000E+01  2.000E+04 -1.147E-02
   1   15   25     3     4    2.2260E+05 -8.6738E+02   2.2346E+05  0.000E+00  0.000E+00  0.000E+00  3.50831E+01  1.942E-01  2.000E+01  2.000E+04 -4.337E-02
   1   15   26     3     5    2.2346E+05 -1.6524E+03   2.2511E+05  0.000E+00  0.000E+00  0.000E+00  3.41949E+01  1.949E-01  2.000E+01  2.000E+04 -8.262E-02
   1   16   27     3     6    2.2511E+05 -2.1846E+03   2.2730E+05  0.000E+00  0.000E+00  0.000E+00  3.33070E+01  1.959E-01  2.000E+01  2.000E+04 -1.092E-01
   1   17   28     3     7    2.2730E+05 -3.1680E+03   2.3047E+05  0.000E+00  0.000E+00  0.000E+00  3.24195E+01  1.973E-01  2.000E+01  2.000E+04 -1.584E-01
   1   18   29     3     8    2.3047E+05 -5.0023E+03   2.3547E+05  0.000E+00  0.000E+00  0.000E+00  3.15327E+01  1.994E-01  2.000E+01  2.000E+04 -2.501E-01
   1   18   30     3     9    2.3547E+05 -4.4490E+03   2.3992E+05  0.000E+00  0.000E+00  0.000E+00  3.06462E+01  2.018E-01  2.000E+01  2.000E+04 -2.224E-01



1
              HEAD IN LAYER   1 AT END OF TIME STEP   1 IN STRESS PERIOD   11
  ---------------------------------------------------------------------------

          1      2      3      4      5      6      7      8      9     10
         11     12     13     14     15     16     17     18     19     20
         21     22     23     24     25     26     27     28     29     30
 .........................................................................
   1  ****** ****** ****** ****** ****** ****** ****** ****** ****** ******
      ****** ****** ****** ****** ****** ****** ****** ****** ****** ******
      ****** ****** ****** ****** ****** ****** ****** ****** ****** ******
   2  ****** ****** ****** ****** ****** ****** ****** ****** ****** ******
      ****** ****** ****** ****** ****** ****** ****** ****** ****** ******
      ****** ****** ****** ****** ****** ****** ****** ****** ****** ******
   3  ****** ****** ****** ****** ****** ****** ****** ****** ****** ******
      ****** ****** ****** ****** ****** ****** ****** ****** ****** ******
      ****** ****** ****** ****** ****** ****** ****** ****** ****** ******
   4  ****** ****** ****** ****** ****** ****** ****** ****** ****** ******
      ****** ****** ****** ****** ****** ****** ****** ****** ****** ******
      ****** ****** ****** ****** ****** ****** ****** ****** ****** ******
   5  ****** ****** ****** ****** ****** ****** ****** ****** ****** ******
      ****** ****** ****** ****** ****** ****** ****** ****** ****** ******
      ****** ****** ****** ****** ****** ****** ****** ****** ****** ******
   6  ****** ****** ****** ****** ****** ****** ****** ****** ****** ******
      ****** ****** ****** ****** ****** ****** ****** ****** ****** ******
      ****** ****** ****** ****** ****** ****** ****** ****** ****** ******
   7  ****** ****** ****** ****** ****** ****** ****** ****** ****** ******
      ****** ****** ****** ****** ****** ****** ****** ****** ****** ******
      ****** ****** ****** ****** ****** ****** ****** ****** ****** ******
   8  ****** ****** ****** ****** ****** ****** ****** ****** ****** ******
      ****** ****** ****** ****** ****** ****** ****** ****** ****** ******
      ****** ****** ****** ****** ****** ****** ****** ****** ****** ******
   9  ****** ****** ****** ****** ****** ****** ****** ****** ****** ******
      ****** ****** ****** ****** ****** ****** ****** ****** ****** ******
      ****** ****** ****** ****** ****** ****** ****** ****** ****** ******
  10  ****** ****** ****** ****** ****** ****** ****** ****** ****** ******
      ****** ****** ****** ****** ****** ****** ****** ****** ****** ******
      ****** ****** ****** ****** ****** ****** ****** ****** ****** ******
  11  ****** ****** ****** ****** ****** ****** ****** ****** ****** ******
      ****** ****** ****** ****** ****** ****** ****** ****** ****** ******
      ****** ****** ****** ****** ****** ****** ****** ****** ****** ******
  12  ****** ****** ****** ****** ****** ****** ****** ****** ****** ******
      ****** ****** ****** ****** ****** ****** ****** ****** ****** ******
      ****** ****** ****** ****** ****** ****** ****** ****** ****** ******
  13  ****** ****** ****** ****** ****** ****** ****** ****** ****** ******
      ****** ****** ****** ****** ****** ****** ****** ****** ****** ******
      ****** ****** ****** ****** ****** ****** ****** ****** ****** ******
  14  ****** ****** ****** ****** ****** ****** ****** ****** ****** ******
      ****** ****** ****** ****** ****** ****** ****** ****** ****** ******
      ****** ****** ****** ****** ****** ****** ****** ****** ****** ******
  15  ****** ****** ****** ****** ****** ****** ****** ****** ****** ******
      ****** ****** ****** ****** ****** ****** ****** ****** ****** ******
      ****** ****** ****** ****** ****** ****** ****** ****** ****** ******
  16  ****** ****** ****** ****** ****** ****** ****** ****** ****** ******
      ****** ****** ****** ****** ****** ****** ****** ****** ****** ******
      ****** ****** ****** ****** ****** ****** ****** ****** ****** ******
  17  ****** ****** ****** ****** ****** ****** ****** ****** ****** ******
      ****** ****** ****** ****** ****** ****** ****** ****** ****** ******
      ****** ****** ****** ****** ****** ****** ****** ****** ****** ******
  18  ****** ****** ****** ****** ****** ****** ****** ****** ****** ******
      ****** ****** ****** ****** ****** ****** ****** ****** ****** ******
      ****** ****** ****** ****** ****** ****** ****** ****** ****** ******
  19  ****** ****** ****** ****** ****** ****** ****** ****** ****** ******
      ****** ****** ****** ****** ****** ****** ****** ****** ****** ******
      ****** ****** ****** ****** ****** ****** ****** ****** ****** ******
  20  ****** ****** ****** ****** ****** ****** ****** ****** ****** ******
      ****** ****** ****** ****** ****** ****** ****** ****** ****** ******
      ****** ****** ****** ****** ****** ****** ****** ****** ****** ******
  21  ****** ****** ****** ****** ****** ****** ****** ****** ****** ******
      ****** ****** ****** ****** ****** ****** ****** ****** ****** ******
      ****** ****** ****** ****** ****** ****** ****** ****** ****** ******
  22  ****** ****** ****** ****** ****** ****** ****** ****** ****** ******
      ****** ****** ****** ****** ****** ****** ****** ****** ****** ******
      ****** ****** ****** ****** ****** ****** ****** ****** ****** ******
  23  ****** ****** ****** ****** ****** ****** ****** ****** ****** ******
      ****** ****** ****** ****** ****** ****** ****** ****** ****** ******
      ****** ****** ****** ****** ****** ****** ****** ****** ****** ******
  24  ****** ****** ****** ****** ****** ****** ****** ****** ****** ******
      ****** ****** ****** ****** ****** ****** ****** ****** ****** ******
      ****** ****** ****** ****** ****** ****** ****** ****** ****** ******
  25  ****** ****** ****** ****** ****** ****** ****** ****** ****** ******
      ****** ****** ****** ****** ****** ****** ****** ****** ****** ******
      ****** ****** ****** ****** ****** ****** ****** ****** ****** ******

 HEAD WILL BE SAVED ON UNIT   51 AT END OF TIME STEP    1, STRESS PERIOD   11
1
  VOLUMETRIC BUDGET FOR ENTIRE MODEL AT END OF TIME STEP    1, STRESS PERIOD  11
  ------------------------------------------------------------------------------

     CUMULATIVE VOLUMES      L**3       RATES FOR THIS TIME STEP      L**3/T
     ------------------                 ------------------------

           IN:                                      IN:
           ---                                      ---
             STORAGE =    24653388.4832               STORAGE =       11849.6851
       CONSTANT HEAD =   115153175.9019         CONSTANT HEAD =      125316.4526
               WELLS =           0.0000                 WELLS =           0.0000
            RECHARGE =    23901600.0000              RECHARGE =           0.0000
      STREAM LEAKAGE =    12392047.0951        STREAM LEAKAGE =       13906.4297

            TOTAL IN =   176100211.4802              TOTAL IN =      151072.5675

          OUT:                                     OUT:
          ----                                     ----
             STORAGE =     2257855.7104               STORAGE =           0.0000
       CONSTANT HEAD =           0.0000         CONSTANT HEAD =           0.0000
               WELLS =    47436421.3315                 WELLS =       47247.4316
            RECHARGE =           0.0000              RECHARGE =           0.0000
      STREAM LEAKAGE =   126405935.4489        STREAM LEAKAGE =      103825.1381

           TOTAL OUT =   176100212.4909             TOTAL OUT =      151072.5697

            IN - OUT =          -1.0108              IN - OUT =      -2.1816E-03

 PERCENT DISCREPANCY =          -0.00     PERCENT DISCREPANCY =          -0.00






         TIME SUMMARY AT END OF TIME STEP    1 IN STRESS PERIOD   11
                    SECONDS     MINUTES      HOURS       DAYS        YEARS
                    -----------------------------------------------------------
   TIME STEP LENGTH 7.86240E+06 1.31040E+05  2184.0      91.000     0.24914    
 STRESS PERIOD TIME 7.86240E+06 1.31040E+05  2184.0      91.000     0.24914    
         TOTAL TIME 8.67456E+07 1.44576E+06  24096.      1004.0      2.7488    
1
1
                            STRESS PERIOD NO.   12, LENGTH =   91.00000    
                            -----------------------------------------------

                              NUMBER OF TIME STEPS =     1

                               MULTIPLIER FOR DELT =     1.500

                            INITIAL TIME STEP SIZE =   91.00000    

 WELL NO.  LAYER   ROW   COL   STRESS RATE         
 --------------------------------------------------
      1      1     17     21     -0.3064E+05
      2      1     16     17     -0.1161E+05
      3      1     13     18      -5001.    
      4      1     14     25       0.000    

      4 WELLS

                 RECHARGE =  1.000000E-03

 REUSING STREAM SEGMENT DATA FROM LAST STRESS PERIOD
 
 SOLVING FOR HEAD 


     6 CALLS TO PCG ROUTINE FOR TIME STEP   1 IN STRESS PERIOD   12
    23 TOTAL ITERATIONS

 OUTPUT CONTROL FOR STRESS PERIOD   12   TIME STEP    1
    SAVE BUDGET
    SAVE HEAD FOR ALL LAYERS
    PRINT HEAD FOR ALL LAYERS
 UBDSV2 SAVING "STREAMFLOW OUT  " ON UNIT  50 AT TIME STEP  1, STRESS PERIOD  12



 STREAM LISTING     PERIOD     12   STEP        1

 LAYER ROW COL. STREAM  RCH.  FLOW INTO     FLOW TO   FLOW OUT OF   OVRLND.     DIRECT     STREAM       STREAM     STREAM     STREAM   STREAMBED  STREAMBED
                SEG.NO.  NO.  STRM. RCH.    AQUIFER    STRM. RCH.    RUNOFF     PRECIP       ET          HEAD       DEPTH      WIDTH   CONDCTNC.   GRADIENT

   1   13    1     1     1    1.0000E+05 -2.8622E+03   1.0286E+05  0.000E+00  0.000E+00  0.000E+00  4.84073E+01  1.459E-01  2.000E+01  2.000E+04 -1.431E-01
   1   13    2     1     2    1.0286E+05 -4.7933E+03   1.0766E+05  0.000E+00  0.000E+00  0.000E+00  4.79333E+01  1.492E-01  2.000E+01  2.000E+04 -2.397E-01
   1   14    3     1     3    1.0766E+05 -3.8568E+03   1.1151E+05  0.000E+00  0.000E+00  0.000E+00  4.74596E+01  1.528E-01  2.000E+01  2.000E+04 -1.928E-01
   1   15    4     1     4    1.1151E+05 -3.7572E+03   1.1527E+05  0.000E+00  0.000E+00  0.000E+00  4.69855E+01  1.560E-01  2.000E+01  2.000E+04 -1.879E-01
   1   16    5     1     5    1.1527E+05 -4.0687E+03   1.1934E+05  0.000E+00  0.000E+00  0.000E+00  4.65115E+01  1.592E-01  2.000E+01  2.000E+04 -2.034E-01
   1   16    6     1     6    1.1934E+05 -3.2103E+03   1.2255E+05  0.000E+00  0.000E+00  0.000E+00  4.60371E+01  1.621E-01  2.000E+01  2.000E+04 -1.605E-01
   1   16    7     1     7    1.2255E+05 -3.2640E+03   1.2581E+05  0.000E+00  0.000E+00  0.000E+00  4.55625E+01  1.647E-01  2.000E+01  2.000E+04 -1.632E-01
   1   16    8     1     8    1.2581E+05 -3.2798E+03   1.2909E+05  0.000E+00  0.000E+00  0.000E+00  4.50878E+01  1.673E-01  2.000E+01  2.000E+04 -1.640E-01
   1   16    9     1     9    1.2909E+05 -3.2391E+03   1.3233E+05  0.000E+00  0.000E+00  0.000E+00  4.46131E+01  1.699E-01  2.000E+01  2.000E+04 -1.620E-01
   1   16   10     1    10    1.3233E+05 -3.1333E+03   1.3546E+05  0.000E+00  0.000E+00  0.000E+00  4.41383E+01  1.723E-01  2.000E+01  2.000E+04 -1.567E-01
   1   16   11     1    11    1.3546E+05 -2.9483E+03   1.3841E+05  0.000E+00  0.000E+00  0.000E+00  4.36633E+01  1.747E-01  2.000E+01  2.000E+04 -1.474E-01
   1   16   12     1    12    1.3841E+05 -3.1458E+03   1.4156E+05  0.000E+00  0.000E+00  0.000E+00  4.31884E+01  1.770E-01  2.000E+01  2.000E+04 -1.573E-01
   1   15   13     1    13    1.4156E+05 -2.4600E+03   1.4402E+05  0.000E+00  0.000E+00  0.000E+00  4.27132E+01  1.791E-01  2.000E+01  2.000E+04 -1.230E-01
   1   14   14     1    14    1.4402E+05 -2.1496E+03   1.4617E+05  0.000E+00  0.000E+00  0.000E+00  4.22377E+01  1.808E-01  2.000E+01  2.000E+04 -1.075E-01
   1   13   15     1    15    1.4617E+05 -2.3881E+03   1.4856E+05  0.000E+00  0.000E+00  0.000E+00  4.17621E+01  1.825E-01  2.000E+01  2.000E+04 -1.194E-01
   1   12   16     1    16    1.4856E+05 -4.5017E+03   1.5306E+05  0.000E+00  0.000E+00  0.000E+00  4.12874E+01  1.851E-01  2.000E+01  2.000E+04 -2.251E-01
   1   12   17     1    17    1.5306E+05 -1.9272E+03   1.5499E+05  0.000E+00  0.000E+00  0.000E+00  4.08124E+01  1.874E-01  2.000E+01  2.000E+04 -9.636E-02
   1   12   18     1    18    1.5499E+05 -7.4035E+02   1.5573E+05  0.000E+00  0.000E+00  0.000E+00  4.03361E+01  1.884E-01  2.000E+01  2.000E+04 -3.702E-02
   1   12   19     1    19    1.5573E+05 -3.1030E+03   1.5883E+05  0.000E+00  0.000E+00  0.000E+00  3.98603E+01  1.898E-01  2.000E+01  2.000E+04 -1.551E-01
   1   13   20     1    20    1.5883E+05  2.7235E+01   1.5880E+05  0.000E+00  0.000E+00  0.000E+00  3.93841E+01  1.909E-01  2.000E+01  2.000E+04  1.362E-03
   1   14   21     1    21    1.5880E+05  2.8289E+03   1.5597E+05  0.000E+00  0.000E+00  0.000E+00  3.89058E+01  1.899E-01  2.000E+01  2.000E+04  1.414E-01
   1   14   22     1    22    1.5597E+05  5.7327E+03   1.5024E+05  0.000E+00  0.000E+00  0.000E+00  3.84254E+01  1.868E-01  2.000E+01  2.000E+04  2.866E-01
   1    9   30     2     1    5.0000E+04 -2.7788E+03   5.2779E+04  0.000E+00  0.000E+00  0.000E+00  4.02428E+01  1.178E-01  2.000E+01  2.000E+04 -1.389E-01
   1    9   29     2     2    5.2779E+04 -3.1106E+03   5.5889E+04  0.000E+00  0.000E+00  0.000E+00  3.99968E+01  1.218E-01  2.000E+01  2.000E+04 -1.555E-01
   1    9   28     2     3    5.5889E+04 -3.4908E+03   5.9380E+04  0.000E+00  0.000E+00  0.000E+00  3.97512E+01  1.262E-01  2.000E+01  2.000E+04 -1.745E-01
   1    9   27     2     4    5.9380E+04 -6.2159E+03   6.5596E+04  0.000E+00  0.000E+00  0.000E+00  3.95074E+01  1.324E-01  2.000E+01  2.000E+04 -3.108E-01
   1   10   26     2     5    6.5596E+04 -3.8458E+03   6.9442E+04  0.000E+00  0.000E+00  0.000E+00  3.92637E+01  1.387E-01  2.000E+01  2.000E+04 -1.923E-01
   1   11   25     2     6    6.9442E+04 -2.7969E+03   7.2239E+04  0.000E+00  0.000E+00  0.000E+00  3.90178E+01  1.428E-01  2.000E+01  2.000E+04 -1.398E-01
   1   12   24     2     7    7.2239E+04 -1.9393E+03   7.4178E+04  0.000E+00  0.000E+00  0.000E+00  3.87706E+01  1.456E-01  2.000E+01  2.000E+04 -9.696E-02
   1   13   23     2     8    7.4178E+04 -1.0662E+03   7.5244E+04  0.000E+00  0.000E+00  0.000E+00  3.85224E+01  1.474E-01  2.000E+01  2.000E+04 -5.331E-02
   1   14   22     2     9    7.5244E+04  2.6544E+03   7.2590E+04  0.000E+00  0.000E+00  0.000E+00  3.82715E+01  1.465E-01  2.000E+01  2.000E+04  1.327E-01
   1   14   22     3     1    2.2283E+05 -7.7416E+03   2.3057E+05  0.000E+00  0.000E+00  0.000E+00  3.77517E+01  1.961E-01  2.000E+01  2.000E+04 -3.871E-01
   1   15   23     3     2    2.3057E+05  1.9524E+03   2.2862E+05  0.000E+00  0.000E+00  0.000E+00  3.68643E+01  1.976E-01  2.000E+01  2.000E+04  9.762E-02
   1   15   24     3     3    2.2862E+05 -3.7388E+02   2.2899E+05  0.000E+00  0.000E+00  0.000E+00  3.59750E+01  1.972E-01  2.000E+01  2.000E+04 -1.869E-02
   1   15   25     3     4    2.2899E+05 -1.0165E+03   2.3001E+05  0.000E+00  0.000E+00  0.000E+00  3.50865E+01  1.976E-01  2.000E+01  2.000E+04 -5.083E-02
   1   15   26     3     5    2.3001E+05 -1.8474E+03   2.3186E+05  0.000E+00  0.000E+00  0.000E+00  3.41983E+01  1.983E-01  2.000E+01  2.000E+04 -9.237E-02
   1   16   27     3     6    2.3186E+05 -2.4190E+03   2.3428E+05  0.000E+00  0.000E+00  0.000E+00  3.33105E+01  1.994E-01  2.000E+01  2.000E+04 -1.210E-01
   1   17   28     3     7    2.3428E+05 -3.4049E+03   2.3768E+05  0.000E+00  0.000E+00  0.000E+00  3.24231E+01  2.009E-01  2.000E+01  2.000E+04 -1.702E-01
   1   18   29     3     8    2.3768E+05 -5.2189E+03   2.4290E+05  0.000E+00  0.000E+00  0.000E+00  3.15364E+01  2.031E-01  2.000E+01  2.000E+04 -2.609E-01
   1   18   30     3     9    2.4290E+05 -4.6197E+03   2.4752E+05  0.000E+00  0.000E+00  0.000E+00  3.06500E+01  2.056E-01  2.000E+01  2.000E+04 -2.310E-01



1
              HEAD IN LAYER   1 AT END OF TIME STEP   1 IN STRESS PERIOD   12
  ---------------------------------------------------------------------------

          1      2      3      4      5      6      7      8      9     10
         11     12     13     14     15     16     17     18     19     20
         21     22     23     24     25     26     27     28     29     30
 .........................................................................
   1  ****** ****** ****** ****** ****** ****** ****** ****** ****** ******
      ****** ****** ****** ****** ****** ****** ****** ****** ****** ******
      ****** ****** ****** ****** ****** ****** ****** ****** ****** ******
   2  ****** ****** ****** ****** ****** ****** ****** ****** ****** ******
      ****** ****** ****** ****** ****** ****** ****** ****** ****** ******
      ****** ****** ****** ****** ****** ****** ****** ****** ****** ******
   3  ****** ****** ****** ****** ****** ****** ****** ****** ****** ******
      ****** ****** ****** ****** ****** ****** ****** ****** ****** ******
      ****** ****** ****** ****** ****** ****** ****** ****** ****** ******
   4  ****** ****** ****** ****** ****** ****** ****** ****** ****** ******
      ****** ****** ****** ****** ****** ****** ****** ****** ****** ******
      ****** ****** ****** ****** ****** ****** ****** ****** ****** ******
   5  ****** ****** ****** ****** ****** ****** ****** ****** ****** ******
      ****** ****** ****** ****** ****** ****** ****** ****** ****** ******
      ****** ****** ****** ****** ****** ****** ****** ****** ****** ******
   6  ****** ****** ****** ****** ****** ****** ****** ****** ****** ******
      ****** ****** ****** ****** ****** ****** ****** ****** ****** ******
      ****** ****** ****** ****** ****** ****** ****** ****** ****** ******
   7  ****** ****** ****** ****** ****** ****** ****** ****** ****** ******
      ****** ****** ****** ****** ****** ****** ****** ****** ****** ******
      ****** ****** ****** ****** ****** ****** ****** ****** ****** ******
   8  ****** ****** ****** ****** ****** ****** ****** ****** ****** ******
      ****** ****** ****** ****** ****** ****** ****** ****** ****** ******
      ****** ****** ****** ****** ****** ****** ****** ****** ****** ******
   9  ****** ****** ****** ****** ****** ****** ****** ****** ****** ******
      ****** ****** ****** ****** ****** ****** ****** ****** ****** ******
      ****** ****** ****** ****** ****** ****** ****** ****** ****** ******
  10  ****** ****** ****** ****** ****** ****** ****** ****** ****** ******
      ****** ****** ****** ****** ****** ****** ****** ****** ****** ******
      ****** ****** ****** ****** ****** ****** ****** ****** ****** ******
  11  ****** ****** ****** ****** ****** ****** ****** ****** ****** ******
      ****** ****** ****** ****** ****** ****** ****** ****** ****** ******
      ****** ****** ****** ****** ****** ****** ****** ****** ****** ******
  12  ****** ****** ****** ****** ****** ****** ****** ****** ****** ******
      ****** ****** ****** ****** ****** ****** ****** ****** ****** ******
      ****** ****** ****** ****** ****** ****** ****** ****** ****** ******
  13  ****** ****** ****** ****** ****** ****** ****** ****** ****** ******
      ****** ****** ****** ****** ****** ****** ****** ****** ****** ******
      ****** ****** ****** ****** ****** ****** ****** ****** ****** ******
  14  ****** ****** ****** ****** ****** ****** ****** ****** ****** ******
      ****** ****** ****** ****** ****** ****** ****** ****** ****** ******
      ****** ****** ****** ****** ****** ****** ****** ****** ****** ******
  15  ****** ****** ****** ****** ****** ****** ****** ****** ****** ******
      ****** ****** ****** ****** ****** ****** ****** ****** ****** ******
      ****** ****** ****** ****** ****** ****** ****** ****** ****** ******
  16  ****** ****** ****** ****** ****** ****** ****** ****** ****** ******
      ****** ****** ****** ****** ****** ****** ****** ****** ****** ******
      ****** ****** ****** ****** ****** ****** ****** ****** ****** ******
  17  ****** ****** ****** ****** ****** ****** ****** ****** ****** ******
      ****** ****** ****** ****** ****** ****** ****** ****** ****** ******
      ****** ****** ****** ****** ****** ****** ****** ****** ****** ******
  18  ****** ****** ****** ****** ****** ****** ****** ****** ****** ******
      ****** ****** ****** ****** ****** ****** ****** ****** ****** ******
      ****** ****** ****** ****** ****** ****** ****** ****** ****** ******
  19  ****** ****** ****** ****** ****** ****** ****** ****** ****** ******
      ****** ****** ****** ****** ****** ****** ****** ****** ****** ******
      ****** ****** ****** ****** ****** ****** ****** ****** ****** ******
  20  ****** ****** ****** ****** ****** ****** ****** ****** ****** ******
      ****** ****** ****** ****** ****** ****** ****** ****** ****** ******
      ****** ****** ****** ****** ****** ****** ****** ****** ****** ******
  21  ****** ****** ****** ****** ****** ****** ****** ****** ****** ******
      ****** ****** ****** ****** ****** ****** ****** ****** ****** ******
      ****** ****** ****** ****** ****** ****** ****** ****** ****** ******
  22  ****** ****** ****** ****** ****** ****** ****** ****** ****** ******
      ****** ****** ****** ****** ****** ****** ****** ****** ****** ******
      ****** ****** ****** ****** ****** ****** ****** ****** ****** ******
  23  ****** ****** ****** ****** ****** ****** ****** ****** ****** ******
      ****** ****** ****** ****** ****** ****** ****** ****** ****** ******
      ****** ****** ****** ****** ****** ****** ****** ****** ****** ******
  24  ****** ****** ****** ****** ****** ****** ****** ****** ****** ******
      ****** ****** ****** ****** ****** ****** ****** ****** ****** ******
      ****** ****** ****** ****** ****** ****** ****** ****** ****** ******
  25  ****** ****** ****** ****** ****** ****** ****** ****** ****** ******
      ****** ****** ****** ****** ****** ****** ****** ****** ****** ******
      ****** ****** ****** ****** ****** ****** ****** ****** ****** ******

 HEAD WILL BE SAVED ON UNIT   51 AT END OF TIME STEP    1, STRESS PERIOD   12
1
  VOLUMETRIC BUDGET FOR ENTIRE MODEL AT END OF TIME STEP    1, STRESS PERIOD  12
  ------------------------------------------------------------------------------

     CUMULATIVE VOLUMES      L**3       RATES FOR THIS TIME STEP      L**3/T
     ------------------                 ------------------------

           IN:                                      IN:
           ---                                      ---
             STORAGE =    24653388.4832               STORAGE =           0.0000
       CONSTANT HEAD =   126155106.6495         CONSTANT HEAD =      120900.3379
               WELLS =           0.0000                 WELLS =           0.0000
            RECHARGE =    26413200.0000              RECHARGE =       27600.0000
      STREAM LEAKAGE =    13592845.1906        STREAM LEAKAGE =       13195.5835

            TOTAL IN =   190814540.3233              TOTAL IN =      161695.9214

          OUT:                                     OUT:
          ----                                     ----
             STORAGE =     2597624.5471               STORAGE =        3733.7235
       CONSTANT HEAD =           0.0000         CONSTANT HEAD =           0.0000
               WELLS =    51735937.6076                 WELLS =       47247.4316
            RECHARGE =           0.0000              RECHARGE =           0.0000
      STREAM LEAKAGE =   136480979.1010        STREAM LEAKAGE =      110714.7654

           TOTAL OUT =   190814541.2558             TOTAL OUT =      161695.9205

            IN - OUT =          -0.9325              IN - OUT =       8.5981E-04

 PERCENT DISCREPANCY =          -0.00     PERCENT DISCREPANCY =           0.00






         TIME SUMMARY AT END OF TIME STEP    1 IN STRESS PERIOD   12
                    SECONDS     MINUTES      HOURS       DAYS        YEARS
                    -----------------------------------------------------------
   TIME STEP LENGTH 7.86240E+06 1.31040E+05  2184.0      91.000     0.24914    
 STRESS PERIOD TIME 7.86240E+06 1.31040E+05  2184.0      91.000     0.24914    
         TOTAL TIME 9.46080E+07 1.57680E+06  26280.      1095.0      2.9979    
1

 Run end date and time (yyyy/mm/dd hh:mm:ss): 2018/10/10 14:41:44
 Elapsed run time:  0.066 Seconds

