                                  MODFLOW-2005     
      U.S. GEOLOGICAL SURVEY MODULAR FINITE-DIFFERENCE GROUND-WATER FLOW MODEL
                            VERSION 1.11.00 8/8/2013

 LIST FILE: supply2.lst
                         UNIT   10

 OPENING ..\data\supply.dis
 FILE TYPE:DIS   UNIT   11   STATUS:OLD    
 FORMAT:FORMATTED              ACCESS:SEQUENTIAL          

 OPENING ..\data\supply.ba6
 FILE TYPE:BAS6   UNIT   12   STATUS:OLD    
 FORMAT:FORMATTED              ACCESS:SEQUENTIAL          

 OPENING ..\data\supply.bc6
 FILE TYPE:BCF6   UNIT   13   STATUS:OLD    
 FORMAT:FORMATTED              ACCESS:SEQUENTIAL          

 OPENING ..\data\supply.rch
 FILE TYPE:RCH   UNIT   15   STATUS:OLD    
 FORMAT:FORMATTED              ACCESS:SEQUENTIAL          

 OPENING ..\data\supply2.sfr
 FILE TYPE:SFR   UNIT   16   STATUS:OLD    
 FORMAT:FORMATTED              ACCESS:SEQUENTIAL          

 OPENING ..\data\supply.oc
 FILE TYPE:OC   UNIT   17   STATUS:OLD    
 FORMAT:FORMATTED              ACCESS:SEQUENTIAL          

 OPENING ..\data\supply.pcg
 FILE TYPE:PCG   UNIT   18   STATUS:OLD    
 FORMAT:FORMATTED              ACCESS:SEQUENTIAL          

 OPENING supply2.wel
 FILE TYPE:WEL   UNIT   19   STATUS:OLD    
 FORMAT:FORMATTED              ACCESS:SEQUENTIAL          

 OPENING supply2sf.bin
 FILE TYPE:DATA(BINARY)   UNIT   50   STATUS:UNKNOWN
 FORMAT:BINARY                 ACCESS:SEQUENTIAL          

 OPENING supply2hd.bin
 FILE TYPE:DATA(BINARY)   UNIT   51   STATUS:UNKNOWN
 FORMAT:BINARY                 ACCESS:SEQUENTIAL          

 BAS -- BASIC PACKAGE, VERSION 7, 5/2/2005 INPUT READ FROM UNIT   12
 
 MODFLOW was compiled using uniform precision
 Precision of REAL and DOUBLE PRECISION variables:          15

 DISCRETIZATION INPUT DATA READ FROM UNIT   11
    1 LAYERS        25 ROWS        30 COLUMNS
   12 STRESS PERIOD(S) IN SIMULATION
 MODEL TIME UNIT IS DAYS
 MODEL LENGTH UNIT IS UNDEFINED
  Confining bed flag for each layer:
   0

                     DELR =   200.000    

                     DELC =   200.000    

 TOP ELEVATION OF LAYER 1 =  100.0000    

   MODEL LAYER BOTTOM EL. =   0.00000     FOR LAYER   1


 STRESS PERIOD     LENGTH       TIME STEPS     MULTIPLIER FOR DELT    SS FLAG
 ----------------------------------------------------------------------------
        1         92.00000          1                    1.500         TR
        2         91.00000          1                    1.500         TR
        3         91.00000          1                    1.500         TR
        4         91.00000          1                    1.500         TR
        5         92.00000          1                    1.500         TR
        6         91.00000          1                    1.500         TR
        7         91.00000          1                    1.500         TR
        8         91.00000          1                    1.500         TR
        9         92.00000          1                    1.500         TR
       10         91.00000          1                    1.500         TR
       11         91.00000          1                    1.500         TR
       12         91.00000          1                    1.500         TR

 TRANSIENT SIMULATION



 
 #MODOFC transient water supply sample problem                                   
 #                                                                               
 THE FREE FORMAT OPTION HAS BEEN SELECTED



                     BOUNDARY ARRAY FOR LAYER   1
 READING ON UNIT   12 WITH FORMAT: (20I4)              

 AQUIFER HEAD WILL BE SET TO   0.0000     AT ALL NO-FLOW NODES (IBOUND=0).



                       INITIAL HEAD FOR LAYER   1
 READING ON UNIT   12 WITH FORMAT: (10F13.0)           

 OUTPUT CONTROL IS SPECIFIED ONLY AT TIME STEPS FOR WHICH OUTPUT IS DESIRED
 COMPACT CELL-BY-CELL BUDGET FILES WILL BE WRITTEN
 HEAD PRINT FORMAT CODE IS  18    DRAWDOWN PRINT FORMAT CODE IS   0
 HEADS WILL BE SAVED ON UNIT   51    DRAWDOWNS WILL BE SAVED ON UNIT    0

 BCF -- BLOCK-CENTERED FLOW PACKAGE, VERSION 7, 5/2/2005
         INPUT READ FROM UNIT 13
 TRANSIENT SIMULATION
 HEAD AT CELLS THAT CONVERT TO DRY=   0.0000    
 WETTING CAPABILITY IS NOT ACTIVE
      LAYER  LAYER-TYPE CODE     INTERBLOCK T
      --------------------------------------------
         1            0          0 -- HARMONIC    

 COLUMN TO ROW ANISOTROPY =  1.000000    

     PRIMARY STORAGE COEF =  5.000000E-02 FOR LAYER   1

     TRANSMIS. ALONG ROWS =   5000.00     FOR LAYER   1

 WEL -- WELL PACKAGE, VERSION 7, 5/2/2005 INPUT READ FROM UNIT   19
 # Well package input file written by MMProc
 No named parameters
 MAXIMUM OF      7 ACTIVE WELLS AT ONE TIME


     0 Well parameters

 RCH -- RECHARGE PACKAGE, VERSION 7, 5/2/2005 INPUT READ FROM UNIT   15
 No named parameters
 OPTION 1 -- RECHARGE TO TOP LAYER


     0 Recharge parameters

 SFR7 -- STREAMFLOW ROUTING PACKAGE, VERSION 1.0.7, 2013-01-15
         INPUT READ FROM UNIT  16
 #  Supply2 test problem for GWM-VI
 #  The eighth entry in the first data line is ISTCB2 -
 #    Setting this to a negative number indicates that
 #    streamflows out of the reach will be saved to a
 #    binary file.  The absolute value of ISTCB2 is the
 #    unit to which unformatted flows will be written.
 #
 No named parameters
 Segment information will not be 
 read by reach
 No named parameters
 No specifed inflow files


 NUMBER OF STREAM REACHES IS   40

 NUMBER OF STREAM SEGMENTS IS    3

 NUMBER OF STREAM PARAMETERS IS    0

 NUMBER OF STREAM SEGMENTS DEFINED USING PARAMETERS IS              0

 MAXIMUM ERROR FOR STREAM LEAKAGE RATES IS  1.00E-04

 CONSTANT FOR MANNINGS EQUATION IS  1.2839E+05





   STREAM NETWORK DESCRIPTION: 

   LAYER    ROW    COL   SEGMENT   REACH     LENGTH
                          NUMBER   NUMBER    IN CELL        
   --------------------------------------------------
      1     13      1       1        1    2.0000E+02
      1     13      2       1        2    2.0000E+02
      1     14      3       1        3    2.0000E+02
      1     15      4       1        4    2.0000E+02
      1     16      5       1        5    2.0000E+02
      1     16      6       1        6    2.0000E+02
      1     16      7       1        7    2.0000E+02
      1     16      8       1        8    2.0000E+02
      1     16      9       1        9    2.0000E+02
      1     16     10       1       10    2.0000E+02
      1     16     11       1       11    2.0000E+02
      1     16     12       1       12    2.0000E+02
      1     15     13       1       13    2.0000E+02
      1     14     14       1       14    2.0000E+02
      1     13     15       1       15    2.0000E+02
      1     12     16       1       16    2.0000E+02
      1     12     17       1       17    2.0000E+02
      1     12     18       1       18    2.0000E+02
      1     12     19       1       19    2.0000E+02
      1     13     20       1       20    2.0000E+02
      1     14     21       1       21    2.0000E+02
      1     14     22       1       22    2.0000E+02
      1      9     30       2        1    2.0000E+02
      1      9     29       2        2    2.0000E+02
      1      9     28       2        3    2.0000E+02
      1      9     27       2        4    2.0000E+02
      1     10     26       2        5    2.0000E+02
      1     11     25       2        6    2.0000E+02
      1     12     24       2        7    2.0000E+02
      1     13     23       2        8    2.0000E+02
      1     14     22       2        9    2.0000E+02
      1     14     22       3        1    2.0000E+02
      1     15     23       3        2    2.0000E+02
      1     15     24       3        3    2.0000E+02
      1     15     25       3        4    2.0000E+02
      1     15     26       3        5    2.0000E+02
      1     16     27       3        6    2.0000E+02
      1     17     28       3        7    2.0000E+02
      1     18     29       3        8    2.0000E+02
      1     18     30       3        9    2.0000E+02




 PCG -- CONJUGATE-GRADIENT SOLUTION PACKAGE, VERSION 7, 5/2/2005
 MAXIMUM OF    500 CALLS OF SOLUTION ROUTINE
 MAXIMUM OF      5 INTERNAL ITERATIONS PER CALL TO SOLUTION ROUTINE
 MATRIX PRECONDITIONING TYPE :    1



                                    SOLUTION BY THE CONJUGATE-GRADIENT METHOD
                                   -------------------------------------------
                    MAXIMUM NUMBER OF CALLS TO PCG ROUTINE =      500
                        MAXIMUM ITERATIONS PER CALL TO PCG =        5
                               MATRIX PRECONDITIONING TYPE =        1
        RELAXATION FACTOR (ONLY USED WITH PRECOND. TYPE 1) =    0.10000E+01
 PARAMETER OF POLYNOMIAL PRECOND. = 2 (2) OR IS CALCULATED :        0
                         HEAD CHANGE CRITERION FOR CLOSURE =    0.10000E-05
                     RESIDUAL CHANGE CRITERION FOR CLOSURE =    0.10000E+01
            PCG HEAD AND RESIDUAL CHANGE PRINTOUT INTERVAL =        1
     PRINTING FROM SOLVER IS LIMITED(1) OR SUPPRESSED (>1) =        1
                            STEADY-STATE DAMPING PARAMETER =    0.10000E+01
                               TRANSIENT DAMPING PARAMETER =    0.10000E+01
1
                            STRESS PERIOD NO.    1, LENGTH =   92.00000    
                            -----------------------------------------------

                              NUMBER OF TIME STEPS =     1

                               MULTIPLIER FOR DELT =     1.500

                            INITIAL TIME STEP SIZE =   92.00000    

 WELL NO.  LAYER   ROW   COL   STRESS RATE         
 --------------------------------------------------
      1      1     12     11      -3484.    
      2      1     16     17     -0.5000E+05

      2 WELLS

                 RECHARGE =  5.000000E-04



 CLASSIFICATION & COUNT OF STREAM SEGMENTS BASED ON SOURCE OF INFLOW:

                HEADWATER     DIVERSION     RECEIVES TRIBUTARY FLOW
                ---------     ---------     -----------------------
                     2              0               1



                    INPUT DATA FOR EACH STREAM SEGMENT
 ---------------------------------------------------------------------------------------------

 SEGMENT    SEG.     INFLOW   OVERLAND   STREAM    STREAM   ICALC  OUTFLOW  DIVERSION PRIORITY
    NO.    LENGTH     RATE     RUNOFF      ET       PPT.    METH.  TO SEG.  FROM SEG.    NO.

      1  4.400E+03 1.000E+05 0.000E+00 0.000E+00 0.000E+00    1        3        0        0
      2  1.800E+03 5.000E+04 0.000E+00 0.000E+00 0.000E+00    1        3        0        0
      3  1.800E+03 0.000E+00 0.000E+00 0.000E+00 0.000E+00    1        0        0        0


         STREAMBED PROPERTIES AND STREAM DIMENSIONS

 SEGMENT     BED HYD. COND.      BED THICKNESS     ELEV.-TOP OF BED     WIDTH OF STREAM     DEPTH OF STREAM    STREAM ROUGHNESS
    No.     UPPER     LOWER     UPPER     LOWER     UPPER     LOWER     UPPER     LOWER     UPPER     LOWER   CHANNEL      BANK

     1  5.000E+00 5.000E+00 1.000E+00 1.000E+00 4.850E+01 3.800E+01 2.000E+01 2.000E+01                     5.000E-02
     2  5.000E+00 5.000E+00 1.000E+00 1.000E+00 4.025E+01 3.800E+01 2.000E+01 2.000E+01                     5.000E-02
     3  5.000E+00 5.000E+00 1.000E+00 1.000E+00 3.800E+01 3.000E+01 2.000E+01 2.000E+01                     5.000E-02



 
 SOLVING FOR HEAD 


     8 CALLS TO PCG ROUTINE FOR TIME STEP   1 IN STRESS PERIOD    1
    32 TOTAL ITERATIONS

 OUTPUT CONTROL FOR STRESS PERIOD    1   TIME STEP    1
    SAVE BUDGET
    SAVE HEAD FOR ALL LAYERS
    PRINT HEAD FOR ALL LAYERS
 UBDSV2 SAVING "STREAMFLOW OUT  " ON UNIT  50 AT TIME STEP  1, STRESS PERIOD   1



 STREAM LISTING     PERIOD      1   STEP        1

 LAYER ROW COL. STREAM  RCH.  FLOW INTO     FLOW TO   FLOW OUT OF   OVRLND.     DIRECT     STREAM       STREAM     STREAM     STREAM   STREAMBED  STREAMBED
                SEG.NO.  NO.  STRM. RCH.    AQUIFER    STRM. RCH.    RUNOFF     PRECIP       ET          HEAD       DEPTH      WIDTH   CONDCTNC.   GRADIENT

   1   13    1     1     1    1.0000E+05 -3.1612E+04   1.3161E+05  0.000E+00  0.000E+00  0.000E+00  4.84193E+01  1.580E-01  2.000E+01  2.000E+04 -1.581E+00
   1   13    2     1     2    1.3161E+05 -4.2045E+04   1.7366E+05  0.000E+00  0.000E+00  0.000E+00  4.79705E+01  1.864E-01  2.000E+01  2.000E+04 -2.102E+00
   1   14    3     1     3    1.7366E+05 -3.7571E+04   2.1123E+05  0.000E+00  0.000E+00  0.000E+00  4.75211E+01  2.142E-01  2.000E+01  2.000E+04 -1.879E+00
   1   15    4     1     4    2.1123E+05 -3.6610E+04   2.4784E+05  0.000E+00  0.000E+00  0.000E+00  4.70677E+01  2.381E-01  2.000E+01  2.000E+04 -1.830E+00
   1   16    5     1     5    2.4784E+05 -3.7537E+04   2.8538E+05  0.000E+00  0.000E+00  0.000E+00  4.66128E+01  2.605E-01  2.000E+01  2.000E+04 -1.877E+00
   1   16    6     1     6    2.8538E+05 -3.2774E+04   3.1815E+05  0.000E+00  0.000E+00  0.000E+00  4.61556E+01  2.806E-01  2.000E+01  2.000E+04 -1.639E+00
   1   16    7     1     7    3.1815E+05 -3.2521E+04   3.5067E+05  0.000E+00  0.000E+00  0.000E+00  4.56962E+01  2.985E-01  2.000E+01  2.000E+04 -1.626E+00
   1   16    8     1     8    3.5067E+05 -3.2635E+04   3.8331E+05  0.000E+00  0.000E+00  0.000E+00  4.52360E+01  3.156E-01  2.000E+01  2.000E+04 -1.632E+00
   1   16    9     1     9    3.8331E+05 -3.2586E+04   4.1589E+05  0.000E+00  0.000E+00  0.000E+00  4.47753E+01  3.321E-01  2.000E+01  2.000E+04 -1.629E+00
   1   16   10     1    10    4.1589E+05 -3.2395E+04   4.4829E+05  0.000E+00  0.000E+00  0.000E+00  4.43140E+01  3.481E-01  2.000E+01  2.000E+04 -1.620E+00
   1   16   11     1    11    4.4829E+05 -3.2628E+04   4.8091E+05  0.000E+00  0.000E+00  0.000E+00  4.38522E+01  3.636E-01  2.000E+01  2.000E+04 -1.631E+00
   1   16   12     1    12    4.8091E+05 -3.7442E+04   5.1836E+05  0.000E+00  0.000E+00  0.000E+00  4.33911E+01  3.798E-01  2.000E+01  2.000E+04 -1.872E+00
   1   15   13     1    13    5.1836E+05 -3.5728E+04   5.5408E+05  0.000E+00  0.000E+00  0.000E+00  4.29303E+01  3.962E-01  2.000E+01  2.000E+04 -1.786E+00
   1   14   14     1    14    5.5408E+05 -3.5833E+04   5.8992E+05  0.000E+00  0.000E+00  0.000E+00  4.24687E+01  4.119E-01  2.000E+01  2.000E+04 -1.792E+00
   1   13   15     1    15    5.8992E+05 -3.8356E+04   6.2827E+05  0.000E+00  0.000E+00  0.000E+00  4.20072E+01  4.277E-01  2.000E+01  2.000E+04 -1.918E+00
   1   12   16     1    16    6.2827E+05 -4.5705E+04   6.7398E+05  0.000E+00  0.000E+00  0.000E+00  4.15474E+01  4.452E-01  2.000E+01  2.000E+04 -2.285E+00
   1   12   17     1    17    6.7398E+05 -3.5257E+04   7.0924E+05  0.000E+00  0.000E+00  0.000E+00  4.10866E+01  4.616E-01  2.000E+01  2.000E+04 -1.763E+00
   1   12   18     1    18    7.0924E+05 -3.3735E+04   7.4297E+05  0.000E+00  0.000E+00  0.000E+00  4.06230E+01  4.753E-01  2.000E+01  2.000E+04 -1.687E+00
   1   12   19     1    19    7.4297E+05 -3.8678E+04   7.8165E+05  0.000E+00  0.000E+00  0.000E+00  4.01598E+01  4.893E-01  2.000E+01  2.000E+04 -1.934E+00
   1   13   20     1    20    7.8165E+05 -2.7876E+04   8.0952E+05  0.000E+00  0.000E+00  0.000E+00  3.96952E+01  5.020E-01  2.000E+01  2.000E+04 -1.394E+00
   1   14   21     1    21    8.0952E+05 -2.0260E+04   8.2978E+05  0.000E+00  0.000E+00  0.000E+00  3.92270E+01  5.111E-01  2.000E+01  2.000E+04 -1.013E+00
   1   14   22     1    22    8.2978E+05 -2.4770E+03   8.3226E+05  0.000E+00  0.000E+00  0.000E+00  3.87540E+01  5.153E-01  2.000E+01  2.000E+04 -1.239E-01
   1    9   30     2     1    5.0000E+04 -2.9656E+04   7.9656E+04  0.000E+00  0.000E+00  0.000E+00  4.02604E+01  1.354E-01  2.000E+01  2.000E+04 -1.483E+00
   1    9   29     2     2    7.9656E+04 -3.2095E+04   1.1175E+05  0.000E+00  0.000E+00  0.000E+00  4.00461E+01  1.711E-01  2.000E+01  2.000E+04 -1.605E+00
   1    9   28     2     3    1.1175E+05 -3.6415E+04   1.4817E+05  0.000E+00  0.000E+00  0.000E+00  3.98305E+01  2.055E-01  2.000E+01  2.000E+04 -1.821E+00
   1    9   27     2     4    1.4817E+05 -5.1039E+04   1.9921E+05  0.000E+00  0.000E+00  0.000E+00  3.96196E+01  2.446E-01  2.000E+01  2.000E+04 -2.552E+00
   1   10   26     2     5    1.9921E+05 -3.7430E+04   2.3664E+05  0.000E+00  0.000E+00  0.000E+00  3.94053E+01  2.803E-01  2.000E+01  2.000E+04 -1.872E+00
   1   11   25     2     6    2.3664E+05 -2.9008E+04   2.6564E+05  0.000E+00  0.000E+00  0.000E+00  3.91802E+01  3.052E-01  2.000E+01  2.000E+04 -1.450E+00
   1   12   24     2     7    2.6564E+05 -2.1986E+04   2.8763E+05  0.000E+00  0.000E+00  0.000E+00  3.89484E+01  3.234E-01  2.000E+01  2.000E+04 -1.099E+00
   1   13   23     2     8    2.8763E+05 -1.5789E+04   3.0342E+05  0.000E+00  0.000E+00  0.000E+00  3.87115E+01  3.365E-01  2.000E+01  2.000E+04 -7.895E-01
   1   14   22     2     9    3.0342E+05 -8.1651E+03   3.1158E+05  0.000E+00  0.000E+00  0.000E+00  3.84696E+01  3.446E-01  2.000E+01  2.000E+04 -4.083E-01
   1   14   22     3     1    1.1438E+06 -1.6042E+04   1.1599E+06  0.000E+00  0.000E+00  0.000E+00  3.80757E+01  5.202E-01  2.000E+01  2.000E+04 -8.021E-01
   1   15   23     3     2    1.1599E+06 -2.5350E+04   1.1852E+06  0.000E+00  0.000E+00  0.000E+00  3.71924E+01  5.258E-01  2.000E+01  2.000E+04 -1.268E+00
   1   15   24     3     3    1.1852E+06 -2.1746E+04   1.2070E+06  0.000E+00  0.000E+00  0.000E+00  3.63098E+01  5.321E-01  2.000E+01  2.000E+04 -1.087E+00
   1   15   25     3     4    1.2070E+06 -2.1742E+04   1.2287E+06  0.000E+00  0.000E+00  0.000E+00  3.54267E+01  5.378E-01  2.000E+01  2.000E+04 -1.087E+00
   1   15   26     3     5    1.2287E+06 -2.5311E+04   1.2540E+06  0.000E+00  0.000E+00  0.000E+00  3.45441E+01  5.441E-01  2.000E+01  2.000E+04 -1.266E+00
   1   16   27     3     6    1.2540E+06 -3.2957E+04   1.2870E+06  0.000E+00  0.000E+00  0.000E+00  3.36628E+01  5.517E-01  2.000E+01  2.000E+04 -1.648E+00
   1   17   28     3     7    1.2870E+06 -4.0000E+04   1.3270E+06  0.000E+00  0.000E+00  0.000E+00  3.27834E+01  5.611E-01  2.000E+01  2.000E+04 -2.000E+00
   1   18   29     3     8    1.3270E+06 -5.0498E+04   1.3775E+06  0.000E+00  0.000E+00  0.000E+00  3.19060E+01  5.727E-01  2.000E+01  2.000E+04 -2.525E+00
   1   18   30     3     9    1.3775E+06 -4.6588E+04   1.4241E+06  0.000E+00  0.000E+00  0.000E+00  3.10294E+01  5.850E-01  2.000E+01  2.000E+04 -2.329E+00



1
              HEAD IN LAYER   1 AT END OF TIME STEP   1 IN STRESS PERIOD    1
  ---------------------------------------------------------------------------

          1      2      3      4      5      6      7      8      9     10
         11     12     13     14     15     16     17     18     19     20
         21     22     23     24     25     26     27     28     29     30
 .........................................................................
   1  ****** ****** ****** ****** ****** ****** ****** ****** ****** ******
      ****** ****** ****** ****** ****** ****** ****** ****** ****** ******
      ****** ****** ****** ****** ****** ****** ****** ****** ****** ******
   2  ****** ****** ****** ****** ****** ****** ****** ****** ****** ******
      ****** ****** ****** ****** ****** ****** ****** ****** ****** ******
      ****** ****** ****** ****** ****** ****** ****** ****** ****** ******
   3  ****** ****** ****** ****** ****** ****** ****** ****** ****** ******
      ****** ****** ****** ****** ****** ****** ****** ****** ****** ******
      ****** ****** ****** ****** ****** ****** ****** ****** ****** ******
   4  ****** ****** ****** ****** ****** ****** ****** ****** ****** ******
      ****** ****** ****** ****** ****** ****** ****** ****** ****** ******
      ****** ****** ****** ****** ****** ****** ****** ****** ****** ******
   5  ****** ****** ****** ****** ****** ****** ****** ****** ****** ******
      ****** ****** ****** ****** ****** ****** ****** ****** ****** ******
      ****** ****** ****** ****** ****** ****** ****** ****** ****** ******
   6  ****** ****** ****** ****** ****** ****** ****** ****** ****** ******
      ****** ****** ****** ****** ****** ****** ****** ****** ****** ******
      ****** ****** ****** ****** ****** ****** ****** ****** ****** ******
   7  ****** ****** ****** ****** ****** ****** ****** ****** ****** ******
      ****** ****** ****** ****** ****** ****** ****** ****** ****** ******
      ****** ****** ****** ****** ****** ****** ****** ****** ****** ******
   8  ****** ****** ****** ****** ****** ****** ****** ****** ****** ******
      ****** ****** ****** ****** ****** ****** ****** ****** ****** ******
      ****** ****** ****** ****** ****** ****** ****** ****** ****** ******
   9  ****** ****** ****** ****** ****** ****** ****** ****** ****** ******
      ****** ****** ****** ****** ****** ****** ****** ****** ****** ******
      ****** ****** ****** ****** ****** ****** ****** ****** ****** ******
  10  ****** ****** ****** ****** ****** ****** ****** ****** ****** ******
      ****** ****** ****** ****** ****** ****** ****** ****** ****** ******
      ****** ****** ****** ****** ****** ****** ****** ****** ****** ******
  11  ****** ****** ****** ****** ****** ****** ****** ****** ****** ******
      ****** ****** ****** ****** ****** ****** ****** ****** ****** ******
      ****** ****** ****** ****** ****** ****** ****** ****** ****** ******
  12  ****** ****** ****** ****** ****** ****** ****** ****** ****** ******
      ****** ****** ****** ****** ****** ****** ****** ****** ****** ******
      ****** ****** ****** ****** ****** ****** ****** ****** ****** ******
  13  ****** ****** ****** ****** ****** ****** ****** ****** ****** ******
      ****** ****** ****** ****** ****** ****** ****** ****** ****** ******
      ****** ****** ****** ****** ****** ****** ****** ****** ****** ******
  14  ****** ****** ****** ****** ****** ****** ****** ****** ****** ******
      ****** ****** ****** ****** ****** ****** ****** ****** ****** ******
      ****** ****** ****** ****** ****** ****** ****** ****** ****** ******
  15  ****** ****** ****** ****** ****** ****** ****** ****** ****** ******
      ****** ****** ****** ****** ****** ****** ****** ****** ****** ******
      ****** ****** ****** ****** ****** ****** ****** ****** ****** ******
  16  ****** ****** ****** ****** ****** ****** ****** ****** ****** ******
      ****** ****** ****** ****** ****** ****** ****** ****** ****** ******
      ****** ****** ****** ****** ****** ****** ****** ****** ****** ******
  17  ****** ****** ****** ****** ****** ****** ****** ****** ****** ******
      ****** ****** ****** ****** ****** ****** ****** ****** ****** ******
      ****** ****** ****** ****** ****** ****** ****** ****** ****** ******
  18  ****** ****** ****** ****** ****** ****** ****** ****** ****** ******
      ****** ****** ****** ****** ****** ****** ****** ****** ****** ******
      ****** ****** ****** ****** ****** ****** ****** ****** ****** ******
  19  ****** ****** ****** ****** ****** ****** ****** ****** ****** ******
      ****** ****** ****** ****** ****** ****** ****** ****** ****** ******
      ****** ****** ****** ****** ****** ****** ****** ****** ****** ******
  20  ****** ****** ****** ****** ****** ****** ****** ****** ****** ******
      ****** ****** ****** ****** ****** ****** ****** ****** ****** ******
      ****** ****** ****** ****** ****** ****** ****** ****** ****** ******
  21  ****** ****** ****** ****** ****** ****** ****** ****** ****** ******
      ****** ****** ****** ****** ****** ****** ****** ****** ****** ******
      ****** ****** ****** ****** ****** ****** ****** ****** ****** ******
  22  ****** ****** ****** ****** ****** ****** ****** ****** ****** ******
      ****** ****** ****** ****** ****** ****** ****** ****** ****** ******
      ****** ****** ****** ****** ****** ****** ****** ****** ****** ******
  23  ****** ****** ****** ****** ****** ****** ****** ****** ****** ******
      ****** ****** ****** ****** ****** ****** ****** ****** ****** ******
      ****** ****** ****** ****** ****** ****** ****** ****** ****** ******
  24  ****** ****** ****** ****** ****** ****** ****** ****** ****** ******
      ****** ****** ****** ****** ****** ****** ****** ****** ****** ******
      ****** ****** ****** ****** ****** ****** ****** ****** ****** ******
  25  ****** ****** ****** ****** ****** ****** ****** ****** ****** ******
      ****** ****** ****** ****** ****** ****** ****** ****** ****** ******
      ****** ****** ****** ****** ****** ****** ****** ****** ****** ******

 HEAD WILL BE SAVED ON UNIT   51 AT END OF TIME STEP    1, STRESS PERIOD    1
1
  VOLUMETRIC BUDGET FOR ENTIRE MODEL AT END OF TIME STEP    1, STRESS PERIOD   1
  ------------------------------------------------------------------------------

     CUMULATIVE VOLUMES      L**3       RATES FOR THIS TIME STEP      L**3/T
     ------------------                 ------------------------

           IN:                                      IN:
           ---                                      ---
             STORAGE =    19119485.5618               STORAGE =      207820.4952
       CONSTANT HEAD =   101746988.4886         CONSTANT HEAD =     1105945.5270
               WELLS =           0.0000                 WELLS =           0.0000
            RECHARGE =     1269600.0000              RECHARGE =       13800.0000
      STREAM LEAKAGE =           0.0000        STREAM LEAKAGE =           0.0000

            TOTAL IN =   122136074.0503              TOTAL IN =     1327566.0223

          OUT:                                     OUT:
          ----                                     ----
             STORAGE =           0.0000               STORAGE =           0.0000
       CONSTANT HEAD =           0.0000         CONSTANT HEAD =           0.0000
               WELLS =     4920563.3889                 WELLS =       53484.3847
            RECHARGE =           0.0000              RECHARGE =           0.0000
      STREAM LEAKAGE =   117215512.5349        STREAM LEAKAGE =     1274081.6580

           TOTAL OUT =   122136075.9238             TOTAL OUT =     1327566.0427

            IN - OUT =          -1.8735              IN - OUT =      -2.0364E-02

 PERCENT DISCREPANCY =          -0.00     PERCENT DISCREPANCY =          -0.00






         TIME SUMMARY AT END OF TIME STEP    1 IN STRESS PERIOD    1
                    SECONDS     MINUTES      HOURS       DAYS        YEARS
                    -----------------------------------------------------------
   TIME STEP LENGTH 7.94880E+06 1.32480E+05  2208.0      92.000     0.25188    
 STRESS PERIOD TIME 7.94880E+06 1.32480E+05  2208.0      92.000     0.25188    
         TOTAL TIME 7.94880E+06 1.32480E+05  2208.0      92.000     0.25188    
1
1
                            STRESS PERIOD NO.    2, LENGTH =   91.00000    
                            -----------------------------------------------

                              NUMBER OF TIME STEPS =     1

                               MULTIPLIER FOR DELT =     1.500

                            INITIAL TIME STEP SIZE =   91.00000    

 WELL NO.  LAYER   ROW   COL   STRESS RATE         
 --------------------------------------------------
      1      1     12     11      -3484.    
      2      1     16     17     -0.2750E+05
      3      1     14     25     -0.4902E+05

      3 WELLS

                 RECHARGE =  2.000000E-03

 REUSING STREAM SEGMENT DATA FROM LAST STRESS PERIOD
 
 SOLVING FOR HEAD 


     6 CALLS TO PCG ROUTINE FOR TIME STEP   1 IN STRESS PERIOD    2
    24 TOTAL ITERATIONS

 OUTPUT CONTROL FOR STRESS PERIOD    2   TIME STEP    1
    SAVE BUDGET
    SAVE HEAD FOR ALL LAYERS
    PRINT HEAD FOR ALL LAYERS
 UBDSV2 SAVING "STREAMFLOW OUT  " ON UNIT  50 AT TIME STEP  1, STRESS PERIOD   2



 STREAM LISTING     PERIOD      2   STEP        1

 LAYER ROW COL. STREAM  RCH.  FLOW INTO     FLOW TO   FLOW OUT OF   OVRLND.     DIRECT     STREAM       STREAM     STREAM     STREAM   STREAMBED  STREAMBED
                SEG.NO.  NO.  STRM. RCH.    AQUIFER    STRM. RCH.    RUNOFF     PRECIP       ET          HEAD       DEPTH      WIDTH   CONDCTNC.   GRADIENT

   1   13    1     1     1    1.0000E+05 -2.8479E+04   1.2848E+05  0.000E+00  0.000E+00  0.000E+00  4.84180E+01  1.567E-01  2.000E+01  2.000E+04 -1.424E+00
   1   13    2     1     2    1.2848E+05 -3.8341E+04   1.6682E+05  0.000E+00  0.000E+00  0.000E+00  4.79668E+01  1.828E-01  2.000E+01  2.000E+04 -1.917E+00
   1   14    3     1     3    1.6682E+05 -3.3773E+04   2.0059E+05  0.000E+00  0.000E+00  0.000E+00  4.75152E+01  2.084E-01  2.000E+01  2.000E+04 -1.689E+00
   1   15    4     1     4    2.0059E+05 -3.2957E+04   2.3355E+05  0.000E+00  0.000E+00  0.000E+00  4.70598E+01  2.303E-01  2.000E+01  2.000E+04 -1.648E+00
   1   16    5     1     5    2.3355E+05 -3.4389E+04   2.6794E+05  0.000E+00  0.000E+00  0.000E+00  4.66034E+01  2.511E-01  2.000E+01  2.000E+04 -1.719E+00
   1   16    6     1     6    2.6794E+05 -3.0010E+04   2.9795E+05  0.000E+00  0.000E+00  0.000E+00  4.61450E+01  2.700E-01  2.000E+01  2.000E+04 -1.500E+00
   1   16    7     1     7    2.9795E+05 -2.9783E+04   3.2773E+05  0.000E+00  0.000E+00  0.000E+00  4.56845E+01  2.868E-01  2.000E+01  2.000E+04 -1.489E+00
   1   16    8     1     8    3.2773E+05 -2.9904E+04   3.5764E+05  0.000E+00  0.000E+00  0.000E+00  4.52233E+01  3.029E-01  2.000E+01  2.000E+04 -1.495E+00
   1   16    9     1     9    3.5764E+05 -2.9893E+04   3.8753E+05  0.000E+00  0.000E+00  0.000E+00  4.47616E+01  3.185E-01  2.000E+01  2.000E+04 -1.495E+00
   1   16   10     1    10    3.8753E+05 -2.9784E+04   4.1731E+05  0.000E+00  0.000E+00  0.000E+00  4.42994E+01  3.335E-01  2.000E+01  2.000E+04 -1.489E+00
   1   16   11     1    11    4.1731E+05 -3.0155E+04   4.4747E+05  0.000E+00  0.000E+00  0.000E+00  4.38369E+01  3.482E-01  2.000E+01  2.000E+04 -1.508E+00
   1   16   12     1    12    4.4747E+05 -3.5063E+04   4.8253E+05  0.000E+00  0.000E+00  0.000E+00  4.33751E+01  3.637E-01  2.000E+01  2.000E+04 -1.753E+00
   1   15   13     1    13    4.8253E+05 -3.3225E+04   5.1576E+05  0.000E+00  0.000E+00  0.000E+00  4.29136E+01  3.795E-01  2.000E+01  2.000E+04 -1.661E+00
   1   14   14     1    14    5.1576E+05 -3.3436E+04   5.4919E+05  0.000E+00  0.000E+00  0.000E+00  4.24514E+01  3.946E-01  2.000E+01  2.000E+04 -1.672E+00
   1   13   15     1    15    5.4919E+05 -3.5875E+04   5.8507E+05  0.000E+00  0.000E+00  0.000E+00  4.19893E+01  4.098E-01  2.000E+01  2.000E+04 -1.794E+00
   1   12   16     1    16    5.8507E+05 -4.2850E+04   6.2792E+05  0.000E+00  0.000E+00  0.000E+00  4.15289E+01  4.266E-01  2.000E+01  2.000E+04 -2.143E+00
   1   12   17     1    17    6.2792E+05 -3.3142E+04   6.6106E+05  0.000E+00  0.000E+00  0.000E+00  4.10674E+01  4.424E-01  2.000E+01  2.000E+04 -1.657E+00
   1   12   18     1    18    6.6106E+05 -3.1601E+04   6.9266E+05  0.000E+00  0.000E+00  0.000E+00  4.06034E+01  4.556E-01  2.000E+01  2.000E+04 -1.580E+00
   1   12   19     1    19    6.9266E+05 -3.5948E+04   7.2861E+05  0.000E+00  0.000E+00  0.000E+00  4.01396E+01  4.692E-01  2.000E+01  2.000E+04 -1.797E+00
   1   13   20     1    20    7.2861E+05 -2.5520E+04   7.5413E+05  0.000E+00  0.000E+00  0.000E+00  3.96744E+01  4.812E-01  2.000E+01  2.000E+04 -1.276E+00
   1   14   21     1    21    7.5413E+05 -1.8263E+04   7.7239E+05  0.000E+00  0.000E+00  0.000E+00  3.92056E+01  4.897E-01  2.000E+01  2.000E+04 -9.131E-01
   1   14   22     1    22    7.7239E+05 -8.2946E+02   7.7322E+05  0.000E+00  0.000E+00  0.000E+00  3.87320E+01  4.934E-01  2.000E+01  2.000E+04 -4.147E-02
   1    9   30     2     1    5.0000E+04 -2.6509E+04   7.6509E+04  0.000E+00  0.000E+00  0.000E+00  4.02584E+01  1.334E-01  2.000E+01  2.000E+04 -1.325E+00
   1    9   29     2     2    7.6509E+04 -2.8953E+04   1.0546E+05  0.000E+00  0.000E+00  0.000E+00  4.00409E+01  1.659E-01  2.000E+01  2.000E+04 -1.448E+00
   1    9   28     2     3    1.0546E+05 -3.3219E+04   1.3868E+05  0.000E+00  0.000E+00  0.000E+00  3.98229E+01  1.979E-01  2.000E+01  2.000E+04 -1.661E+00
   1    9   27     2     4    1.3868E+05 -4.7396E+04   1.8608E+05  0.000E+00  0.000E+00  0.000E+00  3.96099E+01  2.349E-01  2.000E+01  2.000E+04 -2.370E+00
   1   10   26     2     5    1.8608E+05 -3.2589E+04   2.1867E+05  0.000E+00  0.000E+00  0.000E+00  3.93931E+01  2.681E-01  2.000E+01  2.000E+04 -1.629E+00
   1   11   25     2     6    2.1867E+05 -2.2738E+04   2.4140E+05  0.000E+00  0.000E+00  0.000E+00  3.91645E+01  2.895E-01  2.000E+01  2.000E+04 -1.137E+00
   1   12   24     2     7    2.4140E+05 -1.4639E+04   2.5604E+05  0.000E+00  0.000E+00  0.000E+00  3.89284E+01  3.034E-01  2.000E+01  2.000E+04 -7.319E-01
   1   13   23     2     8    2.5604E+05 -9.8288E+03   2.6587E+05  0.000E+00  0.000E+00  0.000E+00  3.86873E+01  3.123E-01  2.000E+01  2.000E+04 -4.914E-01
   1   14   22     2     9    2.6587E+05 -6.6070E+03   2.7248E+05  0.000E+00  0.000E+00  0.000E+00  3.84431E+01  3.181E-01  2.000E+01  2.000E+04 -3.304E-01
   1   14   22     3     1    1.0457E+06 -1.4501E+04   1.0602E+06  0.000E+00  0.000E+00  0.000E+00  3.80484E+01  4.929E-01  2.000E+01  2.000E+04 -7.250E-01
   1   15   23     3     2    1.0602E+06 -2.1191E+04   1.0814E+06  0.000E+00  0.000E+00  0.000E+00  3.71645E+01  4.979E-01  2.000E+01  2.000E+04 -1.060E+00
   1   15   24     3     3    1.0814E+06 -1.4321E+04   1.0957E+06  0.000E+00  0.000E+00  0.000E+00  3.62806E+01  5.028E-01  2.000E+01  2.000E+04 -7.161E-01
   1   15   25     3     4    1.0957E+06 -8.1383E+03   1.1039E+06  0.000E+00  0.000E+00  0.000E+00  3.53948E+01  5.059E-01  2.000E+01  2.000E+04 -4.069E-01
   1   15   26     3     5    1.1039E+06 -1.5889E+04   1.1197E+06  0.000E+00  0.000E+00  0.000E+00  3.45092E+01  5.092E-01  2.000E+01  2.000E+04 -7.944E-01
   1   16   27     3     6    1.1197E+06 -2.7517E+04   1.1473E+06  0.000E+00  0.000E+00  0.000E+00  3.36263E+01  5.152E-01  2.000E+01  2.000E+04 -1.376E+00
   1   17   28     3     7    1.1473E+06 -3.5765E+04   1.1830E+06  0.000E+00  0.000E+00  0.000E+00  3.27460E+01  5.238E-01  2.000E+01  2.000E+04 -1.788E+00
   1   18   29     3     8    1.1830E+06 -4.7266E+04   1.2303E+06  0.000E+00  0.000E+00  0.000E+00  3.18682E+01  5.349E-01  2.000E+01  2.000E+04 -2.363E+00
   1   18   30     3     9    1.2303E+06 -4.3709E+04   1.2740E+06  0.000E+00  0.000E+00  0.000E+00  3.09913E+01  5.469E-01  2.000E+01  2.000E+04 -2.185E+00



1
              HEAD IN LAYER   1 AT END OF TIME STEP   1 IN STRESS PERIOD    2
  ---------------------------------------------------------------------------

          1      2      3      4      5      6      7      8      9     10
         11     12     13     14     15     16     17     18     19     20
         21     22     23     24     25     26     27     28     29     30
 .........................................................................
   1  ****** ****** ****** ****** ****** ****** ****** ****** ****** ******
      ****** ****** ****** ****** ****** ****** ****** ****** ****** ******
      ****** ****** ****** ****** ****** ****** ****** ****** ****** ******
   2  ****** ****** ****** ****** ****** ****** ****** ****** ****** ******
      ****** ****** ****** ****** ****** ****** ****** ****** ****** ******
      ****** ****** ****** ****** ****** ****** ****** ****** ****** ******
   3  ****** ****** ****** ****** ****** ****** ****** ****** ****** ******
      ****** ****** ****** ****** ****** ****** ****** ****** ****** ******
      ****** ****** ****** ****** ****** ****** ****** ****** ****** ******
   4  ****** ****** ****** ****** ****** ****** ****** ****** ****** ******
      ****** ****** ****** ****** ****** ****** ****** ****** ****** ******
      ****** ****** ****** ****** ****** ****** ****** ****** ****** ******
   5  ****** ****** ****** ****** ****** ****** ****** ****** ****** ******
      ****** ****** ****** ****** ****** ****** ****** ****** ****** ******
      ****** ****** ****** ****** ****** ****** ****** ****** ****** ******
   6  ****** ****** ****** ****** ****** ****** ****** ****** ****** ******
      ****** ****** ****** ****** ****** ****** ****** ****** ****** ******
      ****** ****** ****** ****** ****** ****** ****** ****** ****** ******
   7  ****** ****** ****** ****** ****** ****** ****** ****** ****** ******
      ****** ****** ****** ****** ****** ****** ****** ****** ****** ******
      ****** ****** ****** ****** ****** ****** ****** ****** ****** ******
   8  ****** ****** ****** ****** ****** ****** ****** ****** ****** ******
      ****** ****** ****** ****** ****** ****** ****** ****** ****** ******
      ****** ****** ****** ****** ****** ****** ****** ****** ****** ******
   9  ****** ****** ****** ****** ****** ****** ****** ****** ****** ******
      ****** ****** ****** ****** ****** ****** ****** ****** ****** ******
      ****** ****** ****** ****** ****** ****** ****** ****** ****** ******
  10  ****** ****** ****** ****** ****** ****** ****** ****** ****** ******
      ****** ****** ****** ****** ****** ****** ****** ****** ****** ******
      ****** ****** ****** ****** ****** ****** ****** ****** ****** ******
  11  ****** ****** ****** ****** ****** ****** ****** ****** ****** ******
      ****** ****** ****** ****** ****** ****** ****** ****** ****** ******
      ****** ****** ****** ****** ****** ****** ****** ****** ****** ******
  12  ****** ****** ****** ****** ****** ****** ****** ****** ****** ******
      ****** ****** ****** ****** ****** ****** ****** ****** ****** ******
      ****** ****** ****** ****** ****** ****** ****** ****** ****** ******
  13  ****** ****** ****** ****** ****** ****** ****** ****** ****** ******
      ****** ****** ****** ****** ****** ****** ****** ****** ****** ******
      ****** ****** ****** ****** ****** ****** ****** ****** ****** ******
  14  ****** ****** ****** ****** ****** ****** ****** ****** ****** ******
      ****** ****** ****** ****** ****** ****** ****** ****** ****** ******
      ****** ****** ****** ****** ****** ****** ****** ****** ****** ******
  15  ****** ****** ****** ****** ****** ****** ****** ****** ****** ******
      ****** ****** ****** ****** ****** ****** ****** ****** ****** ******
      ****** ****** ****** ****** ****** ****** ****** ****** ****** ******
  16  ****** ****** ****** ****** ****** ****** ****** ****** ****** ******
      ****** ****** ****** ****** ****** ****** ****** ****** ****** ******
      ****** ****** ****** ****** ****** ****** ****** ****** ****** ******
  17  ****** ****** ****** ****** ****** ****** ****** ****** ****** ******
      ****** ****** ****** ****** ****** ****** ****** ****** ****** ******
      ****** ****** ****** ****** ****** ****** ****** ****** ****** ******
  18  ****** ****** ****** ****** ****** ****** ****** ****** ****** ******
      ****** ****** ****** ****** ****** ****** ****** ****** ****** ******
      ****** ****** ****** ****** ****** ****** ****** ****** ****** ******
  19  ****** ****** ****** ****** ****** ****** ****** ****** ****** ******
      ****** ****** ****** ****** ****** ****** ****** ****** ****** ******
      ****** ****** ****** ****** ****** ****** ****** ****** ****** ******
  20  ****** ****** ****** ****** ****** ****** ****** ****** ****** ******
      ****** ****** ****** ****** ****** ****** ****** ****** ****** ******
      ****** ****** ****** ****** ****** ****** ****** ****** ****** ******
  21  ****** ****** ****** ****** ****** ****** ****** ****** ****** ******
      ****** ****** ****** ****** ****** ****** ****** ****** ****** ******
      ****** ****** ****** ****** ****** ****** ****** ****** ****** ******
  22  ****** ****** ****** ****** ****** ****** ****** ****** ****** ******
      ****** ****** ****** ****** ****** ****** ****** ****** ****** ******
      ****** ****** ****** ****** ****** ****** ****** ****** ****** ******
  23  ****** ****** ****** ****** ****** ****** ****** ****** ****** ******
      ****** ****** ****** ****** ****** ****** ****** ****** ****** ******
      ****** ****** ****** ****** ****** ****** ****** ****** ****** ******
  24  ****** ****** ****** ****** ****** ****** ****** ****** ****** ******
      ****** ****** ****** ****** ****** ****** ****** ****** ****** ******
      ****** ****** ****** ****** ****** ****** ****** ****** ****** ******
  25  ****** ****** ****** ****** ****** ****** ****** ****** ****** ******
      ****** ****** ****** ****** ****** ****** ****** ****** ****** ******
      ****** ****** ****** ****** ****** ****** ****** ****** ****** ******

 HEAD WILL BE SAVED ON UNIT   51 AT END OF TIME STEP    1, STRESS PERIOD    2
1
  VOLUMETRIC BUDGET FOR ENTIRE MODEL AT END OF TIME STEP    1, STRESS PERIOD   2
  ------------------------------------------------------------------------------

     CUMULATIVE VOLUMES      L**3       RATES FOR THIS TIME STEP      L**3/T
     ------------------                 ------------------------

           IN:                                      IN:
           ---                                      ---
             STORAGE =    19763766.0500               STORAGE =        7080.0054
       CONSTANT HEAD =   205652411.8534         CONSTANT HEAD =     1141817.8392
               WELLS =           0.0000                 WELLS =           0.0000
            RECHARGE =     6292800.0000              RECHARGE =       55200.0000
      STREAM LEAKAGE =           0.0000        STREAM LEAKAGE =           0.0000

            TOTAL IN =   231708977.9035              TOTAL IN =     1204097.8445

          OUT:                                     OUT:
          ----                                     ----
             STORAGE =        9095.8915               STORAGE =          99.9549
       CONSTANT HEAD =           0.0000         CONSTANT HEAD =           0.0000
               WELLS =    12200563.3889                 WELLS =       80000.0000
            RECHARGE =           0.0000              RECHARGE =           0.0000
      STREAM LEAKAGE =   219499326.2478        STREAM LEAKAGE =     1123997.9529

           TOTAL OUT =   231708985.5282             TOTAL OUT =     1204097.9077

            IN - OUT =          -7.6247              IN - OUT =      -6.3200E-02

 PERCENT DISCREPANCY =          -0.00     PERCENT DISCREPANCY =          -0.00






         TIME SUMMARY AT END OF TIME STEP    1 IN STRESS PERIOD    2
                    SECONDS     MINUTES      HOURS       DAYS        YEARS
                    -----------------------------------------------------------
   TIME STEP LENGTH 7.86240E+06 1.31040E+05  2184.0      91.000     0.24914    
 STRESS PERIOD TIME 7.86240E+06 1.31040E+05  2184.0      91.000     0.24914    
         TOTAL TIME 1.58112E+07 2.63520E+05  4392.0      183.00     0.50103    
1
1
                            STRESS PERIOD NO.    3, LENGTH =   91.00000    
                            -----------------------------------------------

                              NUMBER OF TIME STEPS =     1

                               MULTIPLIER FOR DELT =     1.500

                            INITIAL TIME STEP SIZE =   91.00000    

 WELL NO.  LAYER   ROW   COL   STRESS RATE         
 --------------------------------------------------
      1      1     12     11      -3484.    
      2      1     16     17     -0.2691E+05

      2 WELLS

                 RECHARGE =   0.00000    

 REUSING STREAM SEGMENT DATA FROM LAST STRESS PERIOD
 
 SOLVING FOR HEAD 


     6 CALLS TO PCG ROUTINE FOR TIME STEP   1 IN STRESS PERIOD    3
    23 TOTAL ITERATIONS

 OUTPUT CONTROL FOR STRESS PERIOD    3   TIME STEP    1
    SAVE BUDGET
    SAVE HEAD FOR ALL LAYERS
    PRINT HEAD FOR ALL LAYERS
 UBDSV2 SAVING "STREAMFLOW OUT  " ON UNIT  50 AT TIME STEP  1, STRESS PERIOD   3



 STREAM LISTING     PERIOD      3   STEP        1

 LAYER ROW COL. STREAM  RCH.  FLOW INTO     FLOW TO   FLOW OUT OF   OVRLND.     DIRECT     STREAM       STREAM     STREAM     STREAM   STREAMBED  STREAMBED
                SEG.NO.  NO.  STRM. RCH.    AQUIFER    STRM. RCH.    RUNOFF     PRECIP       ET          HEAD       DEPTH      WIDTH   CONDCTNC.   GRADIENT

   1   13    1     1     1    1.0000E+05 -2.7451E+04   1.2745E+05  0.000E+00  0.000E+00  0.000E+00  4.84176E+01  1.563E-01  2.000E+01  2.000E+04 -1.373E+00
   1   13    2     1     2    1.2745E+05 -3.7104E+04   1.6455E+05  0.000E+00  0.000E+00  0.000E+00  4.79656E+01  1.815E-01  2.000E+01  2.000E+04 -1.855E+00
   1   14    3     1     3    1.6455E+05 -3.2579E+04   1.9713E+05  0.000E+00  0.000E+00  0.000E+00  4.75132E+01  2.064E-01  2.000E+01  2.000E+04 -1.629E+00
   1   15    4     1     4    1.9713E+05 -3.1820E+04   2.2895E+05  0.000E+00  0.000E+00  0.000E+00  4.70573E+01  2.277E-01  2.000E+01  2.000E+04 -1.591E+00
   1   16    5     1     5    2.2895E+05 -3.3378E+04   2.6233E+05  0.000E+00  0.000E+00  0.000E+00  4.66003E+01  2.480E-01  2.000E+01  2.000E+04 -1.669E+00
   1   16    6     1     6    2.6233E+05 -2.9129E+04   2.9146E+05  0.000E+00  0.000E+00  0.000E+00  4.61415E+01  2.665E-01  2.000E+01  2.000E+04 -1.456E+00
   1   16    7     1     7    2.9146E+05 -2.8911E+04   3.2037E+05  0.000E+00  0.000E+00  0.000E+00  4.56807E+01  2.829E-01  2.000E+01  2.000E+04 -1.446E+00
   1   16    8     1     8    3.2037E+05 -2.9032E+04   3.4940E+05  0.000E+00  0.000E+00  0.000E+00  4.52192E+01  2.987E-01  2.000E+01  2.000E+04 -1.452E+00
   1   16    9     1     9    3.4940E+05 -2.9027E+04   3.7843E+05  0.000E+00  0.000E+00  0.000E+00  4.47572E+01  3.140E-01  2.000E+01  2.000E+04 -1.451E+00
   1   16   10     1    10    3.7843E+05 -2.8930E+04   4.0736E+05  0.000E+00  0.000E+00  0.000E+00  4.42947E+01  3.288E-01  2.000E+01  2.000E+04 -1.446E+00
   1   16   11     1    11    4.0736E+05 -2.9306E+04   4.3667E+05  0.000E+00  0.000E+00  0.000E+00  4.38318E+01  3.432E-01  2.000E+01  2.000E+04 -1.465E+00
   1   16   12     1    12    4.3667E+05 -3.4114E+04   4.7078E+05  0.000E+00  0.000E+00  0.000E+00  4.33698E+01  3.584E-01  2.000E+01  2.000E+04 -1.706E+00
   1   15   13     1    13    4.7078E+05 -3.2178E+04   5.0296E+05  0.000E+00  0.000E+00  0.000E+00  4.29080E+01  3.739E-01  2.000E+01  2.000E+04 -1.609E+00
   1   14   14     1    14    5.0296E+05 -3.2361E+04   5.3532E+05  0.000E+00  0.000E+00  0.000E+00  4.24454E+01  3.886E-01  2.000E+01  2.000E+04 -1.618E+00
   1   13   15     1    15    5.3532E+05 -3.4802E+04   5.7012E+05  0.000E+00  0.000E+00  0.000E+00  4.19830E+01  4.035E-01  2.000E+01  2.000E+04 -1.740E+00
   1   12   16     1    16    5.7012E+05 -4.1783E+04   6.1190E+05  0.000E+00  0.000E+00  0.000E+00  4.15223E+01  4.200E-01  2.000E+01  2.000E+04 -2.089E+00
   1   12   17     1    17    6.1190E+05 -3.2328E+04   6.4423E+05  0.000E+00  0.000E+00  0.000E+00  4.10606E+01  4.356E-01  2.000E+01  2.000E+04 -1.616E+00
   1   12   18     1    18    6.4423E+05 -3.0860E+04   6.7509E+05  0.000E+00  0.000E+00  0.000E+00  4.05964E+01  4.487E-01  2.000E+01  2.000E+04 -1.543E+00
   1   12   19     1    19    6.7509E+05 -3.5200E+04   7.1029E+05  0.000E+00  0.000E+00  0.000E+00  4.01325E+01  4.620E-01  2.000E+01  2.000E+04 -1.760E+00
   1   13   20     1    20    7.1029E+05 -2.4976E+04   7.3527E+05  0.000E+00  0.000E+00  0.000E+00  3.96671E+01  4.739E-01  2.000E+01  2.000E+04 -1.249E+00
   1   14   21     1    21    7.3527E+05 -1.7960E+04   7.5323E+05  0.000E+00  0.000E+00  0.000E+00  3.91983E+01  4.823E-01  2.000E+01  2.000E+04 -8.980E-01
   1   14   22     1    22    7.5323E+05 -1.3844E+03   7.5461E+05  0.000E+00  0.000E+00  0.000E+00  3.87247E+01  4.861E-01  2.000E+01  2.000E+04 -6.922E-02
   1    9   30     2     1    5.0000E+04 -2.6323E+04   7.6323E+04  0.000E+00  0.000E+00  0.000E+00  4.02583E+01  1.333E-01  2.000E+01  2.000E+04 -1.316E+00
   1    9   29     2     2    7.6323E+04 -2.8791E+04   1.0511E+05  0.000E+00  0.000E+00  0.000E+00  4.00406E+01  1.656E-01  2.000E+01  2.000E+04 -1.440E+00
   1    9   28     2     3    1.0511E+05 -3.3072E+04   1.3819E+05  0.000E+00  0.000E+00  0.000E+00  3.98225E+01  1.975E-01  2.000E+01  2.000E+04 -1.654E+00
   1    9   27     2     4    1.3819E+05 -4.7148E+04   1.8533E+05  0.000E+00  0.000E+00  0.000E+00  3.96094E+01  2.344E-01  2.000E+01  2.000E+04 -2.357E+00
   1   10   26     2     5    1.8533E+05 -3.3091E+04   2.1843E+05  0.000E+00  0.000E+00  0.000E+00  3.93927E+01  2.677E-01  2.000E+01  2.000E+04 -1.655E+00
   1   11   25     2     6    2.1843E+05 -2.4728E+04   2.4315E+05  0.000E+00  0.000E+00  0.000E+00  3.91651E+01  2.901E-01  2.000E+01  2.000E+04 -1.236E+00
   1   12   24     2     7    2.4315E+05 -1.8150E+04   2.6130E+05  0.000E+00  0.000E+00  0.000E+00  3.89309E+01  3.059E-01  2.000E+01  2.000E+04 -9.075E-01
   1   13   23     2     8    2.6130E+05 -1.2770E+04   2.7407E+05  0.000E+00  0.000E+00  0.000E+00  3.86921E+01  3.171E-01  2.000E+01  2.000E+04 -6.385E-01
   1   14   22     2     9    2.7407E+05 -6.8989E+03   2.8097E+05  0.000E+00  0.000E+00  0.000E+00  3.84490E+01  3.240E-01  2.000E+01  2.000E+04 -3.449E-01
   1   14   22     3     1    1.0356E+06 -1.4966E+04   1.0506E+06  0.000E+00  0.000E+00  0.000E+00  3.80457E+01  4.901E-01  2.000E+01  2.000E+04 -7.483E-01
   1   15   23     3     2    1.0506E+06 -2.2698E+04   1.0733E+06  0.000E+00  0.000E+00  0.000E+00  3.71621E+01  4.954E-01  2.000E+01  2.000E+04 -1.135E+00
   1   15   24     3     3    1.0733E+06 -1.9167E+04   1.0924E+06  0.000E+00  0.000E+00  0.000E+00  3.62790E+01  5.012E-01  2.000E+01  2.000E+04 -9.584E-01
   1   15   25     3     4    1.0924E+06 -1.8895E+04   1.1113E+06  0.000E+00  0.000E+00  0.000E+00  3.53954E+01  5.065E-01  2.000E+01  2.000E+04 -9.448E-01
   1   15   26     3     5    1.1113E+06 -2.1695E+04   1.1330E+06  0.000E+00  0.000E+00  0.000E+00  3.45121E+01  5.121E-01  2.000E+01  2.000E+04 -1.085E+00
   1   16   27     3     6    1.1330E+06 -2.8805E+04   1.1618E+06  0.000E+00  0.000E+00  0.000E+00  3.36301E+01  5.190E-01  2.000E+01  2.000E+04 -1.440E+00
   1   17   28     3     7    1.1618E+06 -3.5893E+04   1.1977E+06  0.000E+00  0.000E+00  0.000E+00  3.27499E+01  5.277E-01  2.000E+01  2.000E+04 -1.795E+00
   1   18   29     3     8    1.1977E+06 -4.6941E+04   1.2446E+06  0.000E+00  0.000E+00  0.000E+00  3.18721E+01  5.387E-01  2.000E+01  2.000E+04 -2.347E+00
   1   18   30     3     9    1.2446E+06 -4.3456E+04   1.2881E+06  0.000E+00  0.000E+00  0.000E+00  3.09950E+01  5.506E-01  2.000E+01  2.000E+04 -2.173E+00



1
              HEAD IN LAYER   1 AT END OF TIME STEP   1 IN STRESS PERIOD    3
  ---------------------------------------------------------------------------

          1      2      3      4      5      6      7      8      9     10
         11     12     13     14     15     16     17     18     19     20
         21     22     23     24     25     26     27     28     29     30
 .........................................................................
   1  ****** ****** ****** ****** ****** ****** ****** ****** ****** ******
      ****** ****** ****** ****** ****** ****** ****** ****** ****** ******
      ****** ****** ****** ****** ****** ****** ****** ****** ****** ******
   2  ****** ****** ****** ****** ****** ****** ****** ****** ****** ******
      ****** ****** ****** ****** ****** ****** ****** ****** ****** ******
      ****** ****** ****** ****** ****** ****** ****** ****** ****** ******
   3  ****** ****** ****** ****** ****** ****** ****** ****** ****** ******
      ****** ****** ****** ****** ****** ****** ****** ****** ****** ******
      ****** ****** ****** ****** ****** ****** ****** ****** ****** ******
   4  ****** ****** ****** ****** ****** ****** ****** ****** ****** ******
      ****** ****** ****** ****** ****** ****** ****** ****** ****** ******
      ****** ****** ****** ****** ****** ****** ****** ****** ****** ******
   5  ****** ****** ****** ****** ****** ****** ****** ****** ****** ******
      ****** ****** ****** ****** ****** ****** ****** ****** ****** ******
      ****** ****** ****** ****** ****** ****** ****** ****** ****** ******
   6  ****** ****** ****** ****** ****** ****** ****** ****** ****** ******
      ****** ****** ****** ****** ****** ****** ****** ****** ****** ******
      ****** ****** ****** ****** ****** ****** ****** ****** ****** ******
   7  ****** ****** ****** ****** ****** ****** ****** ****** ****** ******
      ****** ****** ****** ****** ****** ****** ****** ****** ****** ******
      ****** ****** ****** ****** ****** ****** ****** ****** ****** ******
   8  ****** ****** ****** ****** ****** ****** ****** ****** ****** ******
      ****** ****** ****** ****** ****** ****** ****** ****** ****** ******
      ****** ****** ****** ****** ****** ****** ****** ****** ****** ******
   9  ****** ****** ****** ****** ****** ****** ****** ****** ****** ******
      ****** ****** ****** ****** ****** ****** ****** ****** ****** ******
      ****** ****** ****** ****** ****** ****** ****** ****** ****** ******
  10  ****** ****** ****** ****** ****** ****** ****** ****** ****** ******
      ****** ****** ****** ****** ****** ****** ****** ****** ****** ******
      ****** ****** ****** ****** ****** ****** ****** ****** ****** ******
  11  ****** ****** ****** ****** ****** ****** ****** ****** ****** ******
      ****** ****** ****** ****** ****** ****** ****** ****** ****** ******
      ****** ****** ****** ****** ****** ****** ****** ****** ****** ******
  12  ****** ****** ****** ****** ****** ****** ****** ****** ****** ******
      ****** ****** ****** ****** ****** ****** ****** ****** ****** ******
      ****** ****** ****** ****** ****** ****** ****** ****** ****** ******
  13  ****** ****** ****** ****** ****** ****** ****** ****** ****** ******
      ****** ****** ****** ****** ****** ****** ****** ****** ****** ******
      ****** ****** ****** ****** ****** ****** ****** ****** ****** ******
  14  ****** ****** ****** ****** ****** ****** ****** ****** ****** ******
      ****** ****** ****** ****** ****** ****** ****** ****** ****** ******
      ****** ****** ****** ****** ****** ****** ****** ****** ****** ******
  15  ****** ****** ****** ****** ****** ****** ****** ****** ****** ******
      ****** ****** ****** ****** ****** ****** ****** ****** ****** ******
      ****** ****** ****** ****** ****** ****** ****** ****** ****** ******
  16  ****** ****** ****** ****** ****** ****** ****** ****** ****** ******
      ****** ****** ****** ****** ****** ****** ****** ****** ****** ******
      ****** ****** ****** ****** ****** ****** ****** ****** ****** ******
  17  ****** ****** ****** ****** ****** ****** ****** ****** ****** ******
      ****** ****** ****** ****** ****** ****** ****** ****** ****** ******
      ****** ****** ****** ****** ****** ****** ****** ****** ****** ******
  18  ****** ****** ****** ****** ****** ****** ****** ****** ****** ******
      ****** ****** ****** ****** ****** ****** ****** ****** ****** ******
      ****** ****** ****** ****** ****** ****** ****** ****** ****** ******
  19  ****** ****** ****** ****** ****** ****** ****** ****** ****** ******
      ****** ****** ****** ****** ****** ****** ****** ****** ****** ******
      ****** ****** ****** ****** ****** ****** ****** ****** ****** ******
  20  ****** ****** ****** ****** ****** ****** ****** ****** ****** ******
      ****** ****** ****** ****** ****** ****** ****** ****** ****** ******
      ****** ****** ****** ****** ****** ****** ****** ****** ****** ******
  21  ****** ****** ****** ****** ****** ****** ****** ****** ****** ******
      ****** ****** ****** ****** ****** ****** ****** ****** ****** ******
      ****** ****** ****** ****** ****** ****** ****** ****** ****** ******
  22  ****** ****** ****** ****** ****** ****** ****** ****** ****** ******
      ****** ****** ****** ****** ****** ****** ****** ****** ****** ******
      ****** ****** ****** ****** ****** ****** ****** ****** ****** ******
  23  ****** ****** ****** ****** ****** ****** ****** ****** ****** ******
      ****** ****** ****** ****** ****** ****** ****** ****** ****** ******
      ****** ****** ****** ****** ****** ****** ****** ****** ****** ******
  24  ****** ****** ****** ****** ****** ****** ****** ****** ****** ******
      ****** ****** ****** ****** ****** ****** ****** ****** ****** ******
      ****** ****** ****** ****** ****** ****** ****** ****** ****** ******
  25  ****** ****** ****** ****** ****** ****** ****** ****** ****** ******
      ****** ****** ****** ****** ****** ****** ****** ****** ****** ******
      ****** ****** ****** ****** ****** ****** ****** ****** ****** ******

 HEAD WILL BE SAVED ON UNIT   51 AT END OF TIME STEP    1, STRESS PERIOD    3
1
  VOLUMETRIC BUDGET FOR ENTIRE MODEL AT END OF TIME STEP    1, STRESS PERIOD   3
  ------------------------------------------------------------------------------

     CUMULATIVE VOLUMES      L**3       RATES FOR THIS TIME STEP      L**3/T
     ------------------                 ------------------------

           IN:                                      IN:
           ---                                      ---
             STORAGE =    20004543.5937               STORAGE =        2645.9071
       CONSTANT HEAD =   311783035.1641         CONSTANT HEAD =     1166270.5858
               WELLS =           0.0000                 WELLS =           0.0000
            RECHARGE =     6292800.0000              RECHARGE =           0.0000
      STREAM LEAKAGE =           0.0000        STREAM LEAKAGE =           0.0000

            TOTAL IN =   338080378.7578              TOTAL IN =     1168916.4929

          OUT:                                     OUT:
          ----                                     ----
             STORAGE =       46873.9970               STORAGE =         415.1440
       CONSTANT HEAD =           0.0000         CONSTANT HEAD =           0.0000
               WELLS =    14966792.6965                 WELLS =       30398.1243
            RECHARGE =           0.0000              RECHARGE =           0.0000
      STREAM LEAKAGE =   323066723.1887        STREAM LEAKAGE =     1138103.2631

           TOTAL OUT =   338080389.8822             TOTAL OUT =     1168916.5314

            IN - OUT =         -11.1244              IN - OUT =      -3.8458E-02

 PERCENT DISCREPANCY =          -0.00     PERCENT DISCREPANCY =          -0.00






         TIME SUMMARY AT END OF TIME STEP    1 IN STRESS PERIOD    3
                    SECONDS     MINUTES      HOURS       DAYS        YEARS
                    -----------------------------------------------------------
   TIME STEP LENGTH 7.86240E+06 1.31040E+05  2184.0      91.000     0.24914    
 STRESS PERIOD TIME 7.86240E+06 1.31040E+05  2184.0      91.000     0.24914    
         TOTAL TIME 2.36736E+07 3.94560E+05  6576.0      274.00     0.75017    
1
1
                            STRESS PERIOD NO.    4, LENGTH =   91.00000    
                            -----------------------------------------------

                              NUMBER OF TIME STEPS =     1

                               MULTIPLIER FOR DELT =     1.500

                            INITIAL TIME STEP SIZE =   91.00000    

 WELL NO.  LAYER   ROW   COL   STRESS RATE         
 --------------------------------------------------
      1      1     12     11      -3484.    
      2      1     16     17     -0.2675E+05
      3      1     14     25     -0.1056E+05

      3 WELLS

                 RECHARGE =  1.000000E-03

 REUSING STREAM SEGMENT DATA FROM LAST STRESS PERIOD
 
 SOLVING FOR HEAD 


     6 CALLS TO PCG ROUTINE FOR TIME STEP   1 IN STRESS PERIOD    4
    22 TOTAL ITERATIONS

 OUTPUT CONTROL FOR STRESS PERIOD    4   TIME STEP    1
    SAVE BUDGET
    SAVE HEAD FOR ALL LAYERS
    PRINT HEAD FOR ALL LAYERS
 UBDSV2 SAVING "STREAMFLOW OUT  " ON UNIT  50 AT TIME STEP  1, STRESS PERIOD   4



 STREAM LISTING     PERIOD      4   STEP        1

 LAYER ROW COL. STREAM  RCH.  FLOW INTO     FLOW TO   FLOW OUT OF   OVRLND.     DIRECT     STREAM       STREAM     STREAM     STREAM   STREAMBED  STREAMBED
                SEG.NO.  NO.  STRM. RCH.    AQUIFER    STRM. RCH.    RUNOFF     PRECIP       ET          HEAD       DEPTH      WIDTH   CONDCTNC.   GRADIENT

   1   13    1     1     1    1.0000E+05 -2.7831E+04   1.2783E+05  0.000E+00  0.000E+00  0.000E+00  4.84178E+01  1.564E-01  2.000E+01  2.000E+04 -1.392E+00
   1   13    2     1     2    1.2783E+05 -3.7556E+04   1.6539E+05  0.000E+00  0.000E+00  0.000E+00  4.79661E+01  1.820E-01  2.000E+01  2.000E+04 -1.878E+00
   1   14    3     1     3    1.6539E+05 -3.3028E+04   1.9842E+05  0.000E+00  0.000E+00  0.000E+00  4.75139E+01  2.071E-01  2.000E+01  2.000E+04 -1.651E+00
   1   15    4     1     4    1.9842E+05 -3.2256E+04   2.3067E+05  0.000E+00  0.000E+00  0.000E+00  4.70582E+01  2.287E-01  2.000E+01  2.000E+04 -1.613E+00
   1   16    5     1     5    2.3067E+05 -3.3776E+04   2.6445E+05  0.000E+00  0.000E+00  0.000E+00  4.66015E+01  2.492E-01  2.000E+01  2.000E+04 -1.689E+00
   1   16    6     1     6    2.6445E+05 -2.9474E+04   2.9392E+05  0.000E+00  0.000E+00  0.000E+00  4.61428E+01  2.678E-01  2.000E+01  2.000E+04 -1.474E+00
   1   16    7     1     7    2.9392E+05 -2.9252E+04   3.2317E+05  0.000E+00  0.000E+00  0.000E+00  4.56821E+01  2.844E-01  2.000E+01  2.000E+04 -1.463E+00
   1   16    8     1     8    3.2317E+05 -2.9374E+04   3.5255E+05  0.000E+00  0.000E+00  0.000E+00  4.52208E+01  3.003E-01  2.000E+01  2.000E+04 -1.469E+00
   1   16    9     1     9    3.5255E+05 -2.9369E+04   3.8192E+05  0.000E+00  0.000E+00  0.000E+00  4.47589E+01  3.157E-01  2.000E+01  2.000E+04 -1.468E+00
   1   16   10     1    10    3.8192E+05 -2.9272E+04   4.1119E+05  0.000E+00  0.000E+00  0.000E+00  4.42965E+01  3.306E-01  2.000E+01  2.000E+04 -1.464E+00
   1   16   11     1    11    4.1119E+05 -2.9656E+04   4.4084E+05  0.000E+00  0.000E+00  0.000E+00  4.38338E+01  3.451E-01  2.000E+01  2.000E+04 -1.483E+00
   1   16   12     1    12    4.4084E+05 -3.4525E+04   4.7537E+05  0.000E+00  0.000E+00  0.000E+00  4.33719E+01  3.605E-01  2.000E+01  2.000E+04 -1.726E+00
   1   15   13     1    13    4.7537E+05 -3.2631E+04   5.0800E+05  0.000E+00  0.000E+00  0.000E+00  4.29102E+01  3.761E-01  2.000E+01  2.000E+04 -1.632E+00
   1   14   14     1    14    5.0800E+05 -3.2828E+04   5.4083E+05  0.000E+00  0.000E+00  0.000E+00  4.24478E+01  3.910E-01  2.000E+01  2.000E+04 -1.641E+00
   1   13   15     1    15    5.4083E+05 -3.5262E+04   5.7609E+05  0.000E+00  0.000E+00  0.000E+00  4.19855E+01  4.060E-01  2.000E+01  2.000E+04 -1.763E+00
   1   12   16     1    16    5.7609E+05 -4.2218E+04   6.1831E+05  0.000E+00  0.000E+00  0.000E+00  4.15249E+01  4.227E-01  2.000E+01  2.000E+04 -2.111E+00
   1   12   17     1    17    6.1831E+05 -3.2682E+04   6.5099E+05  0.000E+00  0.000E+00  0.000E+00  4.10634E+01  4.384E-01  2.000E+01  2.000E+04 -1.634E+00
   1   12   18     1    18    6.5099E+05 -3.1194E+04   6.8218E+05  0.000E+00  0.000E+00  0.000E+00  4.05992E+01  4.515E-01  2.000E+01  2.000E+04 -1.560E+00
   1   12   19     1    19    6.8218E+05 -3.5550E+04   7.1773E+05  0.000E+00  0.000E+00  0.000E+00  4.01354E+01  4.649E-01  2.000E+01  2.000E+04 -1.777E+00
   1   13   20     1    20    7.1773E+05 -2.5289E+04   7.4302E+05  0.000E+00  0.000E+00  0.000E+00  3.96701E+01  4.769E-01  2.000E+01  2.000E+04 -1.264E+00
   1   14   21     1    21    7.4302E+05 -1.8201E+04   7.6122E+05  0.000E+00  0.000E+00  0.000E+00  3.92013E+01  4.854E-01  2.000E+01  2.000E+04 -9.100E-01
   1   14   22     1    22    7.6122E+05 -1.3303E+03   7.6255E+05  0.000E+00  0.000E+00  0.000E+00  3.87278E+01  4.892E-01  2.000E+01  2.000E+04 -6.652E-02
   1    9   30     2     1    5.0000E+04 -2.6514E+04   7.6514E+04  0.000E+00  0.000E+00  0.000E+00  4.02584E+01  1.334E-01  2.000E+01  2.000E+04 -1.326E+00
   1    9   29     2     2    7.6514E+04 -2.8976E+04   1.0549E+05  0.000E+00  0.000E+00  0.000E+00  4.00410E+01  1.660E-01  2.000E+01  2.000E+04 -1.449E+00
   1    9   28     2     3    1.0549E+05 -3.3257E+04   1.3875E+05  0.000E+00  0.000E+00  0.000E+00  3.98230E+01  1.980E-01  2.000E+01  2.000E+04 -1.663E+00
   1    9   27     2     4    1.3875E+05 -4.7383E+04   1.8613E+05  0.000E+00  0.000E+00  0.000E+00  3.96100E+01  2.350E-01  2.000E+01  2.000E+04 -2.369E+00
   1   10   26     2     5    1.8613E+05 -3.3180E+04   2.1931E+05  0.000E+00  0.000E+00  0.000E+00  3.93934E+01  2.684E-01  2.000E+01  2.000E+04 -1.659E+00
   1   11   25     2     6    2.1931E+05 -2.4500E+04   2.4381E+05  0.000E+00  0.000E+00  0.000E+00  3.91656E+01  2.906E-01  2.000E+01  2.000E+04 -1.225E+00
   1   12   24     2     7    2.4381E+05 -1.7582E+04   2.6139E+05  0.000E+00  0.000E+00  0.000E+00  3.89312E+01  3.062E-01  2.000E+01  2.000E+04 -8.791E-01
   1   13   23     2     8    2.6139E+05 -1.2289E+04   2.7368E+05  0.000E+00  0.000E+00  0.000E+00  3.86920E+01  3.170E-01  2.000E+01  2.000E+04 -6.145E-01
   1   14   22     2     9    2.7368E+05 -6.9117E+03   2.8059E+05  0.000E+00  0.000E+00  0.000E+00  3.84487E+01  3.237E-01  2.000E+01  2.000E+04 -3.456E-01
   1   14   22     3     1    1.0431E+06 -1.4931E+04   1.0581E+06  0.000E+00  0.000E+00  0.000E+00  3.80478E+01  4.922E-01  2.000E+01  2.000E+04 -7.465E-01
   1   15   23     3     2    1.0581E+06 -2.2543E+04   1.0806E+06  0.000E+00  0.000E+00  0.000E+00  3.71641E+01  4.975E-01  2.000E+01  2.000E+04 -1.127E+00
   1   15   24     3     3    1.0806E+06 -1.8276E+04   1.0989E+06  0.000E+00  0.000E+00  0.000E+00  3.62809E+01  5.032E-01  2.000E+01  2.000E+04 -9.138E-01
   1   15   25     3     4    1.0989E+06 -1.6743E+04   1.1156E+06  0.000E+00  0.000E+00  0.000E+00  3.53969E+01  5.080E-01  2.000E+01  2.000E+04 -8.372E-01
   1   15   26     3     5    1.1156E+06 -2.0631E+04   1.1363E+06  0.000E+00  0.000E+00  0.000E+00  3.45131E+01  5.131E-01  2.000E+01  2.000E+04 -1.032E+00
   1   16   27     3     6    1.1363E+06 -2.8726E+04   1.1650E+06  0.000E+00  0.000E+00  0.000E+00  3.36309E+01  5.198E-01  2.000E+01  2.000E+04 -1.436E+00
   1   17   28     3     7    1.1650E+06 -3.6058E+04   1.2011E+06  0.000E+00  0.000E+00  0.000E+00  3.27508E+01  5.286E-01  2.000E+01  2.000E+04 -1.803E+00
   1   18   29     3     8    1.2011E+06 -4.7184E+04   1.2482E+06  0.000E+00  0.000E+00  0.000E+00  3.18730E+01  5.396E-01  2.000E+01  2.000E+04 -2.359E+00
   1   18   30     3     9    1.2482E+06 -4.3657E+04   1.2919E+06  0.000E+00  0.000E+00  0.000E+00  3.09960E+01  5.516E-01  2.000E+01  2.000E+04 -2.183E+00



1
              HEAD IN LAYER   1 AT END OF TIME STEP   1 IN STRESS PERIOD    4
  ---------------------------------------------------------------------------

          1      2      3      4      5      6      7      8      9     10
         11     12     13     14     15     16     17     18     19     20
         21     22     23     24     25     26     27     28     29     30
 .........................................................................
   1  ****** ****** ****** ****** ****** ****** ****** ****** ****** ******
      ****** ****** ****** ****** ****** ****** ****** ****** ****** ******
      ****** ****** ****** ****** ****** ****** ****** ****** ****** ******
   2  ****** ****** ****** ****** ****** ****** ****** ****** ****** ******
      ****** ****** ****** ****** ****** ****** ****** ****** ****** ******
      ****** ****** ****** ****** ****** ****** ****** ****** ****** ******
   3  ****** ****** ****** ****** ****** ****** ****** ****** ****** ******
      ****** ****** ****** ****** ****** ****** ****** ****** ****** ******
      ****** ****** ****** ****** ****** ****** ****** ****** ****** ******
   4  ****** ****** ****** ****** ****** ****** ****** ****** ****** ******
      ****** ****** ****** ****** ****** ****** ****** ****** ****** ******
      ****** ****** ****** ****** ****** ****** ****** ****** ****** ******
   5  ****** ****** ****** ****** ****** ****** ****** ****** ****** ******
      ****** ****** ****** ****** ****** ****** ****** ****** ****** ******
      ****** ****** ****** ****** ****** ****** ****** ****** ****** ******
   6  ****** ****** ****** ****** ****** ****** ****** ****** ****** ******
      ****** ****** ****** ****** ****** ****** ****** ****** ****** ******
      ****** ****** ****** ****** ****** ****** ****** ****** ****** ******
   7  ****** ****** ****** ****** ****** ****** ****** ****** ****** ******
      ****** ****** ****** ****** ****** ****** ****** ****** ****** ******
      ****** ****** ****** ****** ****** ****** ****** ****** ****** ******
   8  ****** ****** ****** ****** ****** ****** ****** ****** ****** ******
      ****** ****** ****** ****** ****** ****** ****** ****** ****** ******
      ****** ****** ****** ****** ****** ****** ****** ****** ****** ******
   9  ****** ****** ****** ****** ****** ****** ****** ****** ****** ******
      ****** ****** ****** ****** ****** ****** ****** ****** ****** ******
      ****** ****** ****** ****** ****** ****** ****** ****** ****** ******
  10  ****** ****** ****** ****** ****** ****** ****** ****** ****** ******
      ****** ****** ****** ****** ****** ****** ****** ****** ****** ******
      ****** ****** ****** ****** ****** ****** ****** ****** ****** ******
  11  ****** ****** ****** ****** ****** ****** ****** ****** ****** ******
      ****** ****** ****** ****** ****** ****** ****** ****** ****** ******
      ****** ****** ****** ****** ****** ****** ****** ****** ****** ******
  12  ****** ****** ****** ****** ****** ****** ****** ****** ****** ******
      ****** ****** ****** ****** ****** ****** ****** ****** ****** ******
      ****** ****** ****** ****** ****** ****** ****** ****** ****** ******
  13  ****** ****** ****** ****** ****** ****** ****** ****** ****** ******
      ****** ****** ****** ****** ****** ****** ****** ****** ****** ******
      ****** ****** ****** ****** ****** ****** ****** ****** ****** ******
  14  ****** ****** ****** ****** ****** ****** ****** ****** ****** ******
      ****** ****** ****** ****** ****** ****** ****** ****** ****** ******
      ****** ****** ****** ****** ****** ****** ****** ****** ****** ******
  15  ****** ****** ****** ****** ****** ****** ****** ****** ****** ******
      ****** ****** ****** ****** ****** ****** ****** ****** ****** ******
      ****** ****** ****** ****** ****** ****** ****** ****** ****** ******
  16  ****** ****** ****** ****** ****** ****** ****** ****** ****** ******
      ****** ****** ****** ****** ****** ****** ****** ****** ****** ******
      ****** ****** ****** ****** ****** ****** ****** ****** ****** ******
  17  ****** ****** ****** ****** ****** ****** ****** ****** ****** ******
      ****** ****** ****** ****** ****** ****** ****** ****** ****** ******
      ****** ****** ****** ****** ****** ****** ****** ****** ****** ******
  18  ****** ****** ****** ****** ****** ****** ****** ****** ****** ******
      ****** ****** ****** ****** ****** ****** ****** ****** ****** ******
      ****** ****** ****** ****** ****** ****** ****** ****** ****** ******
  19  ****** ****** ****** ****** ****** ****** ****** ****** ****** ******
      ****** ****** ****** ****** ****** ****** ****** ****** ****** ******
      ****** ****** ****** ****** ****** ****** ****** ****** ****** ******
  20  ****** ****** ****** ****** ****** ****** ****** ****** ****** ******
      ****** ****** ****** ****** ****** ****** ****** ****** ****** ******
      ****** ****** ****** ****** ****** ****** ****** ****** ****** ******
  21  ****** ****** ****** ****** ****** ****** ****** ****** ****** ******
      ****** ****** ****** ****** ****** ****** ****** ****** ****** ******
      ****** ****** ****** ****** ****** ****** ****** ****** ****** ******
  22  ****** ****** ****** ****** ****** ****** ****** ****** ****** ******
      ****** ****** ****** ****** ****** ****** ****** ****** ****** ******
      ****** ****** ****** ****** ****** ****** ****** ****** ****** ******
  23  ****** ****** ****** ****** ****** ****** ****** ****** ****** ******
      ****** ****** ****** ****** ****** ****** ****** ****** ****** ******
      ****** ****** ****** ****** ****** ****** ****** ****** ****** ******
  24  ****** ****** ****** ****** ****** ****** ****** ****** ****** ******
      ****** ****** ****** ****** ****** ****** ****** ****** ****** ******
      ****** ****** ****** ****** ****** ****** ****** ****** ****** ******
  25  ****** ****** ****** ****** ****** ****** ****** ****** ****** ******
      ****** ****** ****** ****** ****** ****** ****** ****** ****** ******
      ****** ****** ****** ****** ****** ****** ****** ****** ****** ******

 HEAD WILL BE SAVED ON UNIT   51 AT END OF TIME STEP    1, STRESS PERIOD    4
1
  VOLUMETRIC BUDGET FOR ENTIRE MODEL AT END OF TIME STEP    1, STRESS PERIOD   4
  ------------------------------------------------------------------------------

     CUMULATIVE VOLUMES      L**3       RATES FOR THIS TIME STEP      L**3/T
     ------------------                 ------------------------

           IN:                                      IN:
           ---                                      ---
             STORAGE =    20010427.5959               STORAGE =          64.6594
       CONSTANT HEAD =   416988064.1018         CONSTANT HEAD =     1156099.2191
               WELLS =           0.0000                 WELLS =           0.0000
            RECHARGE =     8804400.0000              RECHARGE =       27600.0000
      STREAM LEAKAGE =           0.0000        STREAM LEAKAGE =           0.0000

            TOTAL IN =   445802891.6977              TOTAL IN =     1183763.8785

          OUT:                                     OUT:
          ----                                     ----
             STORAGE =      144470.8608               STORAGE =        1072.4930
       CONSTANT HEAD =           0.0000         CONSTANT HEAD =           0.0000
               WELLS =    18679232.1749                 WELLS =       40796.0382
            RECHARGE =           0.0000              RECHARGE =           0.0000
      STREAM LEAKAGE =   426979198.0255        STREAM LEAKAGE =     1141895.3279

           TOTAL OUT =   445802901.0613             TOTAL OUT =     1183763.8591

            IN - OUT =          -9.3636              IN - OUT =       1.9350E-02

 PERCENT DISCREPANCY =          -0.00     PERCENT DISCREPANCY =           0.00






         TIME SUMMARY AT END OF TIME STEP    1 IN STRESS PERIOD    4
                    SECONDS     MINUTES      HOURS       DAYS        YEARS
                    -----------------------------------------------------------
   TIME STEP LENGTH 7.86240E+06 1.31040E+05  2184.0      91.000     0.24914    
 STRESS PERIOD TIME 7.86240E+06 1.31040E+05  2184.0      91.000     0.24914    
         TOTAL TIME 3.15360E+07 5.25600E+05  8760.0      365.00     0.99932    
1
1
                            STRESS PERIOD NO.    5, LENGTH =   92.00000    
                            -----------------------------------------------

                              NUMBER OF TIME STEPS =     1

                               MULTIPLIER FOR DELT =     1.500

                            INITIAL TIME STEP SIZE =   92.00000    

 WELL NO.  LAYER   ROW   COL   STRESS RATE         
 --------------------------------------------------
      1      1     12     11      -3484.    
      2      1     16     17     -0.5000E+05

      2 WELLS

                 RECHARGE =  5.000000E-04

 REUSING STREAM SEGMENT DATA FROM LAST STRESS PERIOD
 
 SOLVING FOR HEAD 


     6 CALLS TO PCG ROUTINE FOR TIME STEP   1 IN STRESS PERIOD    5
    22 TOTAL ITERATIONS

 OUTPUT CONTROL FOR STRESS PERIOD    5   TIME STEP    1
    SAVE BUDGET
    SAVE HEAD FOR ALL LAYERS
    PRINT HEAD FOR ALL LAYERS
 UBDSV2 SAVING "STREAMFLOW OUT  " ON UNIT  50 AT TIME STEP  1, STRESS PERIOD   5



 STREAM LISTING     PERIOD      5   STEP        1

 LAYER ROW COL. STREAM  RCH.  FLOW INTO     FLOW TO   FLOW OUT OF   OVRLND.     DIRECT     STREAM       STREAM     STREAM     STREAM   STREAMBED  STREAMBED
                SEG.NO.  NO.  STRM. RCH.    AQUIFER    STRM. RCH.    RUNOFF     PRECIP       ET          HEAD       DEPTH      WIDTH   CONDCTNC.   GRADIENT

   1   13    1     1     1    1.0000E+05 -2.7616E+04   1.2762E+05  0.000E+00  0.000E+00  0.000E+00  4.84177E+01  1.563E-01  2.000E+01  2.000E+04 -1.381E+00
   1   13    2     1     2    1.2762E+05 -3.7297E+04   1.6491E+05  0.000E+00  0.000E+00  0.000E+00  4.79658E+01  1.817E-01  2.000E+01  2.000E+04 -1.865E+00
   1   14    3     1     3    1.6491E+05 -3.2767E+04   1.9768E+05  0.000E+00  0.000E+00  0.000E+00  4.75135E+01  2.067E-01  2.000E+01  2.000E+04 -1.638E+00
   1   15    4     1     4    1.9768E+05 -3.1995E+04   2.2967E+05  0.000E+00  0.000E+00  0.000E+00  4.70577E+01  2.281E-01  2.000E+01  2.000E+04 -1.600E+00
   1   16    5     1     5    2.2967E+05 -3.3521E+04   2.6320E+05  0.000E+00  0.000E+00  0.000E+00  4.66008E+01  2.485E-01  2.000E+01  2.000E+04 -1.676E+00
   1   16    6     1     6    2.6320E+05 -2.9236E+04   2.9243E+05  0.000E+00  0.000E+00  0.000E+00  4.61420E+01  2.670E-01  2.000E+01  2.000E+04 -1.462E+00
   1   16    7     1     7    2.9243E+05 -2.8993E+04   3.2142E+05  0.000E+00  0.000E+00  0.000E+00  4.56812E+01  2.835E-01  2.000E+01  2.000E+04 -1.450E+00
   1   16    8     1     8    3.2142E+05 -2.9079E+04   3.5050E+05  0.000E+00  0.000E+00  0.000E+00  4.52197E+01  2.993E-01  2.000E+01  2.000E+04 -1.454E+00
   1   16    9     1     9    3.5050E+05 -2.9016E+04   3.7952E+05  0.000E+00  0.000E+00  0.000E+00  4.47577E+01  3.146E-01  2.000E+01  2.000E+04 -1.451E+00
   1   16   10     1    10    3.7952E+05 -2.8821E+04   4.0834E+05  0.000E+00  0.000E+00  0.000E+00  4.42952E+01  3.293E-01  2.000E+01  2.000E+04 -1.441E+00
   1   16   11     1    11    4.0834E+05 -2.8999E+04   4.3734E+05  0.000E+00  0.000E+00  0.000E+00  4.38322E+01  3.436E-01  2.000E+01  2.000E+04 -1.450E+00
   1   16   12     1    12    4.3734E+05 -3.3226E+04   4.7056E+05  0.000E+00  0.000E+00  0.000E+00  4.33699E+01  3.585E-01  2.000E+01  2.000E+04 -1.661E+00
   1   15   13     1    13    4.7056E+05 -3.0851E+04   5.0142E+05  0.000E+00  0.000E+00  0.000E+00  4.29076E+01  3.735E-01  2.000E+01  2.000E+04 -1.543E+00
   1   14   14     1    14    5.0142E+05 -3.0717E+04   5.3213E+05  0.000E+00  0.000E+00  0.000E+00  4.24443E+01  3.875E-01  2.000E+01  2.000E+04 -1.536E+00
   1   13   15     1    15    5.3213E+05 -3.3290E+04   5.6542E+05  0.000E+00  0.000E+00  0.000E+00  4.19813E+01  4.018E-01  2.000E+01  2.000E+04 -1.665E+00
   1   12   16     1    16    5.6542E+05 -4.0980E+04   6.0640E+05  0.000E+00  0.000E+00  0.000E+00  4.15201E+01  4.179E-01  2.000E+01  2.000E+04 -2.049E+00
   1   12   17     1    17    6.0640E+05 -3.1358E+04   6.3776E+05  0.000E+00  0.000E+00  0.000E+00  4.10581E+01  4.331E-01  2.000E+01  2.000E+04 -1.568E+00
   1   12   18     1    18    6.3776E+05 -2.9973E+04   6.6773E+05  0.000E+00  0.000E+00  0.000E+00  4.05936E+01  4.458E-01  2.000E+01  2.000E+04 -1.499E+00
   1   12   19     1    19    6.6773E+05 -3.4559E+04   7.0229E+05  0.000E+00  0.000E+00  0.000E+00  4.01294E+01  4.589E-01  2.000E+01  2.000E+04 -1.728E+00
   1   13   20     1    20    7.0229E+05 -2.3854E+04   7.2615E+05  0.000E+00  0.000E+00  0.000E+00  3.96638E+01  4.706E-01  2.000E+01  2.000E+04 -1.193E+00
   1   14   21     1    21    7.2615E+05 -1.6832E+04   7.4298E+05  0.000E+00  0.000E+00  0.000E+00  3.91945E+01  4.786E-01  2.000E+01  2.000E+04 -8.416E-01
   1   14   22     1    22    7.4298E+05 -1.2119E+03   7.4419E+05  0.000E+00  0.000E+00  0.000E+00  3.87207E+01  4.821E-01  2.000E+01  2.000E+04 -6.059E-02
   1    9   30     2     1    5.0000E+04 -2.6467E+04   7.6467E+04  0.000E+00  0.000E+00  0.000E+00  4.02584E+01  1.334E-01  2.000E+01  2.000E+04 -1.323E+00
   1    9   29     2     2    7.6467E+04 -2.8933E+04   1.0540E+05  0.000E+00  0.000E+00  0.000E+00  4.00409E+01  1.659E-01  2.000E+01  2.000E+04 -1.447E+00
   1    9   28     2     3    1.0540E+05 -3.3217E+04   1.3862E+05  0.000E+00  0.000E+00  0.000E+00  3.98229E+01  1.979E-01  2.000E+01  2.000E+04 -1.661E+00
   1    9   27     2     4    1.3862E+05 -4.7316E+04   1.8593E+05  0.000E+00  0.000E+00  0.000E+00  3.96098E+01  2.348E-01  2.000E+01  2.000E+04 -2.366E+00
   1   10   26     2     5    1.8593E+05 -3.3264E+04   2.1920E+05  0.000E+00  0.000E+00  0.000E+00  3.93932E+01  2.682E-01  2.000E+01  2.000E+04 -1.663E+00
   1   11   25     2     6    2.1920E+05 -2.4885E+04   2.4408E+05  0.000E+00  0.000E+00  0.000E+00  3.91657E+01  2.907E-01  2.000E+01  2.000E+04 -1.244E+00
   1   12   24     2     7    2.4408E+05 -1.8258E+04   2.6234E+05  0.000E+00  0.000E+00  0.000E+00  3.89317E+01  3.067E-01  2.000E+01  2.000E+04 -9.129E-01
   1   13   23     2     8    2.6234E+05 -1.2760E+04   2.7510E+05  0.000E+00  0.000E+00  0.000E+00  3.86928E+01  3.178E-01  2.000E+01  2.000E+04 -6.380E-01
   1   14   22     2     9    2.7510E+05 -6.6337E+03   2.8173E+05  0.000E+00  0.000E+00  0.000E+00  3.84496E+01  3.246E-01  2.000E+01  2.000E+04 -3.317E-01
   1   14   22     3     1    1.0259E+06 -1.4768E+04   1.0407E+06  0.000E+00  0.000E+00  0.000E+00  3.80429E+01  4.873E-01  2.000E+01  2.000E+04 -7.384E-01
   1   15   23     3     2    1.0407E+06 -2.2210E+04   1.0629E+06  0.000E+00  0.000E+00  0.000E+00  3.71592E+01  4.926E-01  2.000E+01  2.000E+04 -1.110E+00
   1   15   24     3     3    1.0629E+06 -1.9019E+04   1.0819E+06  0.000E+00  0.000E+00  0.000E+00  3.62761E+01  4.983E-01  2.000E+01  2.000E+04 -9.509E-01
   1   15   25     3     4    1.0819E+06 -1.8888E+04   1.1008E+06  0.000E+00  0.000E+00  0.000E+00  3.53925E+01  5.036E-01  2.000E+01  2.000E+04 -9.444E-01
   1   15   26     3     5    1.1008E+06 -2.1778E+04   1.1226E+06  0.000E+00  0.000E+00  0.000E+00  3.45092E+01  5.092E-01  2.000E+01  2.000E+04 -1.089E+00
   1   16   27     3     6    1.1226E+06 -2.8864E+04   1.1515E+06  0.000E+00  0.000E+00  0.000E+00  3.36272E+01  5.161E-01  2.000E+01  2.000E+04 -1.443E+00
   1   17   28     3     7    1.1515E+06 -3.5962E+04   1.1874E+06  0.000E+00  0.000E+00  0.000E+00  3.27471E+01  5.249E-01  2.000E+01  2.000E+04 -1.798E+00
   1   18   29     3     8    1.1874E+06 -4.7013E+04   1.2344E+06  0.000E+00  0.000E+00  0.000E+00  3.18693E+01  5.360E-01  2.000E+01  2.000E+04 -2.351E+00
   1   18   30     3     9    1.2344E+06 -4.3543E+04   1.2780E+06  0.000E+00  0.000E+00  0.000E+00  3.09924E+01  5.479E-01  2.000E+01  2.000E+04 -2.177E+00



1
              HEAD IN LAYER   1 AT END OF TIME STEP   1 IN STRESS PERIOD    5
  ---------------------------------------------------------------------------

          1      2      3      4      5      6      7      8      9     10
         11     12     13     14     15     16     17     18     19     20
         21     22     23     24     25     26     27     28     29     30
 .........................................................................
   1  ****** ****** ****** ****** ****** ****** ****** ****** ****** ******
      ****** ****** ****** ****** ****** ****** ****** ****** ****** ******
      ****** ****** ****** ****** ****** ****** ****** ****** ****** ******
   2  ****** ****** ****** ****** ****** ****** ****** ****** ****** ******
      ****** ****** ****** ****** ****** ****** ****** ****** ****** ******
      ****** ****** ****** ****** ****** ****** ****** ****** ****** ******
   3  ****** ****** ****** ****** ****** ****** ****** ****** ****** ******
      ****** ****** ****** ****** ****** ****** ****** ****** ****** ******
      ****** ****** ****** ****** ****** ****** ****** ****** ****** ******
   4  ****** ****** ****** ****** ****** ****** ****** ****** ****** ******
      ****** ****** ****** ****** ****** ****** ****** ****** ****** ******
      ****** ****** ****** ****** ****** ****** ****** ****** ****** ******
   5  ****** ****** ****** ****** ****** ****** ****** ****** ****** ******
      ****** ****** ****** ****** ****** ****** ****** ****** ****** ******
      ****** ****** ****** ****** ****** ****** ****** ****** ****** ******
   6  ****** ****** ****** ****** ****** ****** ****** ****** ****** ******
      ****** ****** ****** ****** ****** ****** ****** ****** ****** ******
      ****** ****** ****** ****** ****** ****** ****** ****** ****** ******
   7  ****** ****** ****** ****** ****** ****** ****** ****** ****** ******
      ****** ****** ****** ****** ****** ****** ****** ****** ****** ******
      ****** ****** ****** ****** ****** ****** ****** ****** ****** ******
   8  ****** ****** ****** ****** ****** ****** ****** ****** ****** ******
      ****** ****** ****** ****** ****** ****** ****** ****** ****** ******
      ****** ****** ****** ****** ****** ****** ****** ****** ****** ******
   9  ****** ****** ****** ****** ****** ****** ****** ****** ****** ******
      ****** ****** ****** ****** ****** ****** ****** ****** ****** ******
      ****** ****** ****** ****** ****** ****** ****** ****** ****** ******
  10  ****** ****** ****** ****** ****** ****** ****** ****** ****** ******
      ****** ****** ****** ****** ****** ****** ****** ****** ****** ******
      ****** ****** ****** ****** ****** ****** ****** ****** ****** ******
  11  ****** ****** ****** ****** ****** ****** ****** ****** ****** ******
      ****** ****** ****** ****** ****** ****** ****** ****** ****** ******
      ****** ****** ****** ****** ****** ****** ****** ****** ****** ******
  12  ****** ****** ****** ****** ****** ****** ****** ****** ****** ******
      ****** ****** ****** ****** ****** ****** ****** ****** ****** ******
      ****** ****** ****** ****** ****** ****** ****** ****** ****** ******
  13  ****** ****** ****** ****** ****** ****** ****** ****** ****** ******
      ****** ****** ****** ****** ****** ****** ****** ****** ****** ******
      ****** ****** ****** ****** ****** ****** ****** ****** ****** ******
  14  ****** ****** ****** ****** ****** ****** ****** ****** ****** ******
      ****** ****** ****** ****** ****** ****** ****** ****** ****** ******
      ****** ****** ****** ****** ****** ****** ****** ****** ****** ******
  15  ****** ****** ****** ****** ****** ****** ****** ****** ****** ******
      ****** ****** ****** ****** ****** ****** ****** ****** ****** ******
      ****** ****** ****** ****** ****** ****** ****** ****** ****** ******
  16  ****** ****** ****** ****** ****** ****** ****** ****** ****** ******
      ****** ****** ****** ****** ****** ****** ****** ****** ****** ******
      ****** ****** ****** ****** ****** ****** ****** ****** ****** ******
  17  ****** ****** ****** ****** ****** ****** ****** ****** ****** ******
      ****** ****** ****** ****** ****** ****** ****** ****** ****** ******
      ****** ****** ****** ****** ****** ****** ****** ****** ****** ******
  18  ****** ****** ****** ****** ****** ****** ****** ****** ****** ******
      ****** ****** ****** ****** ****** ****** ****** ****** ****** ******
      ****** ****** ****** ****** ****** ****** ****** ****** ****** ******
  19  ****** ****** ****** ****** ****** ****** ****** ****** ****** ******
      ****** ****** ****** ****** ****** ****** ****** ****** ****** ******
      ****** ****** ****** ****** ****** ****** ****** ****** ****** ******
  20  ****** ****** ****** ****** ****** ****** ****** ****** ****** ******
      ****** ****** ****** ****** ****** ****** ****** ****** ****** ******
      ****** ****** ****** ****** ****** ****** ****** ****** ****** ******
  21  ****** ****** ****** ****** ****** ****** ****** ****** ****** ******
      ****** ****** ****** ****** ****** ****** ****** ****** ****** ******
      ****** ****** ****** ****** ****** ****** ****** ****** ****** ******
  22  ****** ****** ****** ****** ****** ****** ****** ****** ****** ******
      ****** ****** ****** ****** ****** ****** ****** ****** ****** ******
      ****** ****** ****** ****** ****** ****** ****** ****** ****** ******
  23  ****** ****** ****** ****** ****** ****** ****** ****** ****** ******
      ****** ****** ****** ****** ****** ****** ****** ****** ****** ******
      ****** ****** ****** ****** ****** ****** ****** ****** ****** ******
  24  ****** ****** ****** ****** ****** ****** ****** ****** ****** ******
      ****** ****** ****** ****** ****** ****** ****** ****** ****** ******
      ****** ****** ****** ****** ****** ****** ****** ****** ****** ******
  25  ****** ****** ****** ****** ****** ****** ****** ****** ****** ******
      ****** ****** ****** ****** ****** ****** ****** ****** ****** ******
      ****** ****** ****** ****** ****** ****** ****** ****** ****** ******

 HEAD WILL BE SAVED ON UNIT   51 AT END OF TIME STEP    1, STRESS PERIOD    5
1
  VOLUMETRIC BUDGET FOR ENTIRE MODEL AT END OF TIME STEP    1, STRESS PERIOD   5
  ------------------------------------------------------------------------------

     CUMULATIVE VOLUMES      L**3       RATES FOR THIS TIME STEP      L**3/T
     ------------------                 ------------------------

           IN:                                      IN:
           ---                                      ---
             STORAGE =    20171035.6773               STORAGE =        1745.7400
       CONSTANT HEAD =   524258757.1403         CONSTANT HEAD =     1165985.7939
               WELLS =           0.0000                 WELLS =           0.0000
            RECHARGE =    10074000.0000              RECHARGE =       13800.0000
      STREAM LEAKAGE =           0.0000        STREAM LEAKAGE =           0.0000

            TOTAL IN =   554503792.8176              TOTAL IN =     1181531.5339

          OUT:                                     OUT:
          ----                                     ----
             STORAGE =      151684.6819               STORAGE =          78.4111
       CONSTANT HEAD =           0.0000         CONSTANT HEAD =           0.0000
               WELLS =    23599795.5639                 WELLS =       53484.3847
            RECHARGE =           0.0000              RECHARGE =           0.0000
      STREAM LEAKAGE =   530752323.5864        STREAM LEAKAGE =     1127968.7561

           TOTAL OUT =   554503803.8321             TOTAL OUT =     1181531.5519

            IN - OUT =         -11.0145              IN - OUT =      -1.7945E-02

 PERCENT DISCREPANCY =          -0.00     PERCENT DISCREPANCY =          -0.00






         TIME SUMMARY AT END OF TIME STEP    1 IN STRESS PERIOD    5
                    SECONDS     MINUTES      HOURS       DAYS        YEARS
                    -----------------------------------------------------------
   TIME STEP LENGTH 7.94880E+06 1.32480E+05  2208.0      92.000     0.25188    
 STRESS PERIOD TIME 7.94880E+06 1.32480E+05  2208.0      92.000     0.25188    
         TOTAL TIME 3.94848E+07 6.58080E+05  10968.      457.00      1.2512    
1
1
                            STRESS PERIOD NO.    6, LENGTH =   91.00000    
                            -----------------------------------------------

                              NUMBER OF TIME STEPS =     1

                               MULTIPLIER FOR DELT =     1.500

                            INITIAL TIME STEP SIZE =   91.00000    

 WELL NO.  LAYER   ROW   COL   STRESS RATE         
 --------------------------------------------------
      1      1     12     11      -3484.    
      2      1     16     17     -0.2750E+05
      3      1     14     25     -0.4902E+05

      3 WELLS

                 RECHARGE =  2.000000E-03

 REUSING STREAM SEGMENT DATA FROM LAST STRESS PERIOD
 
 SOLVING FOR HEAD 


     6 CALLS TO PCG ROUTINE FOR TIME STEP   1 IN STRESS PERIOD    6
    23 TOTAL ITERATIONS

 OUTPUT CONTROL FOR STRESS PERIOD    6   TIME STEP    1
    SAVE BUDGET
    SAVE HEAD FOR ALL LAYERS
    PRINT HEAD FOR ALL LAYERS
 UBDSV2 SAVING "STREAMFLOW OUT  " ON UNIT  50 AT TIME STEP  1, STRESS PERIOD   6



 STREAM LISTING     PERIOD      6   STEP        1

 LAYER ROW COL. STREAM  RCH.  FLOW INTO     FLOW TO   FLOW OUT OF   OVRLND.     DIRECT     STREAM       STREAM     STREAM     STREAM   STREAMBED  STREAMBED
                SEG.NO.  NO.  STRM. RCH.    AQUIFER    STRM. RCH.    RUNOFF     PRECIP       ET          HEAD       DEPTH      WIDTH   CONDCTNC.   GRADIENT

   1   13    1     1     1    1.0000E+05 -2.8280E+04   1.2828E+05  0.000E+00  0.000E+00  0.000E+00  4.84180E+01  1.566E-01  2.000E+01  2.000E+04 -1.414E+00
   1   13    2     1     2    1.2828E+05 -3.8092E+04   1.6637E+05  0.000E+00  0.000E+00  0.000E+00  4.79666E+01  1.825E-01  2.000E+01  2.000E+04 -1.905E+00
   1   14    3     1     3    1.6637E+05 -3.3550E+04   1.9992E+05  0.000E+00  0.000E+00  0.000E+00  4.75148E+01  2.080E-01  2.000E+01  2.000E+04 -1.677E+00
   1   15    4     1     4    1.9992E+05 -3.2755E+04   2.3268E+05  0.000E+00  0.000E+00  0.000E+00  4.70593E+01  2.298E-01  2.000E+01  2.000E+04 -1.638E+00
   1   16    5     1     5    2.3268E+05 -3.4223E+04   2.6690E+05  0.000E+00  0.000E+00  0.000E+00  4.66028E+01  2.505E-01  2.000E+01  2.000E+04 -1.711E+00
   1   16    6     1     6    2.6690E+05 -2.9860E+04   2.9676E+05  0.000E+00  0.000E+00  0.000E+00  4.61444E+01  2.694E-01  2.000E+01  2.000E+04 -1.493E+00
   1   16    7     1     7    2.9676E+05 -2.9632E+04   3.2639E+05  0.000E+00  0.000E+00  0.000E+00  4.56838E+01  2.861E-01  2.000E+01  2.000E+04 -1.482E+00
   1   16    8     1     8    3.2639E+05 -2.9752E+04   3.5615E+05  0.000E+00  0.000E+00  0.000E+00  4.52226E+01  3.021E-01  2.000E+01  2.000E+04 -1.488E+00
   1   16    9     1     9    3.5615E+05 -2.9740E+04   3.8589E+05  0.000E+00  0.000E+00  0.000E+00  4.47608E+01  3.177E-01  2.000E+01  2.000E+04 -1.487E+00
   1   16   10     1    10    3.8589E+05 -2.9632E+04   4.1552E+05  0.000E+00  0.000E+00  0.000E+00  4.42986E+01  3.327E-01  2.000E+01  2.000E+04 -1.482E+00
   1   16   11     1    11    4.1552E+05 -3.0003E+04   4.4552E+05  0.000E+00  0.000E+00  0.000E+00  4.38359E+01  3.473E-01  2.000E+01  2.000E+04 -1.500E+00
   1   16   12     1    12    4.4552E+05 -3.4887E+04   4.8041E+05  0.000E+00  0.000E+00  0.000E+00  4.33742E+01  3.628E-01  2.000E+01  2.000E+04 -1.744E+00
   1   15   13     1    13    4.8041E+05 -3.3015E+04   5.1342E+05  0.000E+00  0.000E+00  0.000E+00  4.29126E+01  3.785E-01  2.000E+01  2.000E+04 -1.651E+00
   1   14   14     1    14    5.1342E+05 -3.3211E+04   5.4663E+05  0.000E+00  0.000E+00  0.000E+00  4.24503E+01  3.935E-01  2.000E+01  2.000E+04 -1.661E+00
   1   13   15     1    15    5.4663E+05 -3.5649E+04   5.8228E+05  0.000E+00  0.000E+00  0.000E+00  4.19881E+01  4.086E-01  2.000E+01  2.000E+04 -1.782E+00
   1   12   16     1    16    5.8228E+05 -4.2627E+04   6.2491E+05  0.000E+00  0.000E+00  0.000E+00  4.15276E+01  4.254E-01  2.000E+01  2.000E+04 -2.131E+00
   1   12   17     1    17    6.2491E+05 -3.2975E+04   6.5788E+05  0.000E+00  0.000E+00  0.000E+00  4.10662E+01  4.412E-01  2.000E+01  2.000E+04 -1.649E+00
   1   12   18     1    18    6.5788E+05 -3.1449E+04   6.8933E+05  0.000E+00  0.000E+00  0.000E+00  4.06021E+01  4.543E-01  2.000E+01  2.000E+04 -1.572E+00
   1   12   19     1    19    6.8933E+05 -3.5786E+04   7.2512E+05  0.000E+00  0.000E+00  0.000E+00  4.01383E+01  4.678E-01  2.000E+01  2.000E+04 -1.789E+00
   1   13   20     1    20    7.2512E+05 -2.5380E+04   7.5050E+05  0.000E+00  0.000E+00  0.000E+00  3.96730E+01  4.798E-01  2.000E+01  2.000E+04 -1.269E+00
   1   14   21     1    21    7.5050E+05 -1.8144E+04   7.6864E+05  0.000E+00  0.000E+00  0.000E+00  3.92042E+01  4.883E-01  2.000E+01  2.000E+04 -9.072E-01
   1   14   22     1    22    7.6864E+05 -7.9480E+02   7.6944E+05  0.000E+00  0.000E+00  0.000E+00  3.87306E+01  4.919E-01  2.000E+01  2.000E+04 -3.974E-02
   1    9   30     2     1    5.0000E+04 -2.6424E+04   7.6424E+04  0.000E+00  0.000E+00  0.000E+00  4.02584E+01  1.334E-01  2.000E+01  2.000E+04 -1.321E+00
   1    9   29     2     2    7.6424E+04 -2.8867E+04   1.0529E+05  0.000E+00  0.000E+00  0.000E+00  4.00408E+01  1.658E-01  2.000E+01  2.000E+04 -1.443E+00
   1    9   28     2     3    1.0529E+05 -3.3128E+04   1.3842E+05  0.000E+00  0.000E+00  0.000E+00  3.98227E+01  1.977E-01  2.000E+01  2.000E+04 -1.656E+00
   1    9   27     2     4    1.3842E+05 -4.7278E+04   1.8570E+05  0.000E+00  0.000E+00  0.000E+00  3.96096E+01  2.346E-01  2.000E+01  2.000E+04 -2.364E+00
   1   10   26     2     5    1.8570E+05 -3.2462E+04   2.1816E+05  0.000E+00  0.000E+00  0.000E+00  3.93927E+01  2.677E-01  2.000E+01  2.000E+04 -1.623E+00
   1   11   25     2     6    2.1816E+05 -2.2615E+04   2.4077E+05  0.000E+00  0.000E+00  0.000E+00  3.91641E+01  2.891E-01  2.000E+01  2.000E+04 -1.131E+00
   1   12   24     2     7    2.4077E+05 -1.4530E+04   2.5530E+05  0.000E+00  0.000E+00  0.000E+00  3.89279E+01  3.029E-01  2.000E+01  2.000E+04 -7.265E-01
   1   13   23     2     8    2.5530E+05 -9.7439E+03   2.6505E+05  0.000E+00  0.000E+00  0.000E+00  3.86867E+01  3.117E-01  2.000E+01  2.000E+04 -4.872E-01
   1   14   22     2     9    2.6505E+05 -6.5555E+03   2.7160E+05  0.000E+00  0.000E+00  0.000E+00  3.84425E+01  3.175E-01  2.000E+01  2.000E+04 -3.278E-01
   1   14   22     3     1    1.0410E+06 -1.4463E+04   1.0555E+06  0.000E+00  0.000E+00  0.000E+00  3.80471E+01  4.916E-01  2.000E+01  2.000E+04 -7.232E-01
   1   15   23     3     2    1.0555E+06 -2.1088E+04   1.0766E+06  0.000E+00  0.000E+00  0.000E+00  3.71632E+01  4.966E-01  2.000E+01  2.000E+04 -1.054E+00
   1   15   24     3     3    1.0766E+06 -1.4243E+04   1.0908E+06  0.000E+00  0.000E+00  0.000E+00  3.62793E+01  5.015E-01  2.000E+01  2.000E+04 -7.122E-01
   1   15   25     3     4    1.0908E+06 -8.0637E+03   1.0989E+06  0.000E+00  0.000E+00  0.000E+00  3.53935E+01  5.046E-01  2.000E+01  2.000E+04 -4.032E-01
   1   15   26     3     5    1.0989E+06 -1.5800E+04   1.1147E+06  0.000E+00  0.000E+00  0.000E+00  3.45079E+01  5.079E-01  2.000E+01  2.000E+04 -7.900E-01
   1   16   27     3     6    1.1147E+06 -2.7407E+04   1.1421E+06  0.000E+00  0.000E+00  0.000E+00  3.36249E+01  5.138E-01  2.000E+01  2.000E+04 -1.370E+00
   1   17   28     3     7    1.1421E+06 -3.5654E+04   1.1778E+06  0.000E+00  0.000E+00  0.000E+00  3.27446E+01  5.223E-01  2.000E+01  2.000E+04 -1.783E+00
   1   18   29     3     8    1.1778E+06 -4.7167E+04   1.2249E+06  0.000E+00  0.000E+00  0.000E+00  3.18668E+01  5.335E-01  2.000E+01  2.000E+04 -2.358E+00
   1   18   30     3     9    1.2249E+06 -4.3629E+04   1.2686E+06  0.000E+00  0.000E+00  0.000E+00  3.09899E+01  5.455E-01  2.000E+01  2.000E+04 -2.181E+00



1
              HEAD IN LAYER   1 AT END OF TIME STEP   1 IN STRESS PERIOD    6
  ---------------------------------------------------------------------------

          1      2      3      4      5      6      7      8      9     10
         11     12     13     14     15     16     17     18     19     20
         21     22     23     24     25     26     27     28     29     30
 .........................................................................
   1  ****** ****** ****** ****** ****** ****** ****** ****** ****** ******
      ****** ****** ****** ****** ****** ****** ****** ****** ****** ******
      ****** ****** ****** ****** ****** ****** ****** ****** ****** ******
   2  ****** ****** ****** ****** ****** ****** ****** ****** ****** ******
      ****** ****** ****** ****** ****** ****** ****** ****** ****** ******
      ****** ****** ****** ****** ****** ****** ****** ****** ****** ******
   3  ****** ****** ****** ****** ****** ****** ****** ****** ****** ******
      ****** ****** ****** ****** ****** ****** ****** ****** ****** ******
      ****** ****** ****** ****** ****** ****** ****** ****** ****** ******
   4  ****** ****** ****** ****** ****** ****** ****** ****** ****** ******
      ****** ****** ****** ****** ****** ****** ****** ****** ****** ******
      ****** ****** ****** ****** ****** ****** ****** ****** ****** ******
   5  ****** ****** ****** ****** ****** ****** ****** ****** ****** ******
      ****** ****** ****** ****** ****** ****** ****** ****** ****** ******
      ****** ****** ****** ****** ****** ****** ****** ****** ****** ******
   6  ****** ****** ****** ****** ****** ****** ****** ****** ****** ******
      ****** ****** ****** ****** ****** ****** ****** ****** ****** ******
      ****** ****** ****** ****** ****** ****** ****** ****** ****** ******
   7  ****** ****** ****** ****** ****** ****** ****** ****** ****** ******
      ****** ****** ****** ****** ****** ****** ****** ****** ****** ******
      ****** ****** ****** ****** ****** ****** ****** ****** ****** ******
   8  ****** ****** ****** ****** ****** ****** ****** ****** ****** ******
      ****** ****** ****** ****** ****** ****** ****** ****** ****** ******
      ****** ****** ****** ****** ****** ****** ****** ****** ****** ******
   9  ****** ****** ****** ****** ****** ****** ****** ****** ****** ******
      ****** ****** ****** ****** ****** ****** ****** ****** ****** ******
      ****** ****** ****** ****** ****** ****** ****** ****** ****** ******
  10  ****** ****** ****** ****** ****** ****** ****** ****** ****** ******
      ****** ****** ****** ****** ****** ****** ****** ****** ****** ******
      ****** ****** ****** ****** ****** ****** ****** ****** ****** ******
  11  ****** ****** ****** ****** ****** ****** ****** ****** ****** ******
      ****** ****** ****** ****** ****** ****** ****** ****** ****** ******
      ****** ****** ****** ****** ****** ****** ****** ****** ****** ******
  12  ****** ****** ****** ****** ****** ****** ****** ****** ****** ******
      ****** ****** ****** ****** ****** ****** ****** ****** ****** ******
      ****** ****** ****** ****** ****** ****** ****** ****** ****** ******
  13  ****** ****** ****** ****** ****** ****** ****** ****** ****** ******
      ****** ****** ****** ****** ****** ****** ****** ****** ****** ******
      ****** ****** ****** ****** ****** ****** ****** ****** ****** ******
  14  ****** ****** ****** ****** ****** ****** ****** ****** ****** ******
      ****** ****** ****** ****** ****** ****** ****** ****** ****** ******
      ****** ****** ****** ****** ****** ****** ****** ****** ****** ******
  15  ****** ****** ****** ****** ****** ****** ****** ****** ****** ******
      ****** ****** ****** ****** ****** ****** ****** ****** ****** ******
      ****** ****** ****** ****** ****** ****** ****** ****** ****** ******
  16  ****** ****** ****** ****** ****** ****** ****** ****** ****** ******
      ****** ****** ****** ****** ****** ****** ****** ****** ****** ******
      ****** ****** ****** ****** ****** ****** ****** ****** ****** ******
  17  ****** ****** ****** ****** ****** ****** ****** ****** ****** ******
      ****** ****** ****** ****** ****** ****** ****** ****** ****** ******
      ****** ****** ****** ****** ****** ****** ****** ****** ****** ******
  18  ****** ****** ****** ****** ****** ****** ****** ****** ****** ******
      ****** ****** ****** ****** ****** ****** ****** ****** ****** ******
      ****** ****** ****** ****** ****** ****** ****** ****** ****** ******
  19  ****** ****** ****** ****** ****** ****** ****** ****** ****** ******
      ****** ****** ****** ****** ****** ****** ****** ****** ****** ******
      ****** ****** ****** ****** ****** ****** ****** ****** ****** ******
  20  ****** ****** ****** ****** ****** ****** ****** ****** ****** ******
      ****** ****** ****** ****** ****** ****** ****** ****** ****** ******
      ****** ****** ****** ****** ****** ****** ****** ****** ****** ******
  21  ****** ****** ****** ****** ****** ****** ****** ****** ****** ******
      ****** ****** ****** ****** ****** ****** ****** ****** ****** ******
      ****** ****** ****** ****** ****** ****** ****** ****** ****** ******
  22  ****** ****** ****** ****** ****** ****** ****** ****** ****** ******
      ****** ****** ****** ****** ****** ****** ****** ****** ****** ******
      ****** ****** ****** ****** ****** ****** ****** ****** ****** ******
  23  ****** ****** ****** ****** ****** ****** ****** ****** ****** ******
      ****** ****** ****** ****** ****** ****** ****** ****** ****** ******
      ****** ****** ****** ****** ****** ****** ****** ****** ****** ******
  24  ****** ****** ****** ****** ****** ****** ****** ****** ****** ******
      ****** ****** ****** ****** ****** ****** ****** ****** ****** ******
      ****** ****** ****** ****** ****** ****** ****** ****** ****** ******
  25  ****** ****** ****** ****** ****** ****** ****** ****** ****** ******
      ****** ****** ****** ****** ****** ****** ****** ****** ****** ******
      ****** ****** ****** ****** ****** ****** ****** ****** ****** ******

 HEAD WILL BE SAVED ON UNIT   51 AT END OF TIME STEP    1, STRESS PERIOD    6
1
  VOLUMETRIC BUDGET FOR ENTIRE MODEL AT END OF TIME STEP    1, STRESS PERIOD   6
  ------------------------------------------------------------------------------

     CUMULATIVE VOLUMES      L**3       RATES FOR THIS TIME STEP      L**3/T
     ------------------                 ------------------------

           IN:                                      IN:
           ---                                      ---
             STORAGE =    20211770.6222               STORAGE =         447.6368
       CONSTANT HEAD =   628517112.7458         CONSTANT HEAD =     1145696.2154
               WELLS =           0.0000                 WELLS =           0.0000
            RECHARGE =    15097200.0000              RECHARGE =       55200.0000
      STREAM LEAKAGE =           0.0000        STREAM LEAKAGE =           0.0000

            TOTAL IN =   663826083.3681              TOTAL IN =     1201343.8522

          OUT:                                     OUT:
          ----                                     ----
             STORAGE =      405580.7596               STORAGE =        2790.0668
       CONSTANT HEAD =           0.0000         CONSTANT HEAD =           0.0000
               WELLS =    30879795.5639                 WELLS =       80000.0000
            RECHARGE =           0.0000              RECHARGE =           0.0000
      STREAM LEAKAGE =   632540715.2689        STREAM LEAKAGE =     1118553.7548

           TOTAL OUT =   663826091.5924             TOTAL OUT =     1201343.8215

            IN - OUT =          -8.2243              IN - OUT =       3.0661E-02

 PERCENT DISCREPANCY =          -0.00     PERCENT DISCREPANCY =           0.00






         TIME SUMMARY AT END OF TIME STEP    1 IN STRESS PERIOD    6
                    SECONDS     MINUTES      HOURS       DAYS        YEARS
                    -----------------------------------------------------------
   TIME STEP LENGTH 7.86240E+06 1.31040E+05  2184.0      91.000     0.24914    
 STRESS PERIOD TIME 7.86240E+06 1.31040E+05  2184.0      91.000     0.24914    
         TOTAL TIME 4.73472E+07 7.89120E+05  13152.      548.00      1.5003    
1
1
                            STRESS PERIOD NO.    7, LENGTH =   91.00000    
                            -----------------------------------------------

                              NUMBER OF TIME STEPS =     1

                               MULTIPLIER FOR DELT =     1.500

                            INITIAL TIME STEP SIZE =   91.00000    

 WELL NO.  LAYER   ROW   COL   STRESS RATE         
 --------------------------------------------------
      1      1     12     11      -3484.    
      2      1     16     17     -0.2691E+05

      2 WELLS

                 RECHARGE =   0.00000    

 REUSING STREAM SEGMENT DATA FROM LAST STRESS PERIOD
 
 SOLVING FOR HEAD 


     6 CALLS TO PCG ROUTINE FOR TIME STEP   1 IN STRESS PERIOD    7
    22 TOTAL ITERATIONS

 OUTPUT CONTROL FOR STRESS PERIOD    7   TIME STEP    1
    SAVE BUDGET
    SAVE HEAD FOR ALL LAYERS
    PRINT HEAD FOR ALL LAYERS
 UBDSV2 SAVING "STREAMFLOW OUT  " ON UNIT  50 AT TIME STEP  1, STRESS PERIOD   7



 STREAM LISTING     PERIOD      7   STEP        1

 LAYER ROW COL. STREAM  RCH.  FLOW INTO     FLOW TO   FLOW OUT OF   OVRLND.     DIRECT     STREAM       STREAM     STREAM     STREAM   STREAMBED  STREAMBED
                SEG.NO.  NO.  STRM. RCH.    AQUIFER    STRM. RCH.    RUNOFF     PRECIP       ET          HEAD       DEPTH      WIDTH   CONDCTNC.   GRADIENT

   1   13    1     1     1    1.0000E+05 -2.7437E+04   1.2744E+05  0.000E+00  0.000E+00  0.000E+00  4.84176E+01  1.563E-01  2.000E+01  2.000E+04 -1.372E+00
   1   13    2     1     2    1.2744E+05 -3.7087E+04   1.6452E+05  0.000E+00  0.000E+00  0.000E+00  4.79656E+01  1.815E-01  2.000E+01  2.000E+04 -1.854E+00
   1   14    3     1     3    1.6452E+05 -3.2565E+04   1.9709E+05  0.000E+00  0.000E+00  0.000E+00  4.75132E+01  2.064E-01  2.000E+01  2.000E+04 -1.628E+00
   1   15    4     1     4    1.9709E+05 -3.1808E+04   2.2890E+05  0.000E+00  0.000E+00  0.000E+00  4.70572E+01  2.277E-01  2.000E+01  2.000E+04 -1.590E+00
   1   16    5     1     5    2.2890E+05 -3.3369E+04   2.6227E+05  0.000E+00  0.000E+00  0.000E+00  4.66003E+01  2.480E-01  2.000E+01  2.000E+04 -1.668E+00
   1   16    6     1     6    2.6227E+05 -2.9120E+04   2.9139E+05  0.000E+00  0.000E+00  0.000E+00  4.61415E+01  2.665E-01  2.000E+01  2.000E+04 -1.456E+00
   1   16    7     1     7    2.9139E+05 -2.8902E+04   3.2029E+05  0.000E+00  0.000E+00  0.000E+00  4.56806E+01  2.829E-01  2.000E+01  2.000E+04 -1.445E+00
   1   16    8     1     8    3.2029E+05 -2.9023E+04   3.4931E+05  0.000E+00  0.000E+00  0.000E+00  4.52191E+01  2.987E-01  2.000E+01  2.000E+04 -1.451E+00
   1   16    9     1     9    3.4931E+05 -2.9018E+04   3.7833E+05  0.000E+00  0.000E+00  0.000E+00  4.47571E+01  3.139E-01  2.000E+01  2.000E+04 -1.451E+00
   1   16   10     1    10    3.7833E+05 -2.8921E+04   4.0725E+05  0.000E+00  0.000E+00  0.000E+00  4.42946E+01  3.287E-01  2.000E+01  2.000E+04 -1.446E+00
   1   16   11     1    11    4.0725E+05 -2.9298E+04   4.3655E+05  0.000E+00  0.000E+00  0.000E+00  4.38318E+01  3.431E-01  2.000E+01  2.000E+04 -1.465E+00
   1   16   12     1    12    4.3655E+05 -3.4104E+04   4.7065E+05  0.000E+00  0.000E+00  0.000E+00  4.33697E+01  3.584E-01  2.000E+01  2.000E+04 -1.705E+00
   1   15   13     1    13    4.7065E+05 -3.2166E+04   5.0282E+05  0.000E+00  0.000E+00  0.000E+00  4.29079E+01  3.739E-01  2.000E+01  2.000E+04 -1.608E+00
   1   14   14     1    14    5.0282E+05 -3.2348E+04   5.3517E+05  0.000E+00  0.000E+00  0.000E+00  4.24453E+01  3.885E-01  2.000E+01  2.000E+04 -1.617E+00
   1   13   15     1    15    5.3517E+05 -3.4789E+04   5.6996E+05  0.000E+00  0.000E+00  0.000E+00  4.19830E+01  4.034E-01  2.000E+01  2.000E+04 -1.739E+00
   1   12   16     1    16    5.6996E+05 -4.1769E+04   6.1172E+05  0.000E+00  0.000E+00  0.000E+00  4.15222E+01  4.200E-01  2.000E+01  2.000E+04 -2.088E+00
   1   12   17     1    17    6.1172E+05 -3.2319E+04   6.4404E+05  0.000E+00  0.000E+00  0.000E+00  4.10606E+01  4.356E-01  2.000E+01  2.000E+04 -1.616E+00
   1   12   18     1    18    6.4404E+05 -3.0852E+04   6.7489E+05  0.000E+00  0.000E+00  0.000E+00  4.05963E+01  4.486E-01  2.000E+01  2.000E+04 -1.543E+00
   1   12   19     1    19    6.7489E+05 -3.5192E+04   7.1009E+05  0.000E+00  0.000E+00  0.000E+00  4.01324E+01  4.619E-01  2.000E+01  2.000E+04 -1.760E+00
   1   13   20     1    20    7.1009E+05 -2.4969E+04   7.3506E+05  0.000E+00  0.000E+00  0.000E+00  3.96670E+01  4.739E-01  2.000E+01  2.000E+04 -1.248E+00
   1   14   21     1    21    7.3506E+05 -1.7954E+04   7.5301E+05  0.000E+00  0.000E+00  0.000E+00  3.91982E+01  4.823E-01  2.000E+01  2.000E+04 -8.977E-01
   1   14   22     1    22    7.5301E+05 -1.3829E+03   7.5439E+05  0.000E+00  0.000E+00  0.000E+00  3.87246E+01  4.860E-01  2.000E+01  2.000E+04 -6.915E-02
   1    9   30     2     1    5.0000E+04 -2.6320E+04   7.6320E+04  0.000E+00  0.000E+00  0.000E+00  4.02583E+01  1.333E-01  2.000E+01  2.000E+04 -1.316E+00
   1    9   29     2     2    7.6320E+04 -2.8787E+04   1.0511E+05  0.000E+00  0.000E+00  0.000E+00  4.00406E+01  1.656E-01  2.000E+01  2.000E+04 -1.439E+00
   1    9   28     2     3    1.0511E+05 -3.3069E+04   1.3818E+05  0.000E+00  0.000E+00  0.000E+00  3.98225E+01  1.975E-01  2.000E+01  2.000E+04 -1.653E+00
   1    9   27     2     4    1.3818E+05 -4.7143E+04   1.8532E+05  0.000E+00  0.000E+00  0.000E+00  3.96094E+01  2.344E-01  2.000E+01  2.000E+04 -2.357E+00
   1   10   26     2     5    1.8532E+05 -3.3085E+04   2.1840E+05  0.000E+00  0.000E+00  0.000E+00  3.93927E+01  2.677E-01  2.000E+01  2.000E+04 -1.654E+00
   1   11   25     2     6    2.1840E+05 -2.4723E+04   2.4313E+05  0.000E+00  0.000E+00  0.000E+00  3.91651E+01  2.901E-01  2.000E+01  2.000E+04 -1.236E+00
   1   12   24     2     7    2.4313E+05 -1.8146E+04   2.6127E+05  0.000E+00  0.000E+00  0.000E+00  3.89309E+01  3.059E-01  2.000E+01  2.000E+04 -9.073E-01
   1   13   23     2     8    2.6127E+05 -1.2766E+04   2.7404E+05  0.000E+00  0.000E+00  0.000E+00  3.86920E+01  3.170E-01  2.000E+01  2.000E+04 -6.383E-01
   1   14   22     2     9    2.7404E+05 -6.8962E+03   2.8094E+05  0.000E+00  0.000E+00  0.000E+00  3.84490E+01  3.240E-01  2.000E+01  2.000E+04 -3.448E-01
   1   14   22     3     1    1.0353E+06 -1.4964E+04   1.0503E+06  0.000E+00  0.000E+00  0.000E+00  3.80456E+01  4.900E-01  2.000E+01  2.000E+04 -7.482E-01
   1   15   23     3     2    1.0503E+06 -2.2694E+04   1.0730E+06  0.000E+00  0.000E+00  0.000E+00  3.71620E+01  4.953E-01  2.000E+01  2.000E+04 -1.135E+00
   1   15   24     3     3    1.0730E+06 -1.9164E+04   1.0921E+06  0.000E+00  0.000E+00  0.000E+00  3.62789E+01  5.012E-01  2.000E+01  2.000E+04 -9.582E-01
   1   15   25     3     4    1.0921E+06 -1.8893E+04   1.1110E+06  0.000E+00  0.000E+00  0.000E+00  3.53953E+01  5.064E-01  2.000E+01  2.000E+04 -9.446E-01
   1   15   26     3     5    1.1110E+06 -2.1692E+04   1.1327E+06  0.000E+00  0.000E+00  0.000E+00  3.45120E+01  5.120E-01  2.000E+01  2.000E+04 -1.085E+00
   1   16   27     3     6    1.1327E+06 -2.8801E+04   1.1615E+06  0.000E+00  0.000E+00  0.000E+00  3.36300E+01  5.189E-01  2.000E+01  2.000E+04 -1.440E+00
   1   17   28     3     7    1.1615E+06 -3.5889E+04   1.1974E+06  0.000E+00  0.000E+00  0.000E+00  3.27498E+01  5.276E-01  2.000E+01  2.000E+04 -1.794E+00
   1   18   29     3     8    1.1974E+06 -4.6937E+04   1.2444E+06  0.000E+00  0.000E+00  0.000E+00  3.18720E+01  5.386E-01  2.000E+01  2.000E+04 -2.347E+00
   1   18   30     3     9    1.2444E+06 -4.3453E+04   1.2878E+06  0.000E+00  0.000E+00  0.000E+00  3.09950E+01  5.505E-01  2.000E+01  2.000E+04 -2.173E+00



1
              HEAD IN LAYER   1 AT END OF TIME STEP   1 IN STRESS PERIOD    7
  ---------------------------------------------------------------------------

          1      2      3      4      5      6      7      8      9     10
         11     12     13     14     15     16     17     18     19     20
         21     22     23     24     25     26     27     28     29     30
 .........................................................................
   1  ****** ****** ****** ****** ****** ****** ****** ****** ****** ******
      ****** ****** ****** ****** ****** ****** ****** ****** ****** ******
      ****** ****** ****** ****** ****** ****** ****** ****** ****** ******
   2  ****** ****** ****** ****** ****** ****** ****** ****** ****** ******
      ****** ****** ****** ****** ****** ****** ****** ****** ****** ******
      ****** ****** ****** ****** ****** ****** ****** ****** ****** ******
   3  ****** ****** ****** ****** ****** ****** ****** ****** ****** ******
      ****** ****** ****** ****** ****** ****** ****** ****** ****** ******
      ****** ****** ****** ****** ****** ****** ****** ****** ****** ******
   4  ****** ****** ****** ****** ****** ****** ****** ****** ****** ******
      ****** ****** ****** ****** ****** ****** ****** ****** ****** ******
      ****** ****** ****** ****** ****** ****** ****** ****** ****** ******
   5  ****** ****** ****** ****** ****** ****** ****** ****** ****** ******
      ****** ****** ****** ****** ****** ****** ****** ****** ****** ******
      ****** ****** ****** ****** ****** ****** ****** ****** ****** ******
   6  ****** ****** ****** ****** ****** ****** ****** ****** ****** ******
      ****** ****** ****** ****** ****** ****** ****** ****** ****** ******
      ****** ****** ****** ****** ****** ****** ****** ****** ****** ******
   7  ****** ****** ****** ****** ****** ****** ****** ****** ****** ******
      ****** ****** ****** ****** ****** ****** ****** ****** ****** ******
      ****** ****** ****** ****** ****** ****** ****** ****** ****** ******
   8  ****** ****** ****** ****** ****** ****** ****** ****** ****** ******
      ****** ****** ****** ****** ****** ****** ****** ****** ****** ******
      ****** ****** ****** ****** ****** ****** ****** ****** ****** ******
   9  ****** ****** ****** ****** ****** ****** ****** ****** ****** ******
      ****** ****** ****** ****** ****** ****** ****** ****** ****** ******
      ****** ****** ****** ****** ****** ****** ****** ****** ****** ******
  10  ****** ****** ****** ****** ****** ****** ****** ****** ****** ******
      ****** ****** ****** ****** ****** ****** ****** ****** ****** ******
      ****** ****** ****** ****** ****** ****** ****** ****** ****** ******
  11  ****** ****** ****** ****** ****** ****** ****** ****** ****** ******
      ****** ****** ****** ****** ****** ****** ****** ****** ****** ******
      ****** ****** ****** ****** ****** ****** ****** ****** ****** ******
  12  ****** ****** ****** ****** ****** ****** ****** ****** ****** ******
      ****** ****** ****** ****** ****** ****** ****** ****** ****** ******
      ****** ****** ****** ****** ****** ****** ****** ****** ****** ******
  13  ****** ****** ****** ****** ****** ****** ****** ****** ****** ******
      ****** ****** ****** ****** ****** ****** ****** ****** ****** ******
      ****** ****** ****** ****** ****** ****** ****** ****** ****** ******
  14  ****** ****** ****** ****** ****** ****** ****** ****** ****** ******
      ****** ****** ****** ****** ****** ****** ****** ****** ****** ******
      ****** ****** ****** ****** ****** ****** ****** ****** ****** ******
  15  ****** ****** ****** ****** ****** ****** ****** ****** ****** ******
      ****** ****** ****** ****** ****** ****** ****** ****** ****** ******
      ****** ****** ****** ****** ****** ****** ****** ****** ****** ******
  16  ****** ****** ****** ****** ****** ****** ****** ****** ****** ******
      ****** ****** ****** ****** ****** ****** ****** ****** ****** ******
      ****** ****** ****** ****** ****** ****** ****** ****** ****** ******
  17  ****** ****** ****** ****** ****** ****** ****** ****** ****** ******
      ****** ****** ****** ****** ****** ****** ****** ****** ****** ******
      ****** ****** ****** ****** ****** ****** ****** ****** ****** ******
  18  ****** ****** ****** ****** ****** ****** ****** ****** ****** ******
      ****** ****** ****** ****** ****** ****** ****** ****** ****** ******
      ****** ****** ****** ****** ****** ****** ****** ****** ****** ******
  19  ****** ****** ****** ****** ****** ****** ****** ****** ****** ******
      ****** ****** ****** ****** ****** ****** ****** ****** ****** ******
      ****** ****** ****** ****** ****** ****** ****** ****** ****** ******
  20  ****** ****** ****** ****** ****** ****** ****** ****** ****** ******
      ****** ****** ****** ****** ****** ****** ****** ****** ****** ******
      ****** ****** ****** ****** ****** ****** ****** ****** ****** ******
  21  ****** ****** ****** ****** ****** ****** ****** ****** ****** ******
      ****** ****** ****** ****** ****** ****** ****** ****** ****** ******
      ****** ****** ****** ****** ****** ****** ****** ****** ****** ******
  22  ****** ****** ****** ****** ****** ****** ****** ****** ****** ******
      ****** ****** ****** ****** ****** ****** ****** ****** ****** ******
      ****** ****** ****** ****** ****** ****** ****** ****** ****** ******
  23  ****** ****** ****** ****** ****** ****** ****** ****** ****** ******
      ****** ****** ****** ****** ****** ****** ****** ****** ****** ******
      ****** ****** ****** ****** ****** ****** ****** ****** ****** ******
  24  ****** ****** ****** ****** ****** ****** ****** ****** ****** ******
      ****** ****** ****** ****** ****** ****** ****** ****** ****** ******
      ****** ****** ****** ****** ****** ****** ****** ****** ****** ******
  25  ****** ****** ****** ****** ****** ****** ****** ****** ****** ******
      ****** ****** ****** ****** ****** ****** ****** ****** ****** ******
      ****** ****** ****** ****** ****** ****** ****** ****** ****** ******

 HEAD WILL BE SAVED ON UNIT   51 AT END OF TIME STEP    1, STRESS PERIOD    7
1
  VOLUMETRIC BUDGET FOR ENTIRE MODEL AT END OF TIME STEP    1, STRESS PERIOD   7
  ------------------------------------------------------------------------------

     CUMULATIVE VOLUMES      L**3       RATES FOR THIS TIME STEP      L**3/T
     ------------------                 ------------------------

           IN:                                      IN:
           ---                                      ---
             STORAGE =    20405890.2921               STORAGE =        2133.1832
       CONSTANT HEAD =   734669746.8153         CONSTANT HEAD =     1166512.4623
               WELLS =           0.0000                 WELLS =           0.0000
            RECHARGE =    15097200.0000              RECHARGE =           0.0000
      STREAM LEAKAGE =           0.0000        STREAM LEAKAGE =           0.0000

            TOTAL IN =   770172837.1074              TOTAL IN =     1168645.6455

          OUT:                                     OUT:
          ----                                     ----
             STORAGE =      445029.8828               STORAGE =         433.5068
       CONSTANT HEAD =           0.0000         CONSTANT HEAD =           0.0000
               WELLS =    33646024.8714                 WELLS =       30398.1243
            RECHARGE =           0.0000              RECHARGE =           0.0000
      STREAM LEAKAGE =   736081794.0894        STREAM LEAKAGE =     1137814.0530

           TOTAL OUT =   770172848.8437             TOTAL OUT =     1168645.6841

            IN - OUT =         -11.7363              IN - OUT =      -3.8593E-02

 PERCENT DISCREPANCY =          -0.00     PERCENT DISCREPANCY =          -0.00






         TIME SUMMARY AT END OF TIME STEP    1 IN STRESS PERIOD    7
                    SECONDS     MINUTES      HOURS       DAYS        YEARS
                    -----------------------------------------------------------
   TIME STEP LENGTH 7.86240E+06 1.31040E+05  2184.0      91.000     0.24914    
 STRESS PERIOD TIME 7.86240E+06 1.31040E+05  2184.0      91.000     0.24914    
         TOTAL TIME 5.52096E+07 9.20160E+05  15336.      639.00      1.7495    
1
1
                            STRESS PERIOD NO.    8, LENGTH =   91.00000    
                            -----------------------------------------------

                              NUMBER OF TIME STEPS =     1

                               MULTIPLIER FOR DELT =     1.500

                            INITIAL TIME STEP SIZE =   91.00000    

 WELL NO.  LAYER   ROW   COL   STRESS RATE         
 --------------------------------------------------
      1      1     12     11      -3484.    
      2      1     16     17     -0.2675E+05
      3      1     14     25     -0.1056E+05

      3 WELLS

                 RECHARGE =  1.000000E-03

 REUSING STREAM SEGMENT DATA FROM LAST STRESS PERIOD
 
 SOLVING FOR HEAD 


     6 CALLS TO PCG ROUTINE FOR TIME STEP   1 IN STRESS PERIOD    8
    22 TOTAL ITERATIONS

 OUTPUT CONTROL FOR STRESS PERIOD    8   TIME STEP    1
    SAVE BUDGET
    SAVE HEAD FOR ALL LAYERS
    PRINT HEAD FOR ALL LAYERS
 UBDSV2 SAVING "STREAMFLOW OUT  " ON UNIT  50 AT TIME STEP  1, STRESS PERIOD   8



 STREAM LISTING     PERIOD      8   STEP        1

 LAYER ROW COL. STREAM  RCH.  FLOW INTO     FLOW TO   FLOW OUT OF   OVRLND.     DIRECT     STREAM       STREAM     STREAM     STREAM   STREAMBED  STREAMBED
                SEG.NO.  NO.  STRM. RCH.    AQUIFER    STRM. RCH.    RUNOFF     PRECIP       ET          HEAD       DEPTH      WIDTH   CONDCTNC.   GRADIENT

   1   13    1     1     1    1.0000E+05 -2.7830E+04   1.2783E+05  0.000E+00  0.000E+00  0.000E+00  4.84178E+01  1.564E-01  2.000E+01  2.000E+04 -1.392E+00
   1   13    2     1     2    1.2783E+05 -3.7555E+04   1.6539E+05  0.000E+00  0.000E+00  0.000E+00  4.79661E+01  1.820E-01  2.000E+01  2.000E+04 -1.878E+00
   1   14    3     1     3    1.6539E+05 -3.3027E+04   1.9841E+05  0.000E+00  0.000E+00  0.000E+00  4.75139E+01  2.071E-01  2.000E+01  2.000E+04 -1.651E+00
   1   15    4     1     4    1.9841E+05 -3.2255E+04   2.3067E+05  0.000E+00  0.000E+00  0.000E+00  4.70582E+01  2.287E-01  2.000E+01  2.000E+04 -1.613E+00
   1   16    5     1     5    2.3067E+05 -3.3776E+04   2.6444E+05  0.000E+00  0.000E+00  0.000E+00  4.66015E+01  2.492E-01  2.000E+01  2.000E+04 -1.689E+00
   1   16    6     1     6    2.6444E+05 -2.9473E+04   2.9392E+05  0.000E+00  0.000E+00  0.000E+00  4.61428E+01  2.678E-01  2.000E+01  2.000E+04 -1.474E+00
   1   16    7     1     7    2.9392E+05 -2.9251E+04   3.2317E+05  0.000E+00  0.000E+00  0.000E+00  4.56821E+01  2.844E-01  2.000E+01  2.000E+04 -1.463E+00
   1   16    8     1     8    3.2317E+05 -2.9374E+04   3.5254E+05  0.000E+00  0.000E+00  0.000E+00  4.52208E+01  3.003E-01  2.000E+01  2.000E+04 -1.469E+00
   1   16    9     1     9    3.5254E+05 -2.9369E+04   3.8191E+05  0.000E+00  0.000E+00  0.000E+00  4.47589E+01  3.157E-01  2.000E+01  2.000E+04 -1.468E+00
   1   16   10     1    10    3.8191E+05 -2.9271E+04   4.1118E+05  0.000E+00  0.000E+00  0.000E+00  4.42965E+01  3.306E-01  2.000E+01  2.000E+04 -1.464E+00
   1   16   11     1    11    4.1118E+05 -2.9655E+04   4.4084E+05  0.000E+00  0.000E+00  0.000E+00  4.38338E+01  3.451E-01  2.000E+01  2.000E+04 -1.483E+00
   1   16   12     1    12    4.4084E+05 -3.4525E+04   4.7536E+05  0.000E+00  0.000E+00  0.000E+00  4.33719E+01  3.605E-01  2.000E+01  2.000E+04 -1.726E+00
   1   15   13     1    13    4.7536E+05 -3.2630E+04   5.0799E+05  0.000E+00  0.000E+00  0.000E+00  4.29102E+01  3.761E-01  2.000E+01  2.000E+04 -1.632E+00
   1   14   14     1    14    5.0799E+05 -3.2827E+04   5.4082E+05  0.000E+00  0.000E+00  0.000E+00  4.24478E+01  3.910E-01  2.000E+01  2.000E+04 -1.641E+00
   1   13   15     1    15    5.4082E+05 -3.5261E+04   5.7608E+05  0.000E+00  0.000E+00  0.000E+00  4.19855E+01  4.060E-01  2.000E+01  2.000E+04 -1.763E+00
   1   12   16     1    16    5.7608E+05 -4.2217E+04   6.1830E+05  0.000E+00  0.000E+00  0.000E+00  4.15249E+01  4.227E-01  2.000E+01  2.000E+04 -2.111E+00
   1   12   17     1    17    6.1830E+05 -3.2681E+04   6.5098E+05  0.000E+00  0.000E+00  0.000E+00  4.10634E+01  4.384E-01  2.000E+01  2.000E+04 -1.634E+00
   1   12   18     1    18    6.5098E+05 -3.1193E+04   6.8217E+05  0.000E+00  0.000E+00  0.000E+00  4.05992E+01  4.515E-01  2.000E+01  2.000E+04 -1.560E+00
   1   12   19     1    19    6.8217E+05 -3.5549E+04   7.1772E+05  0.000E+00  0.000E+00  0.000E+00  4.01354E+01  4.649E-01  2.000E+01  2.000E+04 -1.777E+00
   1   13   20     1    20    7.1772E+05 -2.5288E+04   7.4301E+05  0.000E+00  0.000E+00  0.000E+00  3.96701E+01  4.769E-01  2.000E+01  2.000E+04 -1.264E+00
   1   14   21     1    21    7.4301E+05 -1.8201E+04   7.6121E+05  0.000E+00  0.000E+00  0.000E+00  3.92013E+01  4.854E-01  2.000E+01  2.000E+04 -9.100E-01
   1   14   22     1    22    7.6121E+05 -1.3302E+03   7.6254E+05  0.000E+00  0.000E+00  0.000E+00  3.87278E+01  4.892E-01  2.000E+01  2.000E+04 -6.651E-02
   1    9   30     2     1    5.0000E+04 -2.6514E+04   7.6514E+04  0.000E+00  0.000E+00  0.000E+00  4.02584E+01  1.334E-01  2.000E+01  2.000E+04 -1.326E+00
   1    9   29     2     2    7.6514E+04 -2.8976E+04   1.0549E+05  0.000E+00  0.000E+00  0.000E+00  4.00410E+01  1.660E-01  2.000E+01  2.000E+04 -1.449E+00
   1    9   28     2     3    1.0549E+05 -3.3257E+04   1.3875E+05  0.000E+00  0.000E+00  0.000E+00  3.98230E+01  1.980E-01  2.000E+01  2.000E+04 -1.663E+00
   1    9   27     2     4    1.3875E+05 -4.7382E+04   1.8613E+05  0.000E+00  0.000E+00  0.000E+00  3.96100E+01  2.350E-01  2.000E+01  2.000E+04 -2.369E+00
   1   10   26     2     5    1.8613E+05 -3.3180E+04   2.1931E+05  0.000E+00  0.000E+00  0.000E+00  3.93934E+01  2.684E-01  2.000E+01  2.000E+04 -1.659E+00
   1   11   25     2     6    2.1931E+05 -2.4500E+04   2.4381E+05  0.000E+00  0.000E+00  0.000E+00  3.91656E+01  2.906E-01  2.000E+01  2.000E+04 -1.225E+00
   1   12   24     2     7    2.4381E+05 -1.7581E+04   2.6139E+05  0.000E+00  0.000E+00  0.000E+00  3.89312E+01  3.062E-01  2.000E+01  2.000E+04 -8.791E-01
   1   13   23     2     8    2.6139E+05 -1.2289E+04   2.7368E+05  0.000E+00  0.000E+00  0.000E+00  3.86920E+01  3.170E-01  2.000E+01  2.000E+04 -6.144E-01
   1   14   22     2     9    2.7368E+05 -6.9116E+03   2.8059E+05  0.000E+00  0.000E+00  0.000E+00  3.84487E+01  3.237E-01  2.000E+01  2.000E+04 -3.456E-01
   1   14   22     3     1    1.0431E+06 -1.4931E+04   1.0581E+06  0.000E+00  0.000E+00  0.000E+00  3.80478E+01  4.922E-01  2.000E+01  2.000E+04 -7.465E-01
   1   15   23     3     2    1.0581E+06 -2.2543E+04   1.0806E+06  0.000E+00  0.000E+00  0.000E+00  3.71641E+01  4.975E-01  2.000E+01  2.000E+04 -1.127E+00
   1   15   24     3     3    1.0806E+06 -1.8276E+04   1.0989E+06  0.000E+00  0.000E+00  0.000E+00  3.62809E+01  5.031E-01  2.000E+01  2.000E+04 -9.138E-01
   1   15   25     3     4    1.0989E+06 -1.6743E+04   1.1156E+06  0.000E+00  0.000E+00  0.000E+00  3.53969E+01  5.080E-01  2.000E+01  2.000E+04 -8.372E-01
   1   15   26     3     5    1.1156E+06 -2.0631E+04   1.1363E+06  0.000E+00  0.000E+00  0.000E+00  3.45131E+01  5.131E-01  2.000E+01  2.000E+04 -1.032E+00
   1   16   27     3     6    1.1363E+06 -2.8726E+04   1.1650E+06  0.000E+00  0.000E+00  0.000E+00  3.36309E+01  5.198E-01  2.000E+01  2.000E+04 -1.436E+00
   1   17   28     3     7    1.1650E+06 -3.6058E+04   1.2010E+06  0.000E+00  0.000E+00  0.000E+00  3.27508E+01  5.286E-01  2.000E+01  2.000E+04 -1.803E+00
   1   18   29     3     8    1.2010E+06 -4.7184E+04   1.2482E+06  0.000E+00  0.000E+00  0.000E+00  3.18730E+01  5.396E-01  2.000E+01  2.000E+04 -2.359E+00
   1   18   30     3     9    1.2482E+06 -4.3657E+04   1.2919E+06  0.000E+00  0.000E+00  0.000E+00  3.09960E+01  5.516E-01  2.000E+01  2.000E+04 -2.183E+00



1
              HEAD IN LAYER   1 AT END OF TIME STEP   1 IN STRESS PERIOD    8
  ---------------------------------------------------------------------------

          1      2      3      4      5      6      7      8      9     10
         11     12     13     14     15     16     17     18     19     20
         21     22     23     24     25     26     27     28     29     30
 .........................................................................
   1  ****** ****** ****** ****** ****** ****** ****** ****** ****** ******
      ****** ****** ****** ****** ****** ****** ****** ****** ****** ******
      ****** ****** ****** ****** ****** ****** ****** ****** ****** ******
   2  ****** ****** ****** ****** ****** ****** ****** ****** ****** ******
      ****** ****** ****** ****** ****** ****** ****** ****** ****** ******
      ****** ****** ****** ****** ****** ****** ****** ****** ****** ******
   3  ****** ****** ****** ****** ****** ****** ****** ****** ****** ******
      ****** ****** ****** ****** ****** ****** ****** ****** ****** ******
      ****** ****** ****** ****** ****** ****** ****** ****** ****** ******
   4  ****** ****** ****** ****** ****** ****** ****** ****** ****** ******
      ****** ****** ****** ****** ****** ****** ****** ****** ****** ******
      ****** ****** ****** ****** ****** ****** ****** ****** ****** ******
   5  ****** ****** ****** ****** ****** ****** ****** ****** ****** ******
      ****** ****** ****** ****** ****** ****** ****** ****** ****** ******
      ****** ****** ****** ****** ****** ****** ****** ****** ****** ******
   6  ****** ****** ****** ****** ****** ****** ****** ****** ****** ******
      ****** ****** ****** ****** ****** ****** ****** ****** ****** ******
      ****** ****** ****** ****** ****** ****** ****** ****** ****** ******
   7  ****** ****** ****** ****** ****** ****** ****** ****** ****** ******
      ****** ****** ****** ****** ****** ****** ****** ****** ****** ******
      ****** ****** ****** ****** ****** ****** ****** ****** ****** ******
   8  ****** ****** ****** ****** ****** ****** ****** ****** ****** ******
      ****** ****** ****** ****** ****** ****** ****** ****** ****** ******
      ****** ****** ****** ****** ****** ****** ****** ****** ****** ******
   9  ****** ****** ****** ****** ****** ****** ****** ****** ****** ******
      ****** ****** ****** ****** ****** ****** ****** ****** ****** ******
      ****** ****** ****** ****** ****** ****** ****** ****** ****** ******
  10  ****** ****** ****** ****** ****** ****** ****** ****** ****** ******
      ****** ****** ****** ****** ****** ****** ****** ****** ****** ******
      ****** ****** ****** ****** ****** ****** ****** ****** ****** ******
  11  ****** ****** ****** ****** ****** ****** ****** ****** ****** ******
      ****** ****** ****** ****** ****** ****** ****** ****** ****** ******
      ****** ****** ****** ****** ****** ****** ****** ****** ****** ******
  12  ****** ****** ****** ****** ****** ****** ****** ****** ****** ******
      ****** ****** ****** ****** ****** ****** ****** ****** ****** ******
      ****** ****** ****** ****** ****** ****** ****** ****** ****** ******
  13  ****** ****** ****** ****** ****** ****** ****** ****** ****** ******
      ****** ****** ****** ****** ****** ****** ****** ****** ****** ******
      ****** ****** ****** ****** ****** ****** ****** ****** ****** ******
  14  ****** ****** ****** ****** ****** ****** ****** ****** ****** ******
      ****** ****** ****** ****** ****** ****** ****** ****** ****** ******
      ****** ****** ****** ****** ****** ****** ****** ****** ****** ******
  15  ****** ****** ****** ****** ****** ****** ****** ****** ****** ******
      ****** ****** ****** ****** ****** ****** ****** ****** ****** ******
      ****** ****** ****** ****** ****** ****** ****** ****** ****** ******
  16  ****** ****** ****** ****** ****** ****** ****** ****** ****** ******
      ****** ****** ****** ****** ****** ****** ****** ****** ****** ******
      ****** ****** ****** ****** ****** ****** ****** ****** ****** ******
  17  ****** ****** ****** ****** ****** ****** ****** ****** ****** ******
      ****** ****** ****** ****** ****** ****** ****** ****** ****** ******
      ****** ****** ****** ****** ****** ****** ****** ****** ****** ******
  18  ****** ****** ****** ****** ****** ****** ****** ****** ****** ******
      ****** ****** ****** ****** ****** ****** ****** ****** ****** ******
      ****** ****** ****** ****** ****** ****** ****** ****** ****** ******
  19  ****** ****** ****** ****** ****** ****** ****** ****** ****** ******
      ****** ****** ****** ****** ****** ****** ****** ****** ****** ******
      ****** ****** ****** ****** ****** ****** ****** ****** ****** ******
  20  ****** ****** ****** ****** ****** ****** ****** ****** ****** ******
      ****** ****** ****** ****** ****** ****** ****** ****** ****** ******
      ****** ****** ****** ****** ****** ****** ****** ****** ****** ******
  21  ****** ****** ****** ****** ****** ****** ****** ****** ****** ******
      ****** ****** ****** ****** ****** ****** ****** ****** ****** ******
      ****** ****** ****** ****** ****** ****** ****** ****** ****** ******
  22  ****** ****** ****** ****** ****** ****** ****** ****** ****** ******
      ****** ****** ****** ****** ****** ****** ****** ****** ****** ******
      ****** ****** ****** ****** ****** ****** ****** ****** ****** ******
  23  ****** ****** ****** ****** ****** ****** ****** ****** ****** ******
      ****** ****** ****** ****** ****** ****** ****** ****** ****** ******
      ****** ****** ****** ****** ****** ****** ****** ****** ****** ******
  24  ****** ****** ****** ****** ****** ****** ****** ****** ****** ******
      ****** ****** ****** ****** ****** ****** ****** ****** ****** ******
      ****** ****** ****** ****** ****** ****** ****** ****** ****** ******
  25  ****** ****** ****** ****** ****** ****** ****** ****** ****** ******
      ****** ****** ****** ****** ****** ****** ****** ****** ****** ******
      ****** ****** ****** ****** ****** ****** ****** ****** ****** ******

 HEAD WILL BE SAVED ON UNIT   51 AT END OF TIME STEP    1, STRESS PERIOD    8
1
  VOLUMETRIC BUDGET FOR ENTIRE MODEL AT END OF TIME STEP    1, STRESS PERIOD   8
  ------------------------------------------------------------------------------

     CUMULATIVE VOLUMES      L**3       RATES FOR THIS TIME STEP      L**3/T
     ------------------                 ------------------------

           IN:                                      IN:
           ---                                      ---
             STORAGE =    20411746.1182               STORAGE =          64.3497
       CONSTANT HEAD =   839876175.3676         CONSTANT HEAD =     1156114.5995
               WELLS =           0.0000                 WELLS =           0.0000
            RECHARGE =    17608800.0000              RECHARGE =       27600.0000
      STREAM LEAKAGE =           0.0000        STREAM LEAKAGE =           0.0000

            TOTAL IN =   877896721.4858              TOTAL IN =     1183778.9492

          OUT:                                     OUT:
          ----                                     ----
             STORAGE =      545582.3637               STORAGE =        1104.9723
       CONSTANT HEAD =           0.0000         CONSTANT HEAD =           0.0000
               WELLS =    37358464.3499                 WELLS =       40796.0382
            RECHARGE =           0.0000              RECHARGE =           0.0000
      STREAM LEAKAGE =   839992684.6951        STREAM LEAKAGE =     1141877.9187

           TOTAL OUT =   877896731.4088             TOTAL OUT =     1183778.9293

            IN - OUT =          -9.9230              IN - OUT =       1.9926E-02

 PERCENT DISCREPANCY =          -0.00     PERCENT DISCREPANCY =           0.00






         TIME SUMMARY AT END OF TIME STEP    1 IN STRESS PERIOD    8
                    SECONDS     MINUTES      HOURS       DAYS        YEARS
                    -----------------------------------------------------------
   TIME STEP LENGTH 7.86240E+06 1.31040E+05  2184.0      91.000     0.24914    
 STRESS PERIOD TIME 7.86240E+06 1.31040E+05  2184.0      91.000     0.24914    
         TOTAL TIME 6.30720E+07 1.05120E+06  17520.      730.00      1.9986    
1
1
                            STRESS PERIOD NO.    9, LENGTH =   92.00000    
                            -----------------------------------------------

                              NUMBER OF TIME STEPS =     1

                               MULTIPLIER FOR DELT =     1.500

                            INITIAL TIME STEP SIZE =   92.00000    

 WELL NO.  LAYER   ROW   COL   STRESS RATE         
 --------------------------------------------------
      1      1     12     11      -3484.    
      2      1     16     17     -0.5000E+05

      2 WELLS

                 RECHARGE =  5.000000E-04

 REUSING STREAM SEGMENT DATA FROM LAST STRESS PERIOD
 
 SOLVING FOR HEAD 


     6 CALLS TO PCG ROUTINE FOR TIME STEP   1 IN STRESS PERIOD    9
    22 TOTAL ITERATIONS

 OUTPUT CONTROL FOR STRESS PERIOD    9   TIME STEP    1
    SAVE BUDGET
    SAVE HEAD FOR ALL LAYERS
    PRINT HEAD FOR ALL LAYERS
 UBDSV2 SAVING "STREAMFLOW OUT  " ON UNIT  50 AT TIME STEP  1, STRESS PERIOD   9



 STREAM LISTING     PERIOD      9   STEP        1

 LAYER ROW COL. STREAM  RCH.  FLOW INTO     FLOW TO   FLOW OUT OF   OVRLND.     DIRECT     STREAM       STREAM     STREAM     STREAM   STREAMBED  STREAMBED
                SEG.NO.  NO.  STRM. RCH.    AQUIFER    STRM. RCH.    RUNOFF     PRECIP       ET          HEAD       DEPTH      WIDTH   CONDCTNC.   GRADIENT

   1   13    1     1     1    1.0000E+05 -2.7616E+04   1.2762E+05  0.000E+00  0.000E+00  0.000E+00  4.84177E+01  1.563E-01  2.000E+01  2.000E+04 -1.381E+00
   1   13    2     1     2    1.2762E+05 -3.7297E+04   1.6491E+05  0.000E+00  0.000E+00  0.000E+00  4.79658E+01  1.817E-01  2.000E+01  2.000E+04 -1.865E+00
   1   14    3     1     3    1.6491E+05 -3.2767E+04   1.9768E+05  0.000E+00  0.000E+00  0.000E+00  4.75135E+01  2.067E-01  2.000E+01  2.000E+04 -1.638E+00
   1   15    4     1     4    1.9768E+05 -3.1995E+04   2.2967E+05  0.000E+00  0.000E+00  0.000E+00  4.70577E+01  2.281E-01  2.000E+01  2.000E+04 -1.600E+00
   1   16    5     1     5    2.2967E+05 -3.3521E+04   2.6320E+05  0.000E+00  0.000E+00  0.000E+00  4.66008E+01  2.485E-01  2.000E+01  2.000E+04 -1.676E+00
   1   16    6     1     6    2.6320E+05 -2.9236E+04   2.9243E+05  0.000E+00  0.000E+00  0.000E+00  4.61420E+01  2.670E-01  2.000E+01  2.000E+04 -1.462E+00
   1   16    7     1     7    2.9243E+05 -2.8993E+04   3.2142E+05  0.000E+00  0.000E+00  0.000E+00  4.56812E+01  2.835E-01  2.000E+01  2.000E+04 -1.450E+00
   1   16    8     1     8    3.2142E+05 -2.9079E+04   3.5050E+05  0.000E+00  0.000E+00  0.000E+00  4.52197E+01  2.993E-01  2.000E+01  2.000E+04 -1.454E+00
   1   16    9     1     9    3.5050E+05 -2.9016E+04   3.7952E+05  0.000E+00  0.000E+00  0.000E+00  4.47577E+01  3.146E-01  2.000E+01  2.000E+04 -1.451E+00
   1   16   10     1    10    3.7952E+05 -2.8821E+04   4.0834E+05  0.000E+00  0.000E+00  0.000E+00  4.42952E+01  3.293E-01  2.000E+01  2.000E+04 -1.441E+00
   1   16   11     1    11    4.0834E+05 -2.8999E+04   4.3734E+05  0.000E+00  0.000E+00  0.000E+00  4.38322E+01  3.436E-01  2.000E+01  2.000E+04 -1.450E+00
   1   16   12     1    12    4.3734E+05 -3.3226E+04   4.7056E+05  0.000E+00  0.000E+00  0.000E+00  4.33699E+01  3.585E-01  2.000E+01  2.000E+04 -1.661E+00
   1   15   13     1    13    4.7056E+05 -3.0851E+04   5.0141E+05  0.000E+00  0.000E+00  0.000E+00  4.29076E+01  3.735E-01  2.000E+01  2.000E+04 -1.543E+00
   1   14   14     1    14    5.0141E+05 -3.0717E+04   5.3213E+05  0.000E+00  0.000E+00  0.000E+00  4.24443E+01  3.875E-01  2.000E+01  2.000E+04 -1.536E+00
   1   13   15     1    15    5.3213E+05 -3.3290E+04   5.6542E+05  0.000E+00  0.000E+00  0.000E+00  4.19813E+01  4.018E-01  2.000E+01  2.000E+04 -1.665E+00
   1   12   16     1    16    5.6542E+05 -4.0980E+04   6.0640E+05  0.000E+00  0.000E+00  0.000E+00  4.15201E+01  4.179E-01  2.000E+01  2.000E+04 -2.049E+00
   1   12   17     1    17    6.0640E+05 -3.1358E+04   6.3776E+05  0.000E+00  0.000E+00  0.000E+00  4.10581E+01  4.331E-01  2.000E+01  2.000E+04 -1.568E+00
   1   12   18     1    18    6.3776E+05 -2.9973E+04   6.6773E+05  0.000E+00  0.000E+00  0.000E+00  4.05936E+01  4.458E-01  2.000E+01  2.000E+04 -1.499E+00
   1   12   19     1    19    6.6773E+05 -3.4559E+04   7.0229E+05  0.000E+00  0.000E+00  0.000E+00  4.01294E+01  4.589E-01  2.000E+01  2.000E+04 -1.728E+00
   1   13   20     1    20    7.0229E+05 -2.3854E+04   7.2615E+05  0.000E+00  0.000E+00  0.000E+00  3.96638E+01  4.706E-01  2.000E+01  2.000E+04 -1.193E+00
   1   14   21     1    21    7.2615E+05 -1.6832E+04   7.4298E+05  0.000E+00  0.000E+00  0.000E+00  3.91945E+01  4.786E-01  2.000E+01  2.000E+04 -8.416E-01
   1   14   22     1    22    7.4298E+05 -1.2119E+03   7.4419E+05  0.000E+00  0.000E+00  0.000E+00  3.87207E+01  4.821E-01  2.000E+01  2.000E+04 -6.059E-02
   1    9   30     2     1    5.0000E+04 -2.6467E+04   7.6467E+04  0.000E+00  0.000E+00  0.000E+00  4.02584E+01  1.334E-01  2.000E+01  2.000E+04 -1.323E+00
   1    9   29     2     2    7.6467E+04 -2.8933E+04   1.0540E+05  0.000E+00  0.000E+00  0.000E+00  4.00409E+01  1.659E-01  2.000E+01  2.000E+04 -1.447E+00
   1    9   28     2     3    1.0540E+05 -3.3217E+04   1.3862E+05  0.000E+00  0.000E+00  0.000E+00  3.98229E+01  1.979E-01  2.000E+01  2.000E+04 -1.661E+00
   1    9   27     2     4    1.3862E+05 -4.7316E+04   1.8593E+05  0.000E+00  0.000E+00  0.000E+00  3.96098E+01  2.348E-01  2.000E+01  2.000E+04 -2.366E+00
   1   10   26     2     5    1.8593E+05 -3.3264E+04   2.1920E+05  0.000E+00  0.000E+00  0.000E+00  3.93932E+01  2.682E-01  2.000E+01  2.000E+04 -1.663E+00
   1   11   25     2     6    2.1920E+05 -2.4885E+04   2.4408E+05  0.000E+00  0.000E+00  0.000E+00  3.91657E+01  2.907E-01  2.000E+01  2.000E+04 -1.244E+00
   1   12   24     2     7    2.4408E+05 -1.8258E+04   2.6234E+05  0.000E+00  0.000E+00  0.000E+00  3.89317E+01  3.067E-01  2.000E+01  2.000E+04 -9.129E-01
   1   13   23     2     8    2.6234E+05 -1.2760E+04   2.7510E+05  0.000E+00  0.000E+00  0.000E+00  3.86928E+01  3.178E-01  2.000E+01  2.000E+04 -6.380E-01
   1   14   22     2     9    2.7510E+05 -6.6337E+03   2.8173E+05  0.000E+00  0.000E+00  0.000E+00  3.84496E+01  3.246E-01  2.000E+01  2.000E+04 -3.317E-01
   1   14   22     3     1    1.0259E+06 -1.4768E+04   1.0407E+06  0.000E+00  0.000E+00  0.000E+00  3.80429E+01  4.873E-01  2.000E+01  2.000E+04 -7.384E-01
   1   15   23     3     2    1.0407E+06 -2.2210E+04   1.0629E+06  0.000E+00  0.000E+00  0.000E+00  3.71592E+01  4.926E-01  2.000E+01  2.000E+04 -1.110E+00
   1   15   24     3     3    1.0629E+06 -1.9019E+04   1.0819E+06  0.000E+00  0.000E+00  0.000E+00  3.62761E+01  4.983E-01  2.000E+01  2.000E+04 -9.509E-01
   1   15   25     3     4    1.0819E+06 -1.8888E+04   1.1008E+06  0.000E+00  0.000E+00  0.000E+00  3.53925E+01  5.036E-01  2.000E+01  2.000E+04 -9.444E-01
   1   15   26     3     5    1.1008E+06 -2.1778E+04   1.1226E+06  0.000E+00  0.000E+00  0.000E+00  3.45092E+01  5.092E-01  2.000E+01  2.000E+04 -1.089E+00
   1   16   27     3     6    1.1226E+06 -2.8864E+04   1.1514E+06  0.000E+00  0.000E+00  0.000E+00  3.36272E+01  5.161E-01  2.000E+01  2.000E+04 -1.443E+00
   1   17   28     3     7    1.1514E+06 -3.5962E+04   1.1874E+06  0.000E+00  0.000E+00  0.000E+00  3.27471E+01  5.249E-01  2.000E+01  2.000E+04 -1.798E+00
   1   18   29     3     8    1.1874E+06 -4.7013E+04   1.2344E+06  0.000E+00  0.000E+00  0.000E+00  3.18693E+01  5.360E-01  2.000E+01  2.000E+04 -2.351E+00
   1   18   30     3     9    1.2344E+06 -4.3543E+04   1.2780E+06  0.000E+00  0.000E+00  0.000E+00  3.09924E+01  5.479E-01  2.000E+01  2.000E+04 -2.177E+00



1
              HEAD IN LAYER   1 AT END OF TIME STEP   1 IN STRESS PERIOD    9
  ---------------------------------------------------------------------------

          1      2      3      4      5      6      7      8      9     10
         11     12     13     14     15     16     17     18     19     20
         21     22     23     24     25     26     27     28     29     30
 .........................................................................
   1  ****** ****** ****** ****** ****** ****** ****** ****** ****** ******
      ****** ****** ****** ****** ****** ****** ****** ****** ****** ******
      ****** ****** ****** ****** ****** ****** ****** ****** ****** ******
   2  ****** ****** ****** ****** ****** ****** ****** ****** ****** ******
      ****** ****** ****** ****** ****** ****** ****** ****** ****** ******
      ****** ****** ****** ****** ****** ****** ****** ****** ****** ******
   3  ****** ****** ****** ****** ****** ****** ****** ****** ****** ******
      ****** ****** ****** ****** ****** ****** ****** ****** ****** ******
      ****** ****** ****** ****** ****** ****** ****** ****** ****** ******
   4  ****** ****** ****** ****** ****** ****** ****** ****** ****** ******
      ****** ****** ****** ****** ****** ****** ****** ****** ****** ******
      ****** ****** ****** ****** ****** ****** ****** ****** ****** ******
   5  ****** ****** ****** ****** ****** ****** ****** ****** ****** ******
      ****** ****** ****** ****** ****** ****** ****** ****** ****** ******
      ****** ****** ****** ****** ****** ****** ****** ****** ****** ******
   6  ****** ****** ****** ****** ****** ****** ****** ****** ****** ******
      ****** ****** ****** ****** ****** ****** ****** ****** ****** ******
      ****** ****** ****** ****** ****** ****** ****** ****** ****** ******
   7  ****** ****** ****** ****** ****** ****** ****** ****** ****** ******
      ****** ****** ****** ****** ****** ****** ****** ****** ****** ******
      ****** ****** ****** ****** ****** ****** ****** ****** ****** ******
   8  ****** ****** ****** ****** ****** ****** ****** ****** ****** ******
      ****** ****** ****** ****** ****** ****** ****** ****** ****** ******
      ****** ****** ****** ****** ****** ****** ****** ****** ****** ******
   9  ****** ****** ****** ****** ****** ****** ****** ****** ****** ******
      ****** ****** ****** ****** ****** ****** ****** ****** ****** ******
      ****** ****** ****** ****** ****** ****** ****** ****** ****** ******
  10  ****** ****** ****** ****** ****** ****** ****** ****** ****** ******
      ****** ****** ****** ****** ****** ****** ****** ****** ****** ******
      ****** ****** ****** ****** ****** ****** ****** ****** ****** ******
  11  ****** ****** ****** ****** ****** ****** ****** ****** ****** ******
      ****** ****** ****** ****** ****** ****** ****** ****** ****** ******
      ****** ****** ****** ****** ****** ****** ****** ****** ****** ******
  12  ****** ****** ****** ****** ****** ****** ****** ****** ****** ******
      ****** ****** ****** ****** ****** ****** ****** ****** ****** ******
      ****** ****** ****** ****** ****** ****** ****** ****** ****** ******
  13  ****** ****** ****** ****** ****** ****** ****** ****** ****** ******
      ****** ****** ****** ****** ****** ****** ****** ****** ****** ******
      ****** ****** ****** ****** ****** ****** ****** ****** ****** ******
  14  ****** ****** ****** ****** ****** ****** ****** ****** ****** ******
      ****** ****** ****** ****** ****** ****** ****** ****** ****** ******
      ****** ****** ****** ****** ****** ****** ****** ****** ****** ******
  15  ****** ****** ****** ****** ****** ****** ****** ****** ****** ******
      ****** ****** ****** ****** ****** ****** ****** ****** ****** ******
      ****** ****** ****** ****** ****** ****** ****** ****** ****** ******
  16  ****** ****** ****** ****** ****** ****** ****** ****** ****** ******
      ****** ****** ****** ****** ****** ****** ****** ****** ****** ******
      ****** ****** ****** ****** ****** ****** ****** ****** ****** ******
  17  ****** ****** ****** ****** ****** ****** ****** ****** ****** ******
      ****** ****** ****** ****** ****** ****** ****** ****** ****** ******
      ****** ****** ****** ****** ****** ****** ****** ****** ****** ******
  18  ****** ****** ****** ****** ****** ****** ****** ****** ****** ******
      ****** ****** ****** ****** ****** ****** ****** ****** ****** ******
      ****** ****** ****** ****** ****** ****** ****** ****** ****** ******
  19  ****** ****** ****** ****** ****** ****** ****** ****** ****** ******
      ****** ****** ****** ****** ****** ****** ****** ****** ****** ******
      ****** ****** ****** ****** ****** ****** ****** ****** ****** ******
  20  ****** ****** ****** ****** ****** ****** ****** ****** ****** ******
      ****** ****** ****** ****** ****** ****** ****** ****** ****** ******
      ****** ****** ****** ****** ****** ****** ****** ****** ****** ******
  21  ****** ****** ****** ****** ****** ****** ****** ****** ****** ******
      ****** ****** ****** ****** ****** ****** ****** ****** ****** ******
      ****** ****** ****** ****** ****** ****** ****** ****** ****** ******
  22  ****** ****** ****** ****** ****** ****** ****** ****** ****** ******
      ****** ****** ****** ****** ****** ****** ****** ****** ****** ******
      ****** ****** ****** ****** ****** ****** ****** ****** ****** ******
  23  ****** ****** ****** ****** ****** ****** ****** ****** ****** ******
      ****** ****** ****** ****** ****** ****** ****** ****** ****** ******
      ****** ****** ****** ****** ****** ****** ****** ****** ****** ******
  24  ****** ****** ****** ****** ****** ****** ****** ****** ****** ******
      ****** ****** ****** ****** ****** ****** ****** ****** ****** ******
      ****** ****** ****** ****** ****** ****** ****** ****** ****** ******
  25  ****** ****** ****** ****** ****** ****** ****** ****** ****** ******
      ****** ****** ****** ****** ****** ****** ****** ****** ****** ******
      ****** ****** ****** ****** ****** ****** ****** ****** ****** ******

 HEAD WILL BE SAVED ON UNIT   51 AT END OF TIME STEP    1, STRESS PERIOD    9
1
  VOLUMETRIC BUDGET FOR ENTIRE MODEL AT END OF TIME STEP    1, STRESS PERIOD   9
  ------------------------------------------------------------------------------

     CUMULATIVE VOLUMES      L**3       RATES FOR THIS TIME STEP      L**3/T
     ------------------                 ------------------------

           IN:                                      IN:
           ---                                      ---
             STORAGE =    20572162.6949               STORAGE =        1743.6584
       CONSTANT HEAD =   947146960.0882         CONSTANT HEAD =     1165986.7904
               WELLS =           0.0000                 WELLS =           0.0000
            RECHARGE =    18878400.0000              RECHARGE =       13800.0000
      STREAM LEAKAGE =           0.0000        STREAM LEAKAGE =           0.0000

            TOTAL IN =   986597522.7831              TOTAL IN =     1181530.4489

          OUT:                                     OUT:
          ----                                     ----
             STORAGE =      552797.9865               STORAGE =          78.4307
       CONSTANT HEAD =           0.0000         CONSTANT HEAD =           0.0000
               WELLS =    42279027.7388                 WELLS =       53484.3847
            RECHARGE =           0.0000              RECHARGE =           0.0000
      STREAM LEAKAGE =   943765708.6258        STREAM LEAKAGE =     1127967.6514

           TOTAL OUT =   986597534.3511             TOTAL OUT =     1181530.4668

            IN - OUT =         -11.5680              IN - OUT =      -1.7880E-02

 PERCENT DISCREPANCY =          -0.00     PERCENT DISCREPANCY =          -0.00






         TIME SUMMARY AT END OF TIME STEP    1 IN STRESS PERIOD    9
                    SECONDS     MINUTES      HOURS       DAYS        YEARS
                    -----------------------------------------------------------
   TIME STEP LENGTH 7.94880E+06 1.32480E+05  2208.0      92.000     0.25188    
 STRESS PERIOD TIME 7.94880E+06 1.32480E+05  2208.0      92.000     0.25188    
         TOTAL TIME 7.10208E+07 1.18368E+06  19728.      822.00      2.2505    
1
1
                            STRESS PERIOD NO.   10, LENGTH =   91.00000    
                            -----------------------------------------------

                              NUMBER OF TIME STEPS =     1

                               MULTIPLIER FOR DELT =     1.500

                            INITIAL TIME STEP SIZE =   91.00000    

 WELL NO.  LAYER   ROW   COL   STRESS RATE         
 --------------------------------------------------
      1      1     12     11      -3484.    
      2      1     16     17     -0.2750E+05
      3      1     14     25     -0.4902E+05

      3 WELLS

                 RECHARGE =  2.000000E-03

 REUSING STREAM SEGMENT DATA FROM LAST STRESS PERIOD
 
 SOLVING FOR HEAD 


     6 CALLS TO PCG ROUTINE FOR TIME STEP   1 IN STRESS PERIOD   10
    23 TOTAL ITERATIONS

 OUTPUT CONTROL FOR STRESS PERIOD   10   TIME STEP    1
    SAVE BUDGET
    SAVE HEAD FOR ALL LAYERS
    PRINT HEAD FOR ALL LAYERS
 UBDSV2 SAVING "STREAMFLOW OUT  " ON UNIT  50 AT TIME STEP  1, STRESS PERIOD  10



 STREAM LISTING     PERIOD     10   STEP        1

 LAYER ROW COL. STREAM  RCH.  FLOW INTO     FLOW TO   FLOW OUT OF   OVRLND.     DIRECT     STREAM       STREAM     STREAM     STREAM   STREAMBED  STREAMBED
                SEG.NO.  NO.  STRM. RCH.    AQUIFER    STRM. RCH.    RUNOFF     PRECIP       ET          HEAD       DEPTH      WIDTH   CONDCTNC.   GRADIENT

   1   13    1     1     1    1.0000E+05 -2.8280E+04   1.2828E+05  0.000E+00  0.000E+00  0.000E+00  4.84180E+01  1.566E-01  2.000E+01  2.000E+04 -1.414E+00
   1   13    2     1     2    1.2828E+05 -3.8092E+04   1.6637E+05  0.000E+00  0.000E+00  0.000E+00  4.79666E+01  1.825E-01  2.000E+01  2.000E+04 -1.905E+00
   1   14    3     1     3    1.6637E+05 -3.3550E+04   1.9992E+05  0.000E+00  0.000E+00  0.000E+00  4.75148E+01  2.080E-01  2.000E+01  2.000E+04 -1.677E+00
   1   15    4     1     4    1.9992E+05 -3.2755E+04   2.3268E+05  0.000E+00  0.000E+00  0.000E+00  4.70593E+01  2.298E-01  2.000E+01  2.000E+04 -1.638E+00
   1   16    5     1     5    2.3268E+05 -3.4223E+04   2.6690E+05  0.000E+00  0.000E+00  0.000E+00  4.66028E+01  2.505E-01  2.000E+01  2.000E+04 -1.711E+00
   1   16    6     1     6    2.6690E+05 -2.9860E+04   2.9676E+05  0.000E+00  0.000E+00  0.000E+00  4.61444E+01  2.694E-01  2.000E+01  2.000E+04 -1.493E+00
   1   16    7     1     7    2.9676E+05 -2.9632E+04   3.2639E+05  0.000E+00  0.000E+00  0.000E+00  4.56838E+01  2.861E-01  2.000E+01  2.000E+04 -1.482E+00
   1   16    8     1     8    3.2639E+05 -2.9752E+04   3.5615E+05  0.000E+00  0.000E+00  0.000E+00  4.52226E+01  3.021E-01  2.000E+01  2.000E+04 -1.488E+00
   1   16    9     1     9    3.5615E+05 -2.9740E+04   3.8589E+05  0.000E+00  0.000E+00  0.000E+00  4.47608E+01  3.177E-01  2.000E+01  2.000E+04 -1.487E+00
   1   16   10     1    10    3.8589E+05 -2.9632E+04   4.1552E+05  0.000E+00  0.000E+00  0.000E+00  4.42986E+01  3.327E-01  2.000E+01  2.000E+04 -1.482E+00
   1   16   11     1    11    4.1552E+05 -3.0003E+04   4.4552E+05  0.000E+00  0.000E+00  0.000E+00  4.38359E+01  3.473E-01  2.000E+01  2.000E+04 -1.500E+00
   1   16   12     1    12    4.4552E+05 -3.4887E+04   4.8041E+05  0.000E+00  0.000E+00  0.000E+00  4.33742E+01  3.628E-01  2.000E+01  2.000E+04 -1.744E+00
   1   15   13     1    13    4.8041E+05 -3.3015E+04   5.1342E+05  0.000E+00  0.000E+00  0.000E+00  4.29126E+01  3.785E-01  2.000E+01  2.000E+04 -1.651E+00
   1   14   14     1    14    5.1342E+05 -3.3211E+04   5.4663E+05  0.000E+00  0.000E+00  0.000E+00  4.24503E+01  3.935E-01  2.000E+01  2.000E+04 -1.661E+00
   1   13   15     1    15    5.4663E+05 -3.5649E+04   5.8228E+05  0.000E+00  0.000E+00  0.000E+00  4.19881E+01  4.086E-01  2.000E+01  2.000E+04 -1.782E+00
   1   12   16     1    16    5.8228E+05 -4.2627E+04   6.2491E+05  0.000E+00  0.000E+00  0.000E+00  4.15276E+01  4.254E-01  2.000E+01  2.000E+04 -2.131E+00
   1   12   17     1    17    6.2491E+05 -3.2975E+04   6.5788E+05  0.000E+00  0.000E+00  0.000E+00  4.10662E+01  4.412E-01  2.000E+01  2.000E+04 -1.649E+00
   1   12   18     1    18    6.5788E+05 -3.1449E+04   6.8933E+05  0.000E+00  0.000E+00  0.000E+00  4.06021E+01  4.543E-01  2.000E+01  2.000E+04 -1.572E+00
   1   12   19     1    19    6.8933E+05 -3.5786E+04   7.2512E+05  0.000E+00  0.000E+00  0.000E+00  4.01383E+01  4.678E-01  2.000E+01  2.000E+04 -1.789E+00
   1   13   20     1    20    7.2512E+05 -2.5380E+04   7.5050E+05  0.000E+00  0.000E+00  0.000E+00  3.96730E+01  4.798E-01  2.000E+01  2.000E+04 -1.269E+00
   1   14   21     1    21    7.5050E+05 -1.8144E+04   7.6864E+05  0.000E+00  0.000E+00  0.000E+00  3.92042E+01  4.883E-01  2.000E+01  2.000E+04 -9.072E-01
   1   14   22     1    22    7.6864E+05 -7.9479E+02   7.6944E+05  0.000E+00  0.000E+00  0.000E+00  3.87306E+01  4.919E-01  2.000E+01  2.000E+04 -3.974E-02
   1    9   30     2     1    5.0000E+04 -2.6424E+04   7.6424E+04  0.000E+00  0.000E+00  0.000E+00  4.02584E+01  1.334E-01  2.000E+01  2.000E+04 -1.321E+00
   1    9   29     2     2    7.6424E+04 -2.8867E+04   1.0529E+05  0.000E+00  0.000E+00  0.000E+00  4.00408E+01  1.658E-01  2.000E+01  2.000E+04 -1.443E+00
   1    9   28     2     3    1.0529E+05 -3.3128E+04   1.3842E+05  0.000E+00  0.000E+00  0.000E+00  3.98227E+01  1.977E-01  2.000E+01  2.000E+04 -1.656E+00
   1    9   27     2     4    1.3842E+05 -4.7278E+04   1.8570E+05  0.000E+00  0.000E+00  0.000E+00  3.96096E+01  2.346E-01  2.000E+01  2.000E+04 -2.364E+00
   1   10   26     2     5    1.8570E+05 -3.2462E+04   2.1816E+05  0.000E+00  0.000E+00  0.000E+00  3.93927E+01  2.677E-01  2.000E+01  2.000E+04 -1.623E+00
   1   11   25     2     6    2.1816E+05 -2.2615E+04   2.4077E+05  0.000E+00  0.000E+00  0.000E+00  3.91641E+01  2.891E-01  2.000E+01  2.000E+04 -1.131E+00
   1   12   24     2     7    2.4077E+05 -1.4530E+04   2.5530E+05  0.000E+00  0.000E+00  0.000E+00  3.89279E+01  3.029E-01  2.000E+01  2.000E+04 -7.265E-01
   1   13   23     2     8    2.5530E+05 -9.7439E+03   2.6505E+05  0.000E+00  0.000E+00  0.000E+00  3.86867E+01  3.117E-01  2.000E+01  2.000E+04 -4.872E-01
   1   14   22     2     9    2.6505E+05 -6.5555E+03   2.7160E+05  0.000E+00  0.000E+00  0.000E+00  3.84425E+01  3.175E-01  2.000E+01  2.000E+04 -3.278E-01
   1   14   22     3     1    1.0410E+06 -1.4463E+04   1.0555E+06  0.000E+00  0.000E+00  0.000E+00  3.80471E+01  4.916E-01  2.000E+01  2.000E+04 -7.232E-01
   1   15   23     3     2    1.0555E+06 -2.1088E+04   1.0766E+06  0.000E+00  0.000E+00  0.000E+00  3.71632E+01  4.966E-01  2.000E+01  2.000E+04 -1.054E+00
   1   15   24     3     3    1.0766E+06 -1.4243E+04   1.0908E+06  0.000E+00  0.000E+00  0.000E+00  3.62793E+01  5.015E-01  2.000E+01  2.000E+04 -7.122E-01
   1   15   25     3     4    1.0908E+06 -8.0637E+03   1.0989E+06  0.000E+00  0.000E+00  0.000E+00  3.53935E+01  5.046E-01  2.000E+01  2.000E+04 -4.032E-01
   1   15   26     3     5    1.0989E+06 -1.5800E+04   1.1147E+06  0.000E+00  0.000E+00  0.000E+00  3.45079E+01  5.079E-01  2.000E+01  2.000E+04 -7.900E-01
   1   16   27     3     6    1.1147E+06 -2.7407E+04   1.1421E+06  0.000E+00  0.000E+00  0.000E+00  3.36249E+01  5.138E-01  2.000E+01  2.000E+04 -1.370E+00
   1   17   28     3     7    1.1421E+06 -3.5654E+04   1.1778E+06  0.000E+00  0.000E+00  0.000E+00  3.27446E+01  5.223E-01  2.000E+01  2.000E+04 -1.783E+00
   1   18   29     3     8    1.1778E+06 -4.7167E+04   1.2249E+06  0.000E+00  0.000E+00  0.000E+00  3.18668E+01  5.335E-01  2.000E+01  2.000E+04 -2.358E+00
   1   18   30     3     9    1.2249E+06 -4.3629E+04   1.2686E+06  0.000E+00  0.000E+00  0.000E+00  3.09899E+01  5.455E-01  2.000E+01  2.000E+04 -2.181E+00



1
              HEAD IN LAYER   1 AT END OF TIME STEP   1 IN STRESS PERIOD   10
  ---------------------------------------------------------------------------

          1      2      3      4      5      6      7      8      9     10
         11     12     13     14     15     16     17     18     19     20
         21     22     23     24     25     26     27     28     29     30
 .........................................................................
   1  ****** ****** ****** ****** ****** ****** ****** ****** ****** ******
      ****** ****** ****** ****** ****** ****** ****** ****** ****** ******
      ****** ****** ****** ****** ****** ****** ****** ****** ****** ******
   2  ****** ****** ****** ****** ****** ****** ****** ****** ****** ******
      ****** ****** ****** ****** ****** ****** ****** ****** ****** ******
      ****** ****** ****** ****** ****** ****** ****** ****** ****** ******
   3  ****** ****** ****** ****** ****** ****** ****** ****** ****** ******
      ****** ****** ****** ****** ****** ****** ****** ****** ****** ******
      ****** ****** ****** ****** ****** ****** ****** ****** ****** ******
   4  ****** ****** ****** ****** ****** ****** ****** ****** ****** ******
      ****** ****** ****** ****** ****** ****** ****** ****** ****** ******
      ****** ****** ****** ****** ****** ****** ****** ****** ****** ******
   5  ****** ****** ****** ****** ****** ****** ****** ****** ****** ******
      ****** ****** ****** ****** ****** ****** ****** ****** ****** ******
      ****** ****** ****** ****** ****** ****** ****** ****** ****** ******
   6  ****** ****** ****** ****** ****** ****** ****** ****** ****** ******
      ****** ****** ****** ****** ****** ****** ****** ****** ****** ******
      ****** ****** ****** ****** ****** ****** ****** ****** ****** ******
   7  ****** ****** ****** ****** ****** ****** ****** ****** ****** ******
      ****** ****** ****** ****** ****** ****** ****** ****** ****** ******
      ****** ****** ****** ****** ****** ****** ****** ****** ****** ******
   8  ****** ****** ****** ****** ****** ****** ****** ****** ****** ******
      ****** ****** ****** ****** ****** ****** ****** ****** ****** ******
      ****** ****** ****** ****** ****** ****** ****** ****** ****** ******
   9  ****** ****** ****** ****** ****** ****** ****** ****** ****** ******
      ****** ****** ****** ****** ****** ****** ****** ****** ****** ******
      ****** ****** ****** ****** ****** ****** ****** ****** ****** ******
  10  ****** ****** ****** ****** ****** ****** ****** ****** ****** ******
      ****** ****** ****** ****** ****** ****** ****** ****** ****** ******
      ****** ****** ****** ****** ****** ****** ****** ****** ****** ******
  11  ****** ****** ****** ****** ****** ****** ****** ****** ****** ******
      ****** ****** ****** ****** ****** ****** ****** ****** ****** ******
      ****** ****** ****** ****** ****** ****** ****** ****** ****** ******
  12  ****** ****** ****** ****** ****** ****** ****** ****** ****** ******
      ****** ****** ****** ****** ****** ****** ****** ****** ****** ******
      ****** ****** ****** ****** ****** ****** ****** ****** ****** ******
  13  ****** ****** ****** ****** ****** ****** ****** ****** ****** ******
      ****** ****** ****** ****** ****** ****** ****** ****** ****** ******
      ****** ****** ****** ****** ****** ****** ****** ****** ****** ******
  14  ****** ****** ****** ****** ****** ****** ****** ****** ****** ******
      ****** ****** ****** ****** ****** ****** ****** ****** ****** ******
      ****** ****** ****** ****** ****** ****** ****** ****** ****** ******
  15  ****** ****** ****** ****** ****** ****** ****** ****** ****** ******
      ****** ****** ****** ****** ****** ****** ****** ****** ****** ******
      ****** ****** ****** ****** ****** ****** ****** ****** ****** ******
  16  ****** ****** ****** ****** ****** ****** ****** ****** ****** ******
      ****** ****** ****** ****** ****** ****** ****** ****** ****** ******
      ****** ****** ****** ****** ****** ****** ****** ****** ****** ******
  17  ****** ****** ****** ****** ****** ****** ****** ****** ****** ******
      ****** ****** ****** ****** ****** ****** ****** ****** ****** ******
      ****** ****** ****** ****** ****** ****** ****** ****** ****** ******
  18  ****** ****** ****** ****** ****** ****** ****** ****** ****** ******
      ****** ****** ****** ****** ****** ****** ****** ****** ****** ******
      ****** ****** ****** ****** ****** ****** ****** ****** ****** ******
  19  ****** ****** ****** ****** ****** ****** ****** ****** ****** ******
      ****** ****** ****** ****** ****** ****** ****** ****** ****** ******
      ****** ****** ****** ****** ****** ****** ****** ****** ****** ******
  20  ****** ****** ****** ****** ****** ****** ****** ****** ****** ******
      ****** ****** ****** ****** ****** ****** ****** ****** ****** ******
      ****** ****** ****** ****** ****** ****** ****** ****** ****** ******
  21  ****** ****** ****** ****** ****** ****** ****** ****** ****** ******
      ****** ****** ****** ****** ****** ****** ****** ****** ****** ******
      ****** ****** ****** ****** ****** ****** ****** ****** ****** ******
  22  ****** ****** ****** ****** ****** ****** ****** ****** ****** ******
      ****** ****** ****** ****** ****** ****** ****** ****** ****** ******
      ****** ****** ****** ****** ****** ****** ****** ****** ****** ******
  23  ****** ****** ****** ****** ****** ****** ****** ****** ****** ******
      ****** ****** ****** ****** ****** ****** ****** ****** ****** ******
      ****** ****** ****** ****** ****** ****** ****** ****** ****** ******
  24  ****** ****** ****** ****** ****** ****** ****** ****** ****** ******
      ****** ****** ****** ****** ****** ****** ****** ****** ****** ******
      ****** ****** ****** ****** ****** ****** ****** ****** ****** ******
  25  ****** ****** ****** ****** ****** ****** ****** ****** ****** ******
      ****** ****** ****** ****** ****** ****** ****** ****** ****** ******
      ****** ****** ****** ****** ****** ****** ****** ****** ****** ******

 HEAD WILL BE SAVED ON UNIT   51 AT END OF TIME STEP    1, STRESS PERIOD   10
1
  VOLUMETRIC BUDGET FOR ENTIRE MODEL AT END OF TIME STEP    1, STRESS PERIOD  10
  ------------------------------------------------------------------------------

     CUMULATIVE VOLUMES      L**3       RATES FOR THIS TIME STEP      L**3/T
     ------------------                 ------------------------

           IN:                                      IN:
           ---                                      ---
             STORAGE =    20612897.4927               STORAGE =         447.6351
       CONSTANT HEAD =  1051405321.7814         CONSTANT HEAD =     1145696.2823
               WELLS =           0.0000                 WELLS =           0.0000
            RECHARGE =    23901600.0000              RECHARGE =       55200.0000
      STREAM LEAKAGE =           0.0000        STREAM LEAKAGE =           0.0000

            TOTAL IN =  1095919819.2740              TOTAL IN =     1201343.9175

          OUT:                                     OUT:
          ----                                     ----
             STORAGE =      806706.6933               STORAGE =        2790.2056
       CONSTANT HEAD =           0.0000         CONSTANT HEAD =           0.0000
               WELLS =    49559027.7388                 WELLS =       80000.0000
            RECHARGE =           0.0000              RECHARGE =           0.0000
      STREAM LEAKAGE =  1045554093.6196        STREAM LEAKAGE =     1118553.6813

           TOTAL OUT =  1095919828.0516             TOTAL OUT =     1201343.8868

            IN - OUT =          -8.7776              IN - OUT =       3.0663E-02

 PERCENT DISCREPANCY =          -0.00     PERCENT DISCREPANCY =           0.00






         TIME SUMMARY AT END OF TIME STEP    1 IN STRESS PERIOD   10
                    SECONDS     MINUTES      HOURS       DAYS        YEARS
                    -----------------------------------------------------------
   TIME STEP LENGTH 7.86240E+06 1.31040E+05  2184.0      91.000     0.24914    
 STRESS PERIOD TIME 7.86240E+06 1.31040E+05  2184.0      91.000     0.24914    
         TOTAL TIME 7.88832E+07 1.31472E+06  21912.      913.00      2.4997    
1
1
                            STRESS PERIOD NO.   11, LENGTH =   91.00000    
                            -----------------------------------------------

                              NUMBER OF TIME STEPS =     1

                               MULTIPLIER FOR DELT =     1.500

                            INITIAL TIME STEP SIZE =   91.00000    

 WELL NO.  LAYER   ROW   COL   STRESS RATE         
 --------------------------------------------------
      1      1     12     11      -3484.    
      2      1     16     17     -0.2691E+05

      2 WELLS

                 RECHARGE =   0.00000    

 REUSING STREAM SEGMENT DATA FROM LAST STRESS PERIOD
 
 SOLVING FOR HEAD 


     6 CALLS TO PCG ROUTINE FOR TIME STEP   1 IN STRESS PERIOD   11
    22 TOTAL ITERATIONS

 OUTPUT CONTROL FOR STRESS PERIOD   11   TIME STEP    1
    SAVE BUDGET
    SAVE HEAD FOR ALL LAYERS
    PRINT HEAD FOR ALL LAYERS
 UBDSV2 SAVING "STREAMFLOW OUT  " ON UNIT  50 AT TIME STEP  1, STRESS PERIOD  11



 STREAM LISTING     PERIOD     11   STEP        1

 LAYER ROW COL. STREAM  RCH.  FLOW INTO     FLOW TO   FLOW OUT OF   OVRLND.     DIRECT     STREAM       STREAM     STREAM     STREAM   STREAMBED  STREAMBED
                SEG.NO.  NO.  STRM. RCH.    AQUIFER    STRM. RCH.    RUNOFF     PRECIP       ET          HEAD       DEPTH      WIDTH   CONDCTNC.   GRADIENT

   1   13    1     1     1    1.0000E+05 -2.7437E+04   1.2744E+05  0.000E+00  0.000E+00  0.000E+00  4.84176E+01  1.563E-01  2.000E+01  2.000E+04 -1.372E+00
   1   13    2     1     2    1.2744E+05 -3.7087E+04   1.6452E+05  0.000E+00  0.000E+00  0.000E+00  4.79656E+01  1.815E-01  2.000E+01  2.000E+04 -1.854E+00
   1   14    3     1     3    1.6452E+05 -3.2565E+04   1.9709E+05  0.000E+00  0.000E+00  0.000E+00  4.75132E+01  2.064E-01  2.000E+01  2.000E+04 -1.628E+00
   1   15    4     1     4    1.9709E+05 -3.1808E+04   2.2890E+05  0.000E+00  0.000E+00  0.000E+00  4.70572E+01  2.277E-01  2.000E+01  2.000E+04 -1.590E+00
   1   16    5     1     5    2.2890E+05 -3.3369E+04   2.6227E+05  0.000E+00  0.000E+00  0.000E+00  4.66003E+01  2.480E-01  2.000E+01  2.000E+04 -1.668E+00
   1   16    6     1     6    2.6227E+05 -2.9120E+04   2.9139E+05  0.000E+00  0.000E+00  0.000E+00  4.61415E+01  2.665E-01  2.000E+01  2.000E+04 -1.456E+00
   1   16    7     1     7    2.9139E+05 -2.8902E+04   3.2029E+05  0.000E+00  0.000E+00  0.000E+00  4.56806E+01  2.829E-01  2.000E+01  2.000E+04 -1.445E+00
   1   16    8     1     8    3.2029E+05 -2.9023E+04   3.4931E+05  0.000E+00  0.000E+00  0.000E+00  4.52191E+01  2.987E-01  2.000E+01  2.000E+04 -1.451E+00
   1   16    9     1     9    3.4931E+05 -2.9018E+04   3.7833E+05  0.000E+00  0.000E+00  0.000E+00  4.47571E+01  3.139E-01  2.000E+01  2.000E+04 -1.451E+00
   1   16   10     1    10    3.7833E+05 -2.8921E+04   4.0725E+05  0.000E+00  0.000E+00  0.000E+00  4.42946E+01  3.287E-01  2.000E+01  2.000E+04 -1.446E+00
   1   16   11     1    11    4.0725E+05 -2.9298E+04   4.3655E+05  0.000E+00  0.000E+00  0.000E+00  4.38318E+01  3.431E-01  2.000E+01  2.000E+04 -1.465E+00
   1   16   12     1    12    4.3655E+05 -3.4104E+04   4.7065E+05  0.000E+00  0.000E+00  0.000E+00  4.33697E+01  3.584E-01  2.000E+01  2.000E+04 -1.705E+00
   1   15   13     1    13    4.7065E+05 -3.2166E+04   5.0282E+05  0.000E+00  0.000E+00  0.000E+00  4.29079E+01  3.739E-01  2.000E+01  2.000E+04 -1.608E+00
   1   14   14     1    14    5.0282E+05 -3.2348E+04   5.3517E+05  0.000E+00  0.000E+00  0.000E+00  4.24453E+01  3.885E-01  2.000E+01  2.000E+04 -1.617E+00
   1   13   15     1    15    5.3517E+05 -3.4789E+04   5.6996E+05  0.000E+00  0.000E+00  0.000E+00  4.19830E+01  4.034E-01  2.000E+01  2.000E+04 -1.739E+00
   1   12   16     1    16    5.6996E+05 -4.1769E+04   6.1172E+05  0.000E+00  0.000E+00  0.000E+00  4.15222E+01  4.200E-01  2.000E+01  2.000E+04 -2.088E+00
   1   12   17     1    17    6.1172E+05 -3.2319E+04   6.4404E+05  0.000E+00  0.000E+00  0.000E+00  4.10606E+01  4.356E-01  2.000E+01  2.000E+04 -1.616E+00
   1   12   18     1    18    6.4404E+05 -3.0852E+04   6.7489E+05  0.000E+00  0.000E+00  0.000E+00  4.05963E+01  4.486E-01  2.000E+01  2.000E+04 -1.543E+00
   1   12   19     1    19    6.7489E+05 -3.5192E+04   7.1009E+05  0.000E+00  0.000E+00  0.000E+00  4.01324E+01  4.619E-01  2.000E+01  2.000E+04 -1.760E+00
   1   13   20     1    20    7.1009E+05 -2.4969E+04   7.3506E+05  0.000E+00  0.000E+00  0.000E+00  3.96670E+01  4.739E-01  2.000E+01  2.000E+04 -1.248E+00
   1   14   21     1    21    7.3506E+05 -1.7954E+04   7.5301E+05  0.000E+00  0.000E+00  0.000E+00  3.91982E+01  4.823E-01  2.000E+01  2.000E+04 -8.977E-01
   1   14   22     1    22    7.5301E+05 -1.3829E+03   7.5439E+05  0.000E+00  0.000E+00  0.000E+00  3.87246E+01  4.860E-01  2.000E+01  2.000E+04 -6.915E-02
   1    9   30     2     1    5.0000E+04 -2.6320E+04   7.6320E+04  0.000E+00  0.000E+00  0.000E+00  4.02583E+01  1.333E-01  2.000E+01  2.000E+04 -1.316E+00
   1    9   29     2     2    7.6320E+04 -2.8787E+04   1.0511E+05  0.000E+00  0.000E+00  0.000E+00  4.00406E+01  1.656E-01  2.000E+01  2.000E+04 -1.439E+00
   1    9   28     2     3    1.0511E+05 -3.3069E+04   1.3818E+05  0.000E+00  0.000E+00  0.000E+00  3.98225E+01  1.975E-01  2.000E+01  2.000E+04 -1.653E+00
   1    9   27     2     4    1.3818E+05 -4.7143E+04   1.8532E+05  0.000E+00  0.000E+00  0.000E+00  3.96094E+01  2.344E-01  2.000E+01  2.000E+04 -2.357E+00
   1   10   26     2     5    1.8532E+05 -3.3085E+04   2.1840E+05  0.000E+00  0.000E+00  0.000E+00  3.93927E+01  2.677E-01  2.000E+01  2.000E+04 -1.654E+00
   1   11   25     2     6    2.1840E+05 -2.4723E+04   2.4313E+05  0.000E+00  0.000E+00  0.000E+00  3.91651E+01  2.901E-01  2.000E+01  2.000E+04 -1.236E+00
   1   12   24     2     7    2.4313E+05 -1.8146E+04   2.6127E+05  0.000E+00  0.000E+00  0.000E+00  3.89309E+01  3.059E-01  2.000E+01  2.000E+04 -9.073E-01
   1   13   23     2     8    2.6127E+05 -1.2766E+04   2.7404E+05  0.000E+00  0.000E+00  0.000E+00  3.86920E+01  3.170E-01  2.000E+01  2.000E+04 -6.383E-01
   1   14   22     2     9    2.7404E+05 -6.8962E+03   2.8094E+05  0.000E+00  0.000E+00  0.000E+00  3.84490E+01  3.240E-01  2.000E+01  2.000E+04 -3.448E-01
   1   14   22     3     1    1.0353E+06 -1.4964E+04   1.0503E+06  0.000E+00  0.000E+00  0.000E+00  3.80456E+01  4.900E-01  2.000E+01  2.000E+04 -7.482E-01
   1   15   23     3     2    1.0503E+06 -2.2694E+04   1.0730E+06  0.000E+00  0.000E+00  0.000E+00  3.71620E+01  4.953E-01  2.000E+01  2.000E+04 -1.135E+00
   1   15   24     3     3    1.0730E+06 -1.9164E+04   1.0921E+06  0.000E+00  0.000E+00  0.000E+00  3.62789E+01  5.012E-01  2.000E+01  2.000E+04 -9.582E-01
   1   15   25     3     4    1.0921E+06 -1.8893E+04   1.1110E+06  0.000E+00  0.000E+00  0.000E+00  3.53953E+01  5.064E-01  2.000E+01  2.000E+04 -9.446E-01
   1   15   26     3     5    1.1110E+06 -2.1692E+04   1.1327E+06  0.000E+00  0.000E+00  0.000E+00  3.45120E+01  5.120E-01  2.000E+01  2.000E+04 -1.085E+00
   1   16   27     3     6    1.1327E+06 -2.8801E+04   1.1615E+06  0.000E+00  0.000E+00  0.000E+00  3.36300E+01  5.189E-01  2.000E+01  2.000E+04 -1.440E+00
   1   17   28     3     7    1.1615E+06 -3.5889E+04   1.1974E+06  0.000E+00  0.000E+00  0.000E+00  3.27498E+01  5.276E-01  2.000E+01  2.000E+04 -1.794E+00
   1   18   29     3     8    1.1974E+06 -4.6937E+04   1.2444E+06  0.000E+00  0.000E+00  0.000E+00  3.18720E+01  5.386E-01  2.000E+01  2.000E+04 -2.347E+00
   1   18   30     3     9    1.2444E+06 -4.3453E+04   1.2878E+06  0.000E+00  0.000E+00  0.000E+00  3.09950E+01  5.505E-01  2.000E+01  2.000E+04 -2.173E+00



1
              HEAD IN LAYER   1 AT END OF TIME STEP   1 IN STRESS PERIOD   11
  ---------------------------------------------------------------------------

          1      2      3      4      5      6      7      8      9     10
         11     12     13     14     15     16     17     18     19     20
         21     22     23     24     25     26     27     28     29     30
 .........................................................................
   1  ****** ****** ****** ****** ****** ****** ****** ****** ****** ******
      ****** ****** ****** ****** ****** ****** ****** ****** ****** ******
      ****** ****** ****** ****** ****** ****** ****** ****** ****** ******
   2  ****** ****** ****** ****** ****** ****** ****** ****** ****** ******
      ****** ****** ****** ****** ****** ****** ****** ****** ****** ******
      ****** ****** ****** ****** ****** ****** ****** ****** ****** ******
   3  ****** ****** ****** ****** ****** ****** ****** ****** ****** ******
      ****** ****** ****** ****** ****** ****** ****** ****** ****** ******
      ****** ****** ****** ****** ****** ****** ****** ****** ****** ******
   4  ****** ****** ****** ****** ****** ****** ****** ****** ****** ******
      ****** ****** ****** ****** ****** ****** ****** ****** ****** ******
      ****** ****** ****** ****** ****** ****** ****** ****** ****** ******
   5  ****** ****** ****** ****** ****** ****** ****** ****** ****** ******
      ****** ****** ****** ****** ****** ****** ****** ****** ****** ******
      ****** ****** ****** ****** ****** ****** ****** ****** ****** ******
   6  ****** ****** ****** ****** ****** ****** ****** ****** ****** ******
      ****** ****** ****** ****** ****** ****** ****** ****** ****** ******
      ****** ****** ****** ****** ****** ****** ****** ****** ****** ******
   7  ****** ****** ****** ****** ****** ****** ****** ****** ****** ******
      ****** ****** ****** ****** ****** ****** ****** ****** ****** ******
      ****** ****** ****** ****** ****** ****** ****** ****** ****** ******
   8  ****** ****** ****** ****** ****** ****** ****** ****** ****** ******
      ****** ****** ****** ****** ****** ****** ****** ****** ****** ******
      ****** ****** ****** ****** ****** ****** ****** ****** ****** ******
   9  ****** ****** ****** ****** ****** ****** ****** ****** ****** ******
      ****** ****** ****** ****** ****** ****** ****** ****** ****** ******
      ****** ****** ****** ****** ****** ****** ****** ****** ****** ******
  10  ****** ****** ****** ****** ****** ****** ****** ****** ****** ******
      ****** ****** ****** ****** ****** ****** ****** ****** ****** ******
      ****** ****** ****** ****** ****** ****** ****** ****** ****** ******
  11  ****** ****** ****** ****** ****** ****** ****** ****** ****** ******
      ****** ****** ****** ****** ****** ****** ****** ****** ****** ******
      ****** ****** ****** ****** ****** ****** ****** ****** ****** ******
  12  ****** ****** ****** ****** ****** ****** ****** ****** ****** ******
      ****** ****** ****** ****** ****** ****** ****** ****** ****** ******
      ****** ****** ****** ****** ****** ****** ****** ****** ****** ******
  13  ****** ****** ****** ****** ****** ****** ****** ****** ****** ******
      ****** ****** ****** ****** ****** ****** ****** ****** ****** ******
      ****** ****** ****** ****** ****** ****** ****** ****** ****** ******
  14  ****** ****** ****** ****** ****** ****** ****** ****** ****** ******
      ****** ****** ****** ****** ****** ****** ****** ****** ****** ******
      ****** ****** ****** ****** ****** ****** ****** ****** ****** ******
  15  ****** ****** ****** ****** ****** ****** ****** ****** ****** ******
      ****** ****** ****** ****** ****** ****** ****** ****** ****** ******
      ****** ****** ****** ****** ****** ****** ****** ****** ****** ******
  16  ****** ****** ****** ****** ****** ****** ****** ****** ****** ******
      ****** ****** ****** ****** ****** ****** ****** ****** ****** ******
      ****** ****** ****** ****** ****** ****** ****** ****** ****** ******
  17  ****** ****** ****** ****** ****** ****** ****** ****** ****** ******
      ****** ****** ****** ****** ****** ****** ****** ****** ****** ******
      ****** ****** ****** ****** ****** ****** ****** ****** ****** ******
  18  ****** ****** ****** ****** ****** ****** ****** ****** ****** ******
      ****** ****** ****** ****** ****** ****** ****** ****** ****** ******
      ****** ****** ****** ****** ****** ****** ****** ****** ****** ******
  19  ****** ****** ****** ****** ****** ****** ****** ****** ****** ******
      ****** ****** ****** ****** ****** ****** ****** ****** ****** ******
      ****** ****** ****** ****** ****** ****** ****** ****** ****** ******
  20  ****** ****** ****** ****** ****** ****** ****** ****** ****** ******
      ****** ****** ****** ****** ****** ****** ****** ****** ****** ******
      ****** ****** ****** ****** ****** ****** ****** ****** ****** ******
  21  ****** ****** ****** ****** ****** ****** ****** ****** ****** ******
      ****** ****** ****** ****** ****** ****** ****** ****** ****** ******
      ****** ****** ****** ****** ****** ****** ****** ****** ****** ******
  22  ****** ****** ****** ****** ****** ****** ****** ****** ****** ******
      ****** ****** ****** ****** ****** ****** ****** ****** ****** ******
      ****** ****** ****** ****** ****** ****** ****** ****** ****** ******
  23  ****** ****** ****** ****** ****** ****** ****** ****** ****** ******
      ****** ****** ****** ****** ****** ****** ****** ****** ****** ******
      ****** ****** ****** ****** ****** ****** ****** ****** ****** ******
  24  ****** ****** ****** ****** ****** ****** ****** ****** ****** ******
      ****** ****** ****** ****** ****** ****** ****** ****** ****** ******
      ****** ****** ****** ****** ****** ****** ****** ****** ****** ******
  25  ****** ****** ****** ****** ****** ****** ****** ****** ****** ******
      ****** ****** ****** ****** ****** ****** ****** ****** ****** ******
      ****** ****** ****** ****** ****** ****** ****** ****** ****** ******

 HEAD WILL BE SAVED ON UNIT   51 AT END OF TIME STEP    1, STRESS PERIOD   11
1
  VOLUMETRIC BUDGET FOR ENTIRE MODEL AT END OF TIME STEP    1, STRESS PERIOD  11
  ------------------------------------------------------------------------------

     CUMULATIVE VOLUMES      L**3       RATES FOR THIS TIME STEP      L**3/T
     ------------------                 ------------------------

           IN:                                      IN:
           ---                                      ---
             STORAGE =    20807016.2993               STORAGE =        2133.1737
       CONSTANT HEAD =  1157557956.2672         CONSTANT HEAD =     1166512.4669
               WELLS =           0.0000                 WELLS =           0.0000
            RECHARGE =    23901600.0000              RECHARGE =           0.0000
      STREAM LEAKAGE =           0.0000        STREAM LEAKAGE =           0.0000

            TOTAL IN =  1202266572.5665              TOTAL IN =     1168645.6406

          OUT:                                     OUT:
          ----                                     ----
             STORAGE =      846155.8251               STORAGE =         433.5069
       CONSTANT HEAD =           0.0000         CONSTANT HEAD =           0.0000
               WELLS =    52325257.0464                 WELLS =       30398.1243
            RECHARGE =           0.0000              RECHARGE =           0.0000
      STREAM LEAKAGE =  1149095171.9846        STREAM LEAKAGE =     1137814.0480

           TOTAL OUT =  1202266584.8561             TOTAL OUT =     1168645.6792

            IN - OUT =         -12.2896              IN - OUT =      -3.8593E-02

 PERCENT DISCREPANCY =          -0.00     PERCENT DISCREPANCY =          -0.00






         TIME SUMMARY AT END OF TIME STEP    1 IN STRESS PERIOD   11
                    SECONDS     MINUTES      HOURS       DAYS        YEARS
                    -----------------------------------------------------------
   TIME STEP LENGTH 7.86240E+06 1.31040E+05  2184.0      91.000     0.24914    
 STRESS PERIOD TIME 7.86240E+06 1.31040E+05  2184.0      91.000     0.24914    
         TOTAL TIME 8.67456E+07 1.44576E+06  24096.      1004.0      2.7488    
1
1
                            STRESS PERIOD NO.   12, LENGTH =   91.00000    
                            -----------------------------------------------

                              NUMBER OF TIME STEPS =     1

                               MULTIPLIER FOR DELT =     1.500

                            INITIAL TIME STEP SIZE =   91.00000    

 WELL NO.  LAYER   ROW   COL   STRESS RATE         
 --------------------------------------------------
      1      1     12     11      -3484.    
      2      1     16     17     -0.2675E+05
      3      1     14     25     -0.1056E+05

      3 WELLS

                 RECHARGE =  1.000000E-03

 REUSING STREAM SEGMENT DATA FROM LAST STRESS PERIOD
 
 SOLVING FOR HEAD 


     6 CALLS TO PCG ROUTINE FOR TIME STEP   1 IN STRESS PERIOD   12
    22 TOTAL ITERATIONS

 OUTPUT CONTROL FOR STRESS PERIOD   12   TIME STEP    1
    SAVE BUDGET
    SAVE HEAD FOR ALL LAYERS
    PRINT HEAD FOR ALL LAYERS
 UBDSV2 SAVING "STREAMFLOW OUT  " ON UNIT  50 AT TIME STEP  1, STRESS PERIOD  12



 STREAM LISTING     PERIOD     12   STEP        1

 LAYER ROW COL. STREAM  RCH.  FLOW INTO     FLOW TO   FLOW OUT OF   OVRLND.     DIRECT     STREAM       STREAM     STREAM     STREAM   STREAMBED  STREAMBED
                SEG.NO.  NO.  STRM. RCH.    AQUIFER    STRM. RCH.    RUNOFF     PRECIP       ET          HEAD       DEPTH      WIDTH   CONDCTNC.   GRADIENT

   1   13    1     1     1    1.0000E+05 -2.7830E+04   1.2783E+05  0.000E+00  0.000E+00  0.000E+00  4.84178E+01  1.564E-01  2.000E+01  2.000E+04 -1.392E+00
   1   13    2     1     2    1.2783E+05 -3.7555E+04   1.6539E+05  0.000E+00  0.000E+00  0.000E+00  4.79661E+01  1.820E-01  2.000E+01  2.000E+04 -1.878E+00
   1   14    3     1     3    1.6539E+05 -3.3027E+04   1.9841E+05  0.000E+00  0.000E+00  0.000E+00  4.75139E+01  2.071E-01  2.000E+01  2.000E+04 -1.651E+00
   1   15    4     1     4    1.9841E+05 -3.2255E+04   2.3067E+05  0.000E+00  0.000E+00  0.000E+00  4.70582E+01  2.287E-01  2.000E+01  2.000E+04 -1.613E+00
   1   16    5     1     5    2.3067E+05 -3.3776E+04   2.6444E+05  0.000E+00  0.000E+00  0.000E+00  4.66015E+01  2.492E-01  2.000E+01  2.000E+04 -1.689E+00
   1   16    6     1     6    2.6444E+05 -2.9473E+04   2.9392E+05  0.000E+00  0.000E+00  0.000E+00  4.61428E+01  2.678E-01  2.000E+01  2.000E+04 -1.474E+00
   1   16    7     1     7    2.9392E+05 -2.9251E+04   3.2317E+05  0.000E+00  0.000E+00  0.000E+00  4.56821E+01  2.844E-01  2.000E+01  2.000E+04 -1.463E+00
   1   16    8     1     8    3.2317E+05 -2.9374E+04   3.5254E+05  0.000E+00  0.000E+00  0.000E+00  4.52208E+01  3.003E-01  2.000E+01  2.000E+04 -1.469E+00
   1   16    9     1     9    3.5254E+05 -2.9369E+04   3.8191E+05  0.000E+00  0.000E+00  0.000E+00  4.47589E+01  3.157E-01  2.000E+01  2.000E+04 -1.468E+00
   1   16   10     1    10    3.8191E+05 -2.9271E+04   4.1118E+05  0.000E+00  0.000E+00  0.000E+00  4.42965E+01  3.306E-01  2.000E+01  2.000E+04 -1.464E+00
   1   16   11     1    11    4.1118E+05 -2.9655E+04   4.4084E+05  0.000E+00  0.000E+00  0.000E+00  4.38338E+01  3.451E-01  2.000E+01  2.000E+04 -1.483E+00
   1   16   12     1    12    4.4084E+05 -3.4525E+04   4.7536E+05  0.000E+00  0.000E+00  0.000E+00  4.33719E+01  3.605E-01  2.000E+01  2.000E+04 -1.726E+00
   1   15   13     1    13    4.7536E+05 -3.2630E+04   5.0799E+05  0.000E+00  0.000E+00  0.000E+00  4.29102E+01  3.761E-01  2.000E+01  2.000E+04 -1.632E+00
   1   14   14     1    14    5.0799E+05 -3.2827E+04   5.4082E+05  0.000E+00  0.000E+00  0.000E+00  4.24478E+01  3.910E-01  2.000E+01  2.000E+04 -1.641E+00
   1   13   15     1    15    5.4082E+05 -3.5261E+04   5.7608E+05  0.000E+00  0.000E+00  0.000E+00  4.19855E+01  4.060E-01  2.000E+01  2.000E+04 -1.763E+00
   1   12   16     1    16    5.7608E+05 -4.2217E+04   6.1830E+05  0.000E+00  0.000E+00  0.000E+00  4.15249E+01  4.227E-01  2.000E+01  2.000E+04 -2.111E+00
   1   12   17     1    17    6.1830E+05 -3.2681E+04   6.5098E+05  0.000E+00  0.000E+00  0.000E+00  4.10634E+01  4.384E-01  2.000E+01  2.000E+04 -1.634E+00
   1   12   18     1    18    6.5098E+05 -3.1193E+04   6.8217E+05  0.000E+00  0.000E+00  0.000E+00  4.05992E+01  4.515E-01  2.000E+01  2.000E+04 -1.560E+00
   1   12   19     1    19    6.8217E+05 -3.5549E+04   7.1772E+05  0.000E+00  0.000E+00  0.000E+00  4.01354E+01  4.649E-01  2.000E+01  2.000E+04 -1.777E+00
   1   13   20     1    20    7.1772E+05 -2.5288E+04   7.4301E+05  0.000E+00  0.000E+00  0.000E+00  3.96701E+01  4.769E-01  2.000E+01  2.000E+04 -1.264E+00
   1   14   21     1    21    7.4301E+05 -1.8201E+04   7.6121E+05  0.000E+00  0.000E+00  0.000E+00  3.92013E+01  4.854E-01  2.000E+01  2.000E+04 -9.100E-01
   1   14   22     1    22    7.6121E+05 -1.3302E+03   7.6254E+05  0.000E+00  0.000E+00  0.000E+00  3.87278E+01  4.892E-01  2.000E+01  2.000E+04 -6.651E-02
   1    9   30     2     1    5.0000E+04 -2.6514E+04   7.6514E+04  0.000E+00  0.000E+00  0.000E+00  4.02584E+01  1.334E-01  2.000E+01  2.000E+04 -1.326E+00
   1    9   29     2     2    7.6514E+04 -2.8976E+04   1.0549E+05  0.000E+00  0.000E+00  0.000E+00  4.00410E+01  1.660E-01  2.000E+01  2.000E+04 -1.449E+00
   1    9   28     2     3    1.0549E+05 -3.3257E+04   1.3875E+05  0.000E+00  0.000E+00  0.000E+00  3.98230E+01  1.980E-01  2.000E+01  2.000E+04 -1.663E+00
   1    9   27     2     4    1.3875E+05 -4.7382E+04   1.8613E+05  0.000E+00  0.000E+00  0.000E+00  3.96100E+01  2.350E-01  2.000E+01  2.000E+04 -2.369E+00
   1   10   26     2     5    1.8613E+05 -3.3180E+04   2.1931E+05  0.000E+00  0.000E+00  0.000E+00  3.93934E+01  2.684E-01  2.000E+01  2.000E+04 -1.659E+00
   1   11   25     2     6    2.1931E+05 -2.4500E+04   2.4381E+05  0.000E+00  0.000E+00  0.000E+00  3.91656E+01  2.906E-01  2.000E+01  2.000E+04 -1.225E+00
   1   12   24     2     7    2.4381E+05 -1.7581E+04   2.6139E+05  0.000E+00  0.000E+00  0.000E+00  3.89312E+01  3.062E-01  2.000E+01  2.000E+04 -8.791E-01
   1   13   23     2     8    2.6139E+05 -1.2289E+04   2.7368E+05  0.000E+00  0.000E+00  0.000E+00  3.86920E+01  3.170E-01  2.000E+01  2.000E+04 -6.144E-01
   1   14   22     2     9    2.7368E+05 -6.9116E+03   2.8059E+05  0.000E+00  0.000E+00  0.000E+00  3.84487E+01  3.237E-01  2.000E+01  2.000E+04 -3.456E-01
   1   14   22     3     1    1.0431E+06 -1.4931E+04   1.0581E+06  0.000E+00  0.000E+00  0.000E+00  3.80478E+01  4.922E-01  2.000E+01  2.000E+04 -7.465E-01
   1   15   23     3     2    1.0581E+06 -2.2543E+04   1.0806E+06  0.000E+00  0.000E+00  0.000E+00  3.71641E+01  4.975E-01  2.000E+01  2.000E+04 -1.127E+00
   1   15   24     3     3    1.0806E+06 -1.8276E+04   1.0989E+06  0.000E+00  0.000E+00  0.000E+00  3.62809E+01  5.031E-01  2.000E+01  2.000E+04 -9.138E-01
   1   15   25     3     4    1.0989E+06 -1.6743E+04   1.1156E+06  0.000E+00  0.000E+00  0.000E+00  3.53969E+01  5.080E-01  2.000E+01  2.000E+04 -8.372E-01
   1   15   26     3     5    1.1156E+06 -2.0631E+04   1.1363E+06  0.000E+00  0.000E+00  0.000E+00  3.45131E+01  5.131E-01  2.000E+01  2.000E+04 -1.032E+00
   1   16   27     3     6    1.1363E+06 -2.8726E+04   1.1650E+06  0.000E+00  0.000E+00  0.000E+00  3.36309E+01  5.198E-01  2.000E+01  2.000E+04 -1.436E+00
   1   17   28     3     7    1.1650E+06 -3.6058E+04   1.2010E+06  0.000E+00  0.000E+00  0.000E+00  3.27508E+01  5.286E-01  2.000E+01  2.000E+04 -1.803E+00
   1   18   29     3     8    1.2010E+06 -4.7184E+04   1.2482E+06  0.000E+00  0.000E+00  0.000E+00  3.18730E+01  5.396E-01  2.000E+01  2.000E+04 -2.359E+00
   1   18   30     3     9    1.2482E+06 -4.3657E+04   1.2919E+06  0.000E+00  0.000E+00  0.000E+00  3.09960E+01  5.516E-01  2.000E+01  2.000E+04 -2.183E+00



1
              HEAD IN LAYER   1 AT END OF TIME STEP   1 IN STRESS PERIOD   12
  ---------------------------------------------------------------------------

          1      2      3      4      5      6      7      8      9     10
         11     12     13     14     15     16     17     18     19     20
         21     22     23     24     25     26     27     28     29     30
 .........................................................................
   1  ****** ****** ****** ****** ****** ****** ****** ****** ****** ******
      ****** ****** ****** ****** ****** ****** ****** ****** ****** ******
      ****** ****** ****** ****** ****** ****** ****** ****** ****** ******
   2  ****** ****** ****** ****** ****** ****** ****** ****** ****** ******
      ****** ****** ****** ****** ****** ****** ****** ****** ****** ******
      ****** ****** ****** ****** ****** ****** ****** ****** ****** ******
   3  ****** ****** ****** ****** ****** ****** ****** ****** ****** ******
      ****** ****** ****** ****** ****** ****** ****** ****** ****** ******
      ****** ****** ****** ****** ****** ****** ****** ****** ****** ******
   4  ****** ****** ****** ****** ****** ****** ****** ****** ****** ******
      ****** ****** ****** ****** ****** ****** ****** ****** ****** ******
      ****** ****** ****** ****** ****** ****** ****** ****** ****** ******
   5  ****** ****** ****** ****** ****** ****** ****** ****** ****** ******
      ****** ****** ****** ****** ****** ****** ****** ****** ****** ******
      ****** ****** ****** ****** ****** ****** ****** ****** ****** ******
   6  ****** ****** ****** ****** ****** ****** ****** ****** ****** ******
      ****** ****** ****** ****** ****** ****** ****** ****** ****** ******
      ****** ****** ****** ****** ****** ****** ****** ****** ****** ******
   7  ****** ****** ****** ****** ****** ****** ****** ****** ****** ******
      ****** ****** ****** ****** ****** ****** ****** ****** ****** ******
      ****** ****** ****** ****** ****** ****** ****** ****** ****** ******
   8  ****** ****** ****** ****** ****** ****** ****** ****** ****** ******
      ****** ****** ****** ****** ****** ****** ****** ****** ****** ******
      ****** ****** ****** ****** ****** ****** ****** ****** ****** ******
   9  ****** ****** ****** ****** ****** ****** ****** ****** ****** ******
      ****** ****** ****** ****** ****** ****** ****** ****** ****** ******
      ****** ****** ****** ****** ****** ****** ****** ****** ****** ******
  10  ****** ****** ****** ****** ****** ****** ****** ****** ****** ******
      ****** ****** ****** ****** ****** ****** ****** ****** ****** ******
      ****** ****** ****** ****** ****** ****** ****** ****** ****** ******
  11  ****** ****** ****** ****** ****** ****** ****** ****** ****** ******
      ****** ****** ****** ****** ****** ****** ****** ****** ****** ******
      ****** ****** ****** ****** ****** ****** ****** ****** ****** ******
  12  ****** ****** ****** ****** ****** ****** ****** ****** ****** ******
      ****** ****** ****** ****** ****** ****** ****** ****** ****** ******
      ****** ****** ****** ****** ****** ****** ****** ****** ****** ******
  13  ****** ****** ****** ****** ****** ****** ****** ****** ****** ******
      ****** ****** ****** ****** ****** ****** ****** ****** ****** ******
      ****** ****** ****** ****** ****** ****** ****** ****** ****** ******
  14  ****** ****** ****** ****** ****** ****** ****** ****** ****** ******
      ****** ****** ****** ****** ****** ****** ****** ****** ****** ******
      ****** ****** ****** ****** ****** ****** ****** ****** ****** ******
  15  ****** ****** ****** ****** ****** ****** ****** ****** ****** ******
      ****** ****** ****** ****** ****** ****** ****** ****** ****** ******
      ****** ****** ****** ****** ****** ****** ****** ****** ****** ******
  16  ****** ****** ****** ****** ****** ****** ****** ****** ****** ******
      ****** ****** ****** ****** ****** ****** ****** ****** ****** ******
      ****** ****** ****** ****** ****** ****** ****** ****** ****** ******
  17  ****** ****** ****** ****** ****** ****** ****** ****** ****** ******
      ****** ****** ****** ****** ****** ****** ****** ****** ****** ******
      ****** ****** ****** ****** ****** ****** ****** ****** ****** ******
  18  ****** ****** ****** ****** ****** ****** ****** ****** ****** ******
      ****** ****** ****** ****** ****** ****** ****** ****** ****** ******
      ****** ****** ****** ****** ****** ****** ****** ****** ****** ******
  19  ****** ****** ****** ****** ****** ****** ****** ****** ****** ******
      ****** ****** ****** ****** ****** ****** ****** ****** ****** ******
      ****** ****** ****** ****** ****** ****** ****** ****** ****** ******
  20  ****** ****** ****** ****** ****** ****** ****** ****** ****** ******
      ****** ****** ****** ****** ****** ****** ****** ****** ****** ******
      ****** ****** ****** ****** ****** ****** ****** ****** ****** ******
  21  ****** ****** ****** ****** ****** ****** ****** ****** ****** ******
      ****** ****** ****** ****** ****** ****** ****** ****** ****** ******
      ****** ****** ****** ****** ****** ****** ****** ****** ****** ******
  22  ****** ****** ****** ****** ****** ****** ****** ****** ****** ******
      ****** ****** ****** ****** ****** ****** ****** ****** ****** ******
      ****** ****** ****** ****** ****** ****** ****** ****** ****** ******
  23  ****** ****** ****** ****** ****** ****** ****** ****** ****** ******
      ****** ****** ****** ****** ****** ****** ****** ****** ****** ******
      ****** ****** ****** ****** ****** ****** ****** ****** ****** ******
  24  ****** ****** ****** ****** ****** ****** ****** ****** ****** ******
      ****** ****** ****** ****** ****** ****** ****** ****** ****** ******
      ****** ****** ****** ****** ****** ****** ****** ****** ****** ******
  25  ****** ****** ****** ****** ****** ****** ****** ****** ****** ******
      ****** ****** ****** ****** ****** ****** ****** ****** ****** ******
      ****** ****** ****** ****** ****** ****** ****** ****** ****** ******

 HEAD WILL BE SAVED ON UNIT   51 AT END OF TIME STEP    1, STRESS PERIOD   12
1
  VOLUMETRIC BUDGET FOR ENTIRE MODEL AT END OF TIME STEP    1, STRESS PERIOD  12
  ------------------------------------------------------------------------------

     CUMULATIVE VOLUMES      L**3       RATES FOR THIS TIME STEP      L**3/T
     ------------------                 ------------------------

           IN:                                      IN:
           ---                                      ---
             STORAGE =    20812872.1251               STORAGE =          64.3497
       CONSTANT HEAD =  1262764384.8484         CONSTANT HEAD =     1156114.5998
               WELLS =           0.0000                 WELLS =           0.0000
            RECHARGE =    26413200.0000              RECHARGE =       27600.0000
      STREAM LEAKAGE =           0.0000        STREAM LEAKAGE =           0.0000

            TOTAL IN =  1309990456.9735              TOTAL IN =     1183778.9495

          OUT:                                     OUT:
          ----                                     ----
             STORAGE =      946708.3662               STORAGE =        1104.9730
       CONSTANT HEAD =           0.0000         CONSTANT HEAD =           0.0000
               WELLS =    56037696.5248                 WELLS =       40796.0382
            RECHARGE =           0.0000              RECHARGE =           0.0000
      STREAM LEAKAGE =  1253006062.5588        STREAM LEAKAGE =     1141877.9184

           TOTAL OUT =  1309990467.4498             TOTAL OUT =     1183778.9296

            IN - OUT =         -10.4763              IN - OUT =       1.9926E-02

 PERCENT DISCREPANCY =          -0.00     PERCENT DISCREPANCY =           0.00






         TIME SUMMARY AT END OF TIME STEP    1 IN STRESS PERIOD   12
                    SECONDS     MINUTES      HOURS       DAYS        YEARS
                    -----------------------------------------------------------
   TIME STEP LENGTH 7.86240E+06 1.31040E+05  2184.0      91.000     0.24914    
 STRESS PERIOD TIME 7.86240E+06 1.31040E+05  2184.0      91.000     0.24914    
         TOTAL TIME 9.46080E+07 1.57680E+06  26280.      1095.0      2.9979    
1

 Run end date and time (yyyy/mm/dd hh:mm:ss): 2018/09/25 13:54:32
 Elapsed run time:  0.055 Seconds

