                                  MODFLOW-2005     
      U.S. GEOLOGICAL SURVEY MODULAR FINITE-DIFFERENCE GROUND-WATER FLOW MODEL
                            VERSION 1.11.00 8/8/2013

 LIST FILE: supply2.lst
                         UNIT   10

 OPENING ..\data\supply.dis
 FILE TYPE:DIS   UNIT   11   STATUS:OLD    
 FORMAT:FORMATTED              ACCESS:SEQUENTIAL          

 OPENING ..\data\supply.ba6
 FILE TYPE:BAS6   UNIT   12   STATUS:OLD    
 FORMAT:FORMATTED              ACCESS:SEQUENTIAL          

 OPENING ..\data\supply_het.bc6
 FILE TYPE:BCF6   UNIT   13   STATUS:OLD    
 FORMAT:FORMATTED              ACCESS:SEQUENTIAL          

 OPENING ..\data\supply.rch
 FILE TYPE:RCH   UNIT   15   STATUS:OLD    
 FORMAT:FORMATTED              ACCESS:SEQUENTIAL          

 OPENING ..\data\supply2.sfr
 FILE TYPE:SFR   UNIT   16   STATUS:OLD    
 FORMAT:FORMATTED              ACCESS:SEQUENTIAL          

 OPENING ..\data\supply.oc
 FILE TYPE:OC   UNIT   17   STATUS:OLD    
 FORMAT:FORMATTED              ACCESS:SEQUENTIAL          

 OPENING ..\data\supply.pcg
 FILE TYPE:PCG   UNIT   18   STATUS:OLD    
 FORMAT:FORMATTED              ACCESS:SEQUENTIAL          

 OPENING supply2.wel
 FILE TYPE:WEL   UNIT   19   STATUS:OLD    
 FORMAT:FORMATTED              ACCESS:SEQUENTIAL          

 OPENING supply2sf.cbc
 FILE TYPE:DATA(BINARY)   UNIT   50   STATUS:UNKNOWN
 FORMAT:BINARY                 ACCESS:SEQUENTIAL          

 OPENING supply2hd.bhd
 FILE TYPE:DATA(BINARY)   UNIT   51   STATUS:UNKNOWN
 FORMAT:BINARY                 ACCESS:SEQUENTIAL          

 BAS -- BASIC PACKAGE, VERSION 7, 5/2/2005 INPUT READ FROM UNIT   12
 
 MODFLOW was compiled using uniform precision
 Precision of REAL and DOUBLE PRECISION variables:          15

 DISCRETIZATION INPUT DATA READ FROM UNIT   11
    1 LAYERS        25 ROWS        30 COLUMNS
   12 STRESS PERIOD(S) IN SIMULATION
 MODEL TIME UNIT IS DAYS
 MODEL LENGTH UNIT IS UNDEFINED
  Confining bed flag for each layer:
   0

                     DELR =   200.000    

                     DELC =   200.000    

 TOP ELEVATION OF LAYER 1 =  100.0000    

   MODEL LAYER BOTTOM EL. =   0.00000     FOR LAYER   1


 STRESS PERIOD     LENGTH       TIME STEPS     MULTIPLIER FOR DELT    SS FLAG
 ----------------------------------------------------------------------------
        1         92.00000          1                    1.500         TR
        2         91.00000          1                    1.500         TR
        3         91.00000          1                    1.500         TR
        4         91.00000          1                    1.500         TR
        5         92.00000          1                    1.500         TR
        6         91.00000          1                    1.500         TR
        7         91.00000          1                    1.500         TR
        8         91.00000          1                    1.500         TR
        9         92.00000          1                    1.500         TR
       10         91.00000          1                    1.500         TR
       11         91.00000          1                    1.500         TR
       12         91.00000          1                    1.500         TR

 TRANSIENT SIMULATION



 
 #MODOFC transient water supply sample problem                                   
 #                                                                               
 THE FREE FORMAT OPTION HAS BEEN SELECTED



                     BOUNDARY ARRAY FOR LAYER   1
 READING ON UNIT   12 WITH FORMAT: (20I4)              

 AQUIFER HEAD WILL BE SET TO   0.0000     AT ALL NO-FLOW NODES (IBOUND=0).



                       INITIAL HEAD FOR LAYER   1
 READING ON UNIT   12 WITH FORMAT: (10F13.0)           

 OUTPUT CONTROL IS SPECIFIED ONLY AT TIME STEPS FOR WHICH OUTPUT IS DESIRED
 COMPACT CELL-BY-CELL BUDGET FILES WILL BE WRITTEN
 HEAD PRINT FORMAT CODE IS  18    DRAWDOWN PRINT FORMAT CODE IS   0
 HEADS WILL BE SAVED ON UNIT   51    DRAWDOWNS WILL BE SAVED ON UNIT    0

 BCF -- BLOCK-CENTERED FLOW PACKAGE, VERSION 7, 5/2/2005
         INPUT READ FROM UNIT 13
 TRANSIENT SIMULATION
 HEAD AT CELLS THAT CONVERT TO DRY=   0.0000    
 WETTING CAPABILITY IS NOT ACTIVE
      LAYER  LAYER-TYPE CODE     INTERBLOCK T
      --------------------------------------------
         1            0          0 -- HARMONIC    

 COLUMN TO ROW ANISOTROPY =  1.000000    

     PRIMARY STORAGE COEF =  5.000000E-02 FOR LAYER   1



               TRANSMIS. ALONG ROWS FOR LAYER   1
 READING ON UNIT   13 WITH FORMAT: (FREE)              

 WEL -- WELL PACKAGE, VERSION 7, 5/2/2005 INPUT READ FROM UNIT   19
 # Well package input file written by MMProc
 No named parameters
 MAXIMUM OF      4 ACTIVE WELLS AT ONE TIME


     0 Well parameters

 RCH -- RECHARGE PACKAGE, VERSION 7, 5/2/2005 INPUT READ FROM UNIT   15
 No named parameters
 OPTION 1 -- RECHARGE TO TOP LAYER


     0 Recharge parameters

 SFR7 -- STREAMFLOW ROUTING PACKAGE, VERSION 1.0.7, 2013-01-15
         INPUT READ FROM UNIT  16
 #  Supply2 test problem for GWM-VI
 #  The eighth entry in the first data line is ISTCB2 -
 #    Setting this to a negative number indicates that
 #    streamflows out of the reach will be saved to a
 #    binary file.  The absolute value of ISTCB2 is the
 #    unit to which unformatted flows will be written.
 #
 No named parameters
 Segment information will not be 
 read by reach
 No named parameters
 No specifed inflow files


 NUMBER OF STREAM REACHES IS   40

 NUMBER OF STREAM SEGMENTS IS    3

 NUMBER OF STREAM PARAMETERS IS    0

 NUMBER OF STREAM SEGMENTS DEFINED USING PARAMETERS IS              0

 MAXIMUM ERROR FOR STREAM LEAKAGE RATES IS  1.00E-04

 CONSTANT FOR MANNINGS EQUATION IS  1.2839E+05





   STREAM NETWORK DESCRIPTION: 

   LAYER    ROW    COL   SEGMENT   REACH     LENGTH
                          NUMBER   NUMBER    IN CELL        
   --------------------------------------------------
      1     13      1       1        1    2.0000E+02
      1     13      2       1        2    2.0000E+02
      1     14      3       1        3    2.0000E+02
      1     15      4       1        4    2.0000E+02
      1     16      5       1        5    2.0000E+02
      1     16      6       1        6    2.0000E+02
      1     16      7       1        7    2.0000E+02
      1     16      8       1        8    2.0000E+02
      1     16      9       1        9    2.0000E+02
      1     16     10       1       10    2.0000E+02
      1     16     11       1       11    2.0000E+02
      1     16     12       1       12    2.0000E+02
      1     15     13       1       13    2.0000E+02
      1     14     14       1       14    2.0000E+02
      1     13     15       1       15    2.0000E+02
      1     12     16       1       16    2.0000E+02
      1     12     17       1       17    2.0000E+02
      1     12     18       1       18    2.0000E+02
      1     12     19       1       19    2.0000E+02
      1     13     20       1       20    2.0000E+02
      1     14     21       1       21    2.0000E+02
      1     14     22       1       22    2.0000E+02
      1      9     30       2        1    2.0000E+02
      1      9     29       2        2    2.0000E+02
      1      9     28       2        3    2.0000E+02
      1      9     27       2        4    2.0000E+02
      1     10     26       2        5    2.0000E+02
      1     11     25       2        6    2.0000E+02
      1     12     24       2        7    2.0000E+02
      1     13     23       2        8    2.0000E+02
      1     14     22       2        9    2.0000E+02
      1     14     22       3        1    2.0000E+02
      1     15     23       3        2    2.0000E+02
      1     15     24       3        3    2.0000E+02
      1     15     25       3        4    2.0000E+02
      1     15     26       3        5    2.0000E+02
      1     16     27       3        6    2.0000E+02
      1     17     28       3        7    2.0000E+02
      1     18     29       3        8    2.0000E+02
      1     18     30       3        9    2.0000E+02




 PCG -- CONJUGATE-GRADIENT SOLUTION PACKAGE, VERSION 7, 5/2/2005
 MAXIMUM OF    500 CALLS OF SOLUTION ROUTINE
 MAXIMUM OF      5 INTERNAL ITERATIONS PER CALL TO SOLUTION ROUTINE
 MATRIX PRECONDITIONING TYPE :    1



                                    SOLUTION BY THE CONJUGATE-GRADIENT METHOD
                                   -------------------------------------------
                    MAXIMUM NUMBER OF CALLS TO PCG ROUTINE =      500
                        MAXIMUM ITERATIONS PER CALL TO PCG =        5
                               MATRIX PRECONDITIONING TYPE =        1
        RELAXATION FACTOR (ONLY USED WITH PRECOND. TYPE 1) =    0.10000E+01
 PARAMETER OF POLYNOMIAL PRECOND. = 2 (2) OR IS CALCULATED :        0
                         HEAD CHANGE CRITERION FOR CLOSURE =    0.10000E-05
                     RESIDUAL CHANGE CRITERION FOR CLOSURE =    0.10000E+01
            PCG HEAD AND RESIDUAL CHANGE PRINTOUT INTERVAL =        1
     PRINTING FROM SOLVER IS LIMITED(1) OR SUPPRESSED (>1) =        1
                            STEADY-STATE DAMPING PARAMETER =    0.10000E+01
                               TRANSIENT DAMPING PARAMETER =    0.10000E+01
1
                            STRESS PERIOD NO.    1, LENGTH =   92.00000    
                            -----------------------------------------------

                              NUMBER OF TIME STEPS =     1

                               MULTIPLIER FOR DELT =     1.500

                            INITIAL TIME STEP SIZE =   92.00000    

 WELL NO.  LAYER   ROW   COL   STRESS RATE         
 --------------------------------------------------
      1      1     16      2      -8562.    
      2      1     23     16      -2065.    
      3      1     13     14      -8503.    
      4      1      6     16      -8940.    

      4 WELLS

                 RECHARGE =  5.000000E-04



 CLASSIFICATION & COUNT OF STREAM SEGMENTS BASED ON SOURCE OF INFLOW:

                HEADWATER     DIVERSION     RECEIVES TRIBUTARY FLOW
                ---------     ---------     -----------------------
                     2              0               1



                    INPUT DATA FOR EACH STREAM SEGMENT
 ---------------------------------------------------------------------------------------------

 SEGMENT    SEG.     INFLOW   OVERLAND   STREAM    STREAM   ICALC  OUTFLOW  DIVERSION PRIORITY
    NO.    LENGTH     RATE     RUNOFF      ET       PPT.    METH.  TO SEG.  FROM SEG.    NO.

      1  4.400E+03 1.000E+05 0.000E+00 0.000E+00 0.000E+00    1        3        0        0
      2  1.800E+03 5.000E+04 0.000E+00 0.000E+00 0.000E+00    1        3        0        0
      3  1.800E+03 0.000E+00 0.000E+00 0.000E+00 0.000E+00    1        0        0        0


         STREAMBED PROPERTIES AND STREAM DIMENSIONS

 SEGMENT     BED HYD. COND.      BED THICKNESS     ELEV.-TOP OF BED     WIDTH OF STREAM     DEPTH OF STREAM    STREAM ROUGHNESS
    No.     UPPER     LOWER     UPPER     LOWER     UPPER     LOWER     UPPER     LOWER     UPPER     LOWER   CHANNEL      BANK

     1  5.000E+00 5.000E+00 1.000E+00 1.000E+00 4.850E+01 3.800E+01 2.000E+01 2.000E+01                     5.000E-02
     2  5.000E+00 5.000E+00 1.000E+00 1.000E+00 4.025E+01 3.800E+01 2.000E+01 2.000E+01                     5.000E-02
     3  5.000E+00 5.000E+00 1.000E+00 1.000E+00 3.800E+01 3.000E+01 2.000E+01 2.000E+01                     5.000E-02



 
 SOLVING FOR HEAD 


     9 CALLS TO PCG ROUTINE FOR TIME STEP   1 IN STRESS PERIOD    1
    36 TOTAL ITERATIONS

 OUTPUT CONTROL FOR STRESS PERIOD    1   TIME STEP    1
    SAVE BUDGET
    SAVE HEAD FOR ALL LAYERS
    PRINT HEAD FOR ALL LAYERS
 UBDSV2 SAVING "STREAMFLOW OUT  " ON UNIT  50 AT TIME STEP  1, STRESS PERIOD   1



 STREAM LISTING     PERIOD      1   STEP        1

 LAYER ROW COL. STREAM  RCH.  FLOW INTO     FLOW TO   FLOW OUT OF   OVRLND.     DIRECT     STREAM       STREAM     STREAM     STREAM   STREAMBED  STREAMBED
                SEG.NO.  NO.  STRM. RCH.    AQUIFER    STRM. RCH.    RUNOFF     PRECIP       ET          HEAD       DEPTH      WIDTH   CONDCTNC.   GRADIENT

   1   13    1     1     1    1.0000E+05 -4.9406E+03   1.0494E+05  0.000E+00  0.000E+00  0.000E+00  4.84081E+01  1.468E-01  2.000E+01  2.000E+04 -2.470E-01
   1   13    2     1     2    1.0494E+05 -6.3801E+03   1.1132E+05  0.000E+00  0.000E+00  0.000E+00  4.79357E+01  1.516E-01  2.000E+01  2.000E+04 -3.190E-01
   1   14    3     1     3    1.1132E+05 -1.8124E+03   1.1313E+05  0.000E+00  0.000E+00  0.000E+00  4.74618E+01  1.550E-01  2.000E+01  2.000E+04 -9.062E-02
   1   15    4     1     4    1.1313E+05 -1.8894E+03   1.1502E+05  0.000E+00  0.000E+00  0.000E+00  4.69861E+01  1.565E-01  2.000E+01  2.000E+04 -9.447E-02
   1   16    5     1     5    1.1502E+05 -5.5562E+03   1.2058E+05  0.000E+00  0.000E+00  0.000E+00  4.65119E+01  1.596E-01  2.000E+01  2.000E+04 -2.778E-01
   1   16    6     1     6    1.2058E+05 -4.0075E+03   1.2459E+05  0.000E+00  0.000E+00  0.000E+00  4.60384E+01  1.634E-01  2.000E+01  2.000E+04 -2.004E-01
   1   16    7     1     7    1.2459E+05 -3.9824E+03   1.2857E+05  0.000E+00  0.000E+00  0.000E+00  4.55644E+01  1.666E-01  2.000E+01  2.000E+04 -1.991E-01
   1   16    8     1     8    1.2857E+05 -3.9977E+03   1.3257E+05  0.000E+00  0.000E+00  0.000E+00  4.50902E+01  1.698E-01  2.000E+01  2.000E+04 -1.999E-01
   1   16    9     1     9    1.3257E+05 -4.0143E+03   1.3658E+05  0.000E+00  0.000E+00  0.000E+00  4.46160E+01  1.729E-01  2.000E+01  2.000E+04 -2.007E-01
   1   16   10     1    10    1.3658E+05 -4.0220E+03   1.4060E+05  0.000E+00  0.000E+00  0.000E+00  4.41418E+01  1.759E-01  2.000E+01  2.000E+04 -2.011E-01
   1   16   11     1    11    1.4060E+05 -4.0511E+03   1.4465E+05  0.000E+00  0.000E+00  0.000E+00  4.36676E+01  1.790E-01  2.000E+01  2.000E+04 -2.026E-01
   1   16   12     1    12    1.4465E+05 -6.7798E+03   1.5143E+05  0.000E+00  0.000E+00  0.000E+00  4.31944E+01  1.830E-01  2.000E+01  2.000E+04 -3.390E-01
   1   15   13     1    13    1.5143E+05 -6.6878E+03   1.5812E+05  0.000E+00  0.000E+00  0.000E+00  4.27221E+01  1.880E-01  2.000E+01  2.000E+04 -3.344E-01
   1   14   14     1    14    1.5812E+05 -4.7754E+03   1.6290E+05  0.000E+00  0.000E+00  0.000E+00  4.22490E+01  1.921E-01  2.000E+01  2.000E+04 -2.388E-01
   1   13   15     1    15    1.6290E+05 -5.0730E+03   1.6797E+05  0.000E+00  0.000E+00  0.000E+00  4.17752E+01  1.957E-01  2.000E+01  2.000E+04 -2.537E-01
   1   12   16     1    16    1.6797E+05 -7.9135E+03   1.7588E+05  0.000E+00  0.000E+00  0.000E+00  4.13025E+01  2.002E-01  2.000E+01  2.000E+04 -3.957E-01
   1   12   17     1    17    1.7588E+05 -5.9447E+03   1.8183E+05  0.000E+00  0.000E+00  0.000E+00  4.08300E+01  2.050E-01  2.000E+01  2.000E+04 -2.972E-01
   1   12   18     1    18    1.8183E+05 -5.8779E+03   1.8771E+05  0.000E+00  0.000E+00  0.000E+00  4.03568E+01  2.091E-01  2.000E+01  2.000E+04 -2.939E-01
   1   12   19     1    19    1.8771E+05 -7.4697E+03   1.9518E+05  0.000E+00  0.000E+00  0.000E+00  3.98840E+01  2.136E-01  2.000E+01  2.000E+04 -3.735E-01
   1   13   20     1    20    1.9518E+05 -6.7532E+03   2.0193E+05  0.000E+00  0.000E+00  0.000E+00  3.94115E+01  2.183E-01  2.000E+01  2.000E+04 -3.377E-01
   1   14   21     1    21    2.0193E+05 -6.3935E+03   2.0832E+05  0.000E+00  0.000E+00  0.000E+00  3.89385E+01  2.226E-01  2.000E+01  2.000E+04 -3.197E-01
   1   14   22     1    22    2.0832E+05  3.5788E+03   2.0474E+05  0.000E+00  0.000E+00  0.000E+00  3.84622E+01  2.235E-01  2.000E+01  2.000E+04  1.789E-01
   1    9   30     2     1    5.0000E+04 -4.8403E+03   5.4840E+04  0.000E+00  0.000E+00  0.000E+00  4.02442E+01  1.192E-01  2.000E+01  2.000E+04 -2.420E-01
   1    9   29     2     2    5.4840E+04 -5.1329E+03   5.9973E+04  0.000E+00  0.000E+00  0.000E+00  4.00009E+01  1.259E-01  2.000E+01  2.000E+04 -2.566E-01
   1    9   28     2     3    5.9973E+04 -5.4105E+03   6.5384E+04  0.000E+00  0.000E+00  0.000E+00  3.97577E+01  1.327E-01  2.000E+01  2.000E+04 -2.705E-01
   1    9   27     2     4    6.5384E+04 -8.2215E+03   7.3605E+04  0.000E+00  0.000E+00  0.000E+00  3.95162E+01  1.412E-01  2.000E+01  2.000E+04 -4.111E-01
   1   10   26     2     5    7.3605E+04 -7.2591E+03   8.0864E+04  0.000E+00  0.000E+00  0.000E+00  3.92754E+01  1.504E-01  2.000E+01  2.000E+04 -3.630E-01
   1   11   25     2     6    8.0864E+04 -6.7103E+03   8.7575E+04  0.000E+00  0.000E+00  0.000E+00  3.90334E+01  1.584E-01  2.000E+01  2.000E+04 -3.355E-01
   1   12   24     2     7    8.7575E+04 -6.2175E+03   9.3792E+04  0.000E+00  0.000E+00  0.000E+00  3.87906E+01  1.656E-01  2.000E+01  2.000E+04 -3.109E-01
   1   13   23     2     8    9.3792E+04 -1.6391E+03   9.5431E+04  0.000E+00  0.000E+00  0.000E+00  3.85449E+01  1.699E-01  2.000E+01  2.000E+04 -8.196E-02
   1   14   22     2     9    9.5431E+04  2.4816E+02   9.5183E+04  0.000E+00  0.000E+00  0.000E+00  3.82956E+01  1.706E-01  2.000E+01  2.000E+04  1.241E-02
   1   14   22     3     1    2.9993E+05 -9.8674E+03   3.0979E+05  0.000E+00  0.000E+00  0.000E+00  3.77898E+01  2.343E-01  2.000E+01  2.000E+04 -4.934E-01
   1   15   23     3     2    3.0979E+05 -1.9840E+03   3.1178E+05  0.000E+00  0.000E+00  0.000E+00  3.69037E+01  2.370E-01  2.000E+01  2.000E+04 -9.920E-02
   1   15   24     3     3    3.1178E+05 -1.5293E+03   3.1331E+05  0.000E+00  0.000E+00  0.000E+00  3.60156E+01  2.378E-01  2.000E+01  2.000E+04 -7.646E-02
   1   15   25     3     4    3.1331E+05 -1.5793E+03   3.1489E+05  0.000E+00  0.000E+00  0.000E+00  3.51274E+01  2.385E-01  2.000E+01  2.000E+04 -7.897E-02
   1   15   26     3     5    3.1489E+05 -1.8830E+03   3.1677E+05  0.000E+00  0.000E+00  0.000E+00  3.42393E+01  2.393E-01  2.000E+01  2.000E+04 -9.415E-02
   1   16   27     3     6    3.1677E+05 -2.1645E+03   3.1893E+05  0.000E+00  0.000E+00  0.000E+00  3.33513E+01  2.402E-01  2.000E+01  2.000E+04 -1.082E-01
   1   17   28     3     7    3.1893E+05 -6.5786E+03   3.2551E+05  0.000E+00  0.000E+00  0.000E+00  3.24644E+01  2.422E-01  2.000E+01  2.000E+04 -3.289E-01
   1   18   29     3     8    3.2551E+05 -7.9888E+03   3.3350E+05  0.000E+00  0.000E+00  0.000E+00  3.15788E+01  2.455E-01  2.000E+01  2.000E+04 -3.994E-01
   1   18   30     3     9    3.3350E+05 -7.1717E+03   3.4067E+05  0.000E+00  0.000E+00  0.000E+00  3.06933E+01  2.489E-01  2.000E+01  2.000E+04 -3.586E-01



1
              HEAD IN LAYER   1 AT END OF TIME STEP   1 IN STRESS PERIOD    1
  ---------------------------------------------------------------------------

          1      2      3      4      5      6      7      8      9     10
         11     12     13     14     15     16     17     18     19     20
         21     22     23     24     25     26     27     28     29     30
 .........................................................................
   1  ****** ****** ****** ****** ****** ****** ****** ****** ****** ******
      ****** ****** ****** ****** ****** ****** ****** ****** ****** ******
      ****** ****** ****** ****** ****** ****** ****** ****** ****** ******
   2  ****** ****** ****** ****** ****** ****** ****** ****** ****** ******
      ****** ****** ****** ****** ****** ****** ****** ****** ****** ******
      ****** ****** ****** ****** ****** ****** ****** ****** ****** ******
   3  ****** ****** ****** ****** ****** ****** ****** ****** ****** ******
      ****** ****** ****** ****** ****** ****** ****** ****** ****** ******
      ****** ****** ****** ****** ****** ****** ****** ****** ****** ******
   4  ****** ****** ****** ****** ****** ****** ****** ****** ****** ******
      ****** ****** ****** ****** ****** ****** ****** ****** ****** ******
      ****** ****** ****** ****** ****** ****** ****** ****** ****** ******
   5  ****** ****** ****** ****** ****** ****** ****** ****** ****** ******
      ****** ****** ****** ****** ****** ****** ****** ****** ****** ******
      ****** ****** ****** ****** ****** ****** ****** ****** ****** ******
   6  ****** ****** ****** ****** ****** ****** ****** ****** ****** ******
      ****** ****** ****** ****** ****** ****** ****** ****** ****** ******
      ****** ****** ****** ****** ****** ****** ****** ****** ****** ******
   7  ****** ****** ****** ****** ****** ****** ****** ****** ****** ******
      ****** ****** ****** ****** ****** ****** ****** ****** ****** ******
      ****** ****** ****** ****** ****** ****** ****** ****** ****** ******
   8  ****** ****** ****** ****** ****** ****** ****** ****** ****** ******
      ****** ****** ****** ****** ****** ****** ****** ****** ****** ******
      ****** ****** ****** ****** ****** ****** ****** ****** ****** ******
   9  ****** ****** ****** ****** ****** ****** ****** ****** ****** ******
      ****** ****** ****** ****** ****** ****** ****** ****** ****** ******
      ****** ****** ****** ****** ****** ****** ****** ****** ****** ******
  10  ****** ****** ****** ****** ****** ****** ****** ****** ****** ******
      ****** ****** ****** ****** ****** ****** ****** ****** ****** ******
      ****** ****** ****** ****** ****** ****** ****** ****** ****** ******
  11  ****** ****** ****** ****** ****** ****** ****** ****** ****** ******
      ****** ****** ****** ****** ****** ****** ****** ****** ****** ******
      ****** ****** ****** ****** ****** ****** ****** ****** ****** ******
  12  ****** ****** ****** ****** ****** ****** ****** ****** ****** ******
      ****** ****** ****** ****** ****** ****** ****** ****** ****** ******
      ****** ****** ****** ****** ****** ****** ****** ****** ****** ******
  13  ****** ****** ****** ****** ****** ****** ****** ****** ****** ******
      ****** ****** ****** ****** ****** ****** ****** ****** ****** ******
      ****** ****** ****** ****** ****** ****** ****** ****** ****** ******
  14  ****** ****** ****** ****** ****** ****** ****** ****** ****** ******
      ****** ****** ****** ****** ****** ****** ****** ****** ****** ******
      ****** ****** ****** ****** ****** ****** ****** ****** ****** ******
  15  ****** ****** ****** ****** ****** ****** ****** ****** ****** ******
      ****** ****** ****** ****** ****** ****** ****** ****** ****** ******
      ****** ****** ****** ****** ****** ****** ****** ****** ****** ******
  16  ****** ****** ****** ****** ****** ****** ****** ****** ****** ******
      ****** ****** ****** ****** ****** ****** ****** ****** ****** ******
      ****** ****** ****** ****** ****** ****** ****** ****** ****** ******
  17  ****** ****** ****** ****** ****** ****** ****** ****** ****** ******
      ****** ****** ****** ****** ****** ****** ****** ****** ****** ******
      ****** ****** ****** ****** ****** ****** ****** ****** ****** ******
  18  ****** ****** ****** ****** ****** ****** ****** ****** ****** ******
      ****** ****** ****** ****** ****** ****** ****** ****** ****** ******
      ****** ****** ****** ****** ****** ****** ****** ****** ****** ******
  19  ****** ****** ****** ****** ****** ****** ****** ****** ****** ******
      ****** ****** ****** ****** ****** ****** ****** ****** ****** ******
      ****** ****** ****** ****** ****** ****** ****** ****** ****** ******
  20  ****** ****** ****** ****** ****** ****** ****** ****** ****** ******
      ****** ****** ****** ****** ****** ****** ****** ****** ****** ******
      ****** ****** ****** ****** ****** ****** ****** ****** ****** ******
  21  ****** ****** ****** ****** ****** ****** ****** ****** ****** ******
      ****** ****** ****** ****** ****** ****** ****** ****** ****** ******
      ****** ****** ****** ****** ****** ****** ****** ****** ****** ******
  22  ****** ****** ****** ****** ****** ****** ****** ****** ****** ******
      ****** ****** ****** ****** ****** ****** ****** ****** ****** ******
      ****** ****** ****** ****** ****** ****** ****** ****** ****** ******
  23  ****** ****** ****** ****** ****** ****** ****** ****** ****** ******
      ****** ****** ****** ****** ****** ****** ****** ****** ****** ******
      ****** ****** ****** ****** ****** ****** ****** ****** ****** ******
  24  ****** ****** ****** ****** ****** ****** ****** ****** ****** ******
      ****** ****** ****** ****** ****** ****** ****** ****** ****** ******
      ****** ****** ****** ****** ****** ****** ****** ****** ****** ******
  25  ****** ****** ****** ****** ****** ****** ****** ****** ****** ******
      ****** ****** ****** ****** ****** ****** ****** ****** ****** ******
      ****** ****** ****** ****** ****** ****** ****** ****** ****** ******

 HEAD WILL BE SAVED ON UNIT   51 AT END OF TIME STEP    1, STRESS PERIOD    1
1
  VOLUMETRIC BUDGET FOR ENTIRE MODEL AT END OF TIME STEP    1, STRESS PERIOD   1
  ------------------------------------------------------------------------------

     CUMULATIVE VOLUMES      L**3       RATES FOR THIS TIME STEP      L**3/T
     ------------------                 ------------------------

           IN:                                      IN:
           ---                                      ---
             STORAGE =    17671251.6330               STORAGE =      192078.8221
       CONSTANT HEAD =     1183589.0170         CONSTANT HEAD =       12865.0980
               WELLS =           0.0000                 WELLS =           0.0000
            RECHARGE =     1269600.0000              RECHARGE =       13800.0000
      STREAM LEAKAGE =      352076.7994        STREAM LEAKAGE =        3826.9217

            TOTAL IN =    20476517.4494              TOTAL IN =      222570.8418

          OUT:                                     OUT:
          ----                                     ----
             STORAGE =           0.0000               STORAGE =           0.0000
       CONSTANT HEAD =           0.0000         CONSTANT HEAD =           0.0000
               WELLS =     2582511.7242                 WELLS =       28070.7796
            RECHARGE =           0.0000              RECHARGE =           0.0000
      STREAM LEAKAGE =    17894006.0267        STREAM LEAKAGE =      194500.0655

           TOTAL OUT =    20476517.7509             TOTAL OUT =      222570.8451

            IN - OUT =          -0.3015              IN - OUT =      -3.2770E-03

 PERCENT DISCREPANCY =          -0.00     PERCENT DISCREPANCY =          -0.00






         TIME SUMMARY AT END OF TIME STEP    1 IN STRESS PERIOD    1
                    SECONDS     MINUTES      HOURS       DAYS        YEARS
                    -----------------------------------------------------------
   TIME STEP LENGTH 7.94880E+06 1.32480E+05  2208.0      92.000     0.25188    
 STRESS PERIOD TIME 7.94880E+06 1.32480E+05  2208.0      92.000     0.25188    
         TOTAL TIME 7.94880E+06 1.32480E+05  2208.0      92.000     0.25188    
1
1
                            STRESS PERIOD NO.    2, LENGTH =   91.00000    
                            -----------------------------------------------

                              NUMBER OF TIME STEPS =     1

                               MULTIPLIER FOR DELT =     1.500

                            INITIAL TIME STEP SIZE =   91.00000    

 WELL NO.  LAYER   ROW   COL   STRESS RATE         
 --------------------------------------------------
      1      1     16      2      -8562.    
      2      1     23     16      -2065.    
      3      1     13     14      -8503.    
      4      1      6     16      -8940.    

      4 WELLS

                 RECHARGE =  2.000000E-03

 REUSING STREAM SEGMENT DATA FROM LAST STRESS PERIOD
 
 SOLVING FOR HEAD 


     7 CALLS TO PCG ROUTINE FOR TIME STEP   1 IN STRESS PERIOD    2
    27 TOTAL ITERATIONS

 OUTPUT CONTROL FOR STRESS PERIOD    2   TIME STEP    1
    SAVE BUDGET
    SAVE HEAD FOR ALL LAYERS
    PRINT HEAD FOR ALL LAYERS
 UBDSV2 SAVING "STREAMFLOW OUT  " ON UNIT  50 AT TIME STEP  1, STRESS PERIOD   2



 STREAM LISTING     PERIOD      2   STEP        1

 LAYER ROW COL. STREAM  RCH.  FLOW INTO     FLOW TO   FLOW OUT OF   OVRLND.     DIRECT     STREAM       STREAM     STREAM     STREAM   STREAMBED  STREAMBED
                SEG.NO.  NO.  STRM. RCH.    AQUIFER    STRM. RCH.    RUNOFF     PRECIP       ET          HEAD       DEPTH      WIDTH   CONDCTNC.   GRADIENT

   1   13    1     1     1    1.0000E+05 -2.5563E+03   1.0256E+05  0.000E+00  0.000E+00  0.000E+00  4.84071E+01  1.458E-01  2.000E+01  2.000E+04 -1.278E-01
   1   13    2     1     2    1.0256E+05 -3.7980E+03   1.0635E+05  0.000E+00  0.000E+00  0.000E+00  4.79326E+01  1.485E-01  2.000E+01  2.000E+04 -1.899E-01
   1   14    3     1     3    1.0635E+05 -6.4328E+02   1.0700E+05  0.000E+00  0.000E+00  0.000E+00  4.74572E+01  1.504E-01  2.000E+01  2.000E+04 -3.216E-02
   1   15    4     1     4    1.0700E+05 -6.6936E+02   1.0767E+05  0.000E+00  0.000E+00  0.000E+00  4.69805E+01  1.509E-01  2.000E+01  2.000E+04 -3.347E-02
   1   16    5     1     5    1.0767E+05 -2.1661E+03   1.0983E+05  0.000E+00  0.000E+00  0.000E+00  4.65044E+01  1.521E-01  2.000E+01  2.000E+04 -1.083E-01
   1   16    6     1     6    1.0983E+05 -2.0766E+03   1.1191E+05  0.000E+00  0.000E+00  0.000E+00  4.60289E+01  1.539E-01  2.000E+01  2.000E+04 -1.038E-01
   1   16    7     1     7    1.1191E+05 -2.1662E+03   1.1408E+05  0.000E+00  0.000E+00  0.000E+00  4.55534E+01  1.557E-01  2.000E+01  2.000E+04 -1.083E-01
   1   16    8     1     8    1.1408E+05 -2.2150E+03   1.1629E+05  0.000E+00  0.000E+00  0.000E+00  4.50779E+01  1.575E-01  2.000E+01  2.000E+04 -1.108E-01
   1   16    9     1     9    1.1629E+05 -2.2342E+03   1.1853E+05  0.000E+00  0.000E+00  0.000E+00  4.46025E+01  1.593E-01  2.000E+01  2.000E+04 -1.117E-01
   1   16   10     1    10    1.1853E+05 -2.2268E+03   1.2075E+05  0.000E+00  0.000E+00  0.000E+00  4.41270E+01  1.611E-01  2.000E+01  2.000E+04 -1.113E-01
   1   16   11     1    11    1.2075E+05 -2.2285E+03   1.2298E+05  0.000E+00  0.000E+00  0.000E+00  4.36515E+01  1.629E-01  2.000E+01  2.000E+04 -1.114E-01
   1   16   12     1    12    1.2298E+05 -3.8115E+03   1.2679E+05  0.000E+00  0.000E+00  0.000E+00  4.31766E+01  1.653E-01  2.000E+01  2.000E+04 -1.906E-01
   1   15   13     1    13    1.2679E+05 -3.3305E+03   1.3012E+05  0.000E+00  0.000E+00  0.000E+00  4.27022E+01  1.681E-01  2.000E+01  2.000E+04 -1.665E-01
   1   14   14     1    14    1.3012E+05 -1.2311E+03   1.3135E+05  0.000E+00  0.000E+00  0.000E+00  4.22267E+01  1.699E-01  2.000E+01  2.000E+04 -6.156E-02
   1   13   15     1    15    1.3135E+05 -1.5059E+03   1.3286E+05  0.000E+00  0.000E+00  0.000E+00  4.17505E+01  1.710E-01  2.000E+01  2.000E+04 -7.530E-02
   1   12   16     1    16    1.3286E+05 -4.5080E+03   1.3737E+05  0.000E+00  0.000E+00  0.000E+00  4.12756E+01  1.733E-01  2.000E+01  2.000E+04 -2.254E-01
   1   12   17     1    17    1.3737E+05 -3.3207E+03   1.4069E+05  0.000E+00  0.000E+00  0.000E+00  4.08013E+01  1.763E-01  2.000E+01  2.000E+04 -1.660E-01
   1   12   18     1    18    1.4069E+05 -3.2750E+03   1.4396E+05  0.000E+00  0.000E+00  0.000E+00  4.03265E+01  1.788E-01  2.000E+01  2.000E+04 -1.638E-01
   1   12   19     1    19    1.4396E+05 -4.2429E+03   1.4821E+05  0.000E+00  0.000E+00  0.000E+00  3.98520E+01  1.816E-01  2.000E+01  2.000E+04 -2.121E-01
   1   13   20     1    20    1.4821E+05 -3.6182E+03   1.5182E+05  0.000E+00  0.000E+00  0.000E+00  3.93777E+01  1.845E-01  2.000E+01  2.000E+04 -1.809E-01
   1   14   21     1    21    1.5182E+05 -3.6716E+03   1.5550E+05  0.000E+00  0.000E+00  0.000E+00  3.89031E+01  1.872E-01  2.000E+01  2.000E+04 -1.836E-01
   1   14   22     1    22    1.5550E+05  4.3113E+03   1.5118E+05  0.000E+00  0.000E+00  0.000E+00  3.84256E+01  1.869E-01  2.000E+01  2.000E+04  2.156E-01
   1    9   30     2     1    5.0000E+04 -2.1156E+03   5.2116E+04  0.000E+00  0.000E+00  0.000E+00  4.02423E+01  1.173E-01  2.000E+01  2.000E+04 -1.058E-01
   1    9   29     2     2    5.2116E+04 -2.4202E+03   5.4536E+04  0.000E+00  0.000E+00  0.000E+00  3.99954E+01  1.204E-01  2.000E+01  2.000E+04 -1.210E-01
   1    9   28     2     3    5.4536E+04 -2.7110E+03   5.7247E+04  0.000E+00  0.000E+00  0.000E+00  3.97489E+01  1.239E-01  2.000E+01  2.000E+04 -1.356E-01
   1    9   27     2     4    5.7247E+04 -4.7263E+03   6.1973E+04  0.000E+00  0.000E+00  0.000E+00  3.95038E+01  1.288E-01  2.000E+01  2.000E+04 -2.363E-01
   1   10   26     2     5    6.1973E+04 -3.6284E+03   6.5601E+04  0.000E+00  0.000E+00  0.000E+00  3.92591E+01  1.341E-01  2.000E+01  2.000E+04 -1.814E-01
   1   11   25     2     6    6.5601E+04 -3.2353E+03   6.8837E+04  0.000E+00  0.000E+00  0.000E+00  3.90134E+01  1.384E-01  2.000E+01  2.000E+04 -1.618E-01
   1   12   24     2     7    6.8837E+04 -3.0952E+03   7.1932E+04  0.000E+00  0.000E+00  0.000E+00  3.87673E+01  1.423E-01  2.000E+01  2.000E+04 -1.548E-01
   1   13   23     2     8    7.1932E+04 -5.9135E+02   7.2523E+04  0.000E+00  0.000E+00  0.000E+00  3.85195E+01  1.445E-01  2.000E+01  2.000E+04 -2.957E-02
   1   14   22     2     9    7.2523E+04  1.1821E+03   7.1341E+04  0.000E+00  0.000E+00  0.000E+00  3.82691E+01  1.441E-01  2.000E+01  2.000E+04  5.910E-02
   1   14   22     3     1    2.2253E+05 -9.1622E+03   2.3169E+05  0.000E+00  0.000E+00  0.000E+00  3.77519E+01  1.964E-01  2.000E+01  2.000E+04 -4.581E-01
   1   15   23     3     2    2.3169E+05 -1.0441E+03   2.3273E+05  0.000E+00  0.000E+00  0.000E+00  3.68657E+01  1.990E-01  2.000E+01  2.000E+04 -5.221E-02
   1   15   24     3     3    2.3273E+05 -6.6334E+02   2.3340E+05  0.000E+00  0.000E+00  0.000E+00  3.59772E+01  1.994E-01  2.000E+01  2.000E+04 -3.317E-02
   1   15   25     3     4    2.3340E+05 -6.7047E+02   2.3407E+05  0.000E+00  0.000E+00  0.000E+00  3.50887E+01  1.998E-01  2.000E+01  2.000E+04 -3.352E-02
   1   15   26     3     5    2.3407E+05 -7.7286E+02   2.3484E+05  0.000E+00  0.000E+00  0.000E+00  3.42001E+01  2.001E-01  2.000E+01  2.000E+04 -3.864E-02
   1   16   27     3     6    2.3484E+05 -8.9791E+02   2.3574E+05  0.000E+00  0.000E+00  0.000E+00  3.33117E+01  2.006E-01  2.000E+01  2.000E+04 -4.490E-02
   1   17   28     3     7    2.3574E+05 -3.2538E+03   2.3899E+05  0.000E+00  0.000E+00  0.000E+00  3.24238E+01  2.016E-01  2.000E+01  2.000E+04 -1.627E-01
   1   18   29     3     8    2.3899E+05 -5.0419E+03   2.4403E+05  0.000E+00  0.000E+00  0.000E+00  3.15371E+01  2.037E-01  2.000E+01  2.000E+04 -2.521E-01
   1   18   30     3     9    2.4403E+05 -4.6769E+03   2.4871E+05  0.000E+00  0.000E+00  0.000E+00  3.06506E+01  2.062E-01  2.000E+01  2.000E+04 -2.338E-01



1
              HEAD IN LAYER   1 AT END OF TIME STEP   1 IN STRESS PERIOD    2
  ---------------------------------------------------------------------------

          1      2      3      4      5      6      7      8      9     10
         11     12     13     14     15     16     17     18     19     20
         21     22     23     24     25     26     27     28     29     30
 .........................................................................
   1  ****** ****** ****** ****** ****** ****** ****** ****** ****** ******
      ****** ****** ****** ****** ****** ****** ****** ****** ****** ******
      ****** ****** ****** ****** ****** ****** ****** ****** ****** ******
   2  ****** ****** ****** ****** ****** ****** ****** ****** ****** ******
      ****** ****** ****** ****** ****** ****** ****** ****** ****** ******
      ****** ****** ****** ****** ****** ****** ****** ****** ****** ******
   3  ****** ****** ****** ****** ****** ****** ****** ****** ****** ******
      ****** ****** ****** ****** ****** ****** ****** ****** ****** ******
      ****** ****** ****** ****** ****** ****** ****** ****** ****** ******
   4  ****** ****** ****** ****** ****** ****** ****** ****** ****** ******
      ****** ****** ****** ****** ****** ****** ****** ****** ****** ******
      ****** ****** ****** ****** ****** ****** ****** ****** ****** ******
   5  ****** ****** ****** ****** ****** ****** ****** ****** ****** ******
      ****** ****** ****** ****** ****** ****** ****** ****** ****** ******
      ****** ****** ****** ****** ****** ****** ****** ****** ****** ******
   6  ****** ****** ****** ****** ****** ****** ****** ****** ****** ******
      ****** ****** ****** ****** ****** ****** ****** ****** ****** ******
      ****** ****** ****** ****** ****** ****** ****** ****** ****** ******
   7  ****** ****** ****** ****** ****** ****** ****** ****** ****** ******
      ****** ****** ****** ****** ****** ****** ****** ****** ****** ******
      ****** ****** ****** ****** ****** ****** ****** ****** ****** ******
   8  ****** ****** ****** ****** ****** ****** ****** ****** ****** ******
      ****** ****** ****** ****** ****** ****** ****** ****** ****** ******
      ****** ****** ****** ****** ****** ****** ****** ****** ****** ******
   9  ****** ****** ****** ****** ****** ****** ****** ****** ****** ******
      ****** ****** ****** ****** ****** ****** ****** ****** ****** ******
      ****** ****** ****** ****** ****** ****** ****** ****** ****** ******
  10  ****** ****** ****** ****** ****** ****** ****** ****** ****** ******
      ****** ****** ****** ****** ****** ****** ****** ****** ****** ******
      ****** ****** ****** ****** ****** ****** ****** ****** ****** ******
  11  ****** ****** ****** ****** ****** ****** ****** ****** ****** ******
      ****** ****** ****** ****** ****** ****** ****** ****** ****** ******
      ****** ****** ****** ****** ****** ****** ****** ****** ****** ******
  12  ****** ****** ****** ****** ****** ****** ****** ****** ****** ******
      ****** ****** ****** ****** ****** ****** ****** ****** ****** ******
      ****** ****** ****** ****** ****** ****** ****** ****** ****** ******
  13  ****** ****** ****** ****** ****** ****** ****** ****** ****** ******
      ****** ****** ****** ****** ****** ****** ****** ****** ****** ******
      ****** ****** ****** ****** ****** ****** ****** ****** ****** ******
  14  ****** ****** ****** ****** ****** ****** ****** ****** ****** ******
      ****** ****** ****** ****** ****** ****** ****** ****** ****** ******
      ****** ****** ****** ****** ****** ****** ****** ****** ****** ******
  15  ****** ****** ****** ****** ****** ****** ****** ****** ****** ******
      ****** ****** ****** ****** ****** ****** ****** ****** ****** ******
      ****** ****** ****** ****** ****** ****** ****** ****** ****** ******
  16  ****** ****** ****** ****** ****** ****** ****** ****** ****** ******
      ****** ****** ****** ****** ****** ****** ****** ****** ****** ******
      ****** ****** ****** ****** ****** ****** ****** ****** ****** ******
  17  ****** ****** ****** ****** ****** ****** ****** ****** ****** ******
      ****** ****** ****** ****** ****** ****** ****** ****** ****** ******
      ****** ****** ****** ****** ****** ****** ****** ****** ****** ******
  18  ****** ****** ****** ****** ****** ****** ****** ****** ****** ******
      ****** ****** ****** ****** ****** ****** ****** ****** ****** ******
      ****** ****** ****** ****** ****** ****** ****** ****** ****** ******
  19  ****** ****** ****** ****** ****** ****** ****** ****** ****** ******
      ****** ****** ****** ****** ****** ****** ****** ****** ****** ******
      ****** ****** ****** ****** ****** ****** ****** ****** ****** ******
  20  ****** ****** ****** ****** ****** ****** ****** ****** ****** ******
      ****** ****** ****** ****** ****** ****** ****** ****** ****** ******
      ****** ****** ****** ****** ****** ****** ****** ****** ****** ******
  21  ****** ****** ****** ****** ****** ****** ****** ****** ****** ******
      ****** ****** ****** ****** ****** ****** ****** ****** ****** ******
      ****** ****** ****** ****** ****** ****** ****** ****** ****** ******
  22  ****** ****** ****** ****** ****** ****** ****** ****** ****** ******
      ****** ****** ****** ****** ****** ****** ****** ****** ****** ******
      ****** ****** ****** ****** ****** ****** ****** ****** ****** ******
  23  ****** ****** ****** ****** ****** ****** ****** ****** ****** ******
      ****** ****** ****** ****** ****** ****** ****** ****** ****** ******
      ****** ****** ****** ****** ****** ****** ****** ****** ****** ******
  24  ****** ****** ****** ****** ****** ****** ****** ****** ****** ******
      ****** ****** ****** ****** ****** ****** ****** ****** ****** ******
      ****** ****** ****** ****** ****** ****** ****** ****** ****** ******
  25  ****** ****** ****** ****** ****** ****** ****** ****** ****** ******
      ****** ****** ****** ****** ****** ****** ****** ****** ****** ******
      ****** ****** ****** ****** ****** ****** ****** ****** ****** ******

 HEAD WILL BE SAVED ON UNIT   51 AT END OF TIME STEP    1, STRESS PERIOD    2
1
  VOLUMETRIC BUDGET FOR ENTIRE MODEL AT END OF TIME STEP    1, STRESS PERIOD   2
  ------------------------------------------------------------------------------

     CUMULATIVE VOLUMES      L**3       RATES FOR THIS TIME STEP      L**3/T
     ------------------                 ------------------------

           IN:                                      IN:
           ---                                      ---
             STORAGE =    22589702.7636               STORAGE =       54048.9135
       CONSTANT HEAD =     2778914.8285         CONSTANT HEAD =       17531.0529
               WELLS =           0.0000                 WELLS =           0.0000
            RECHARGE =     6292800.0000              RECHARGE =       55200.0000
      STREAM LEAKAGE =      851971.3207        STREAM LEAKAGE =        5493.3464

            TOTAL IN =    32513388.9128              TOTAL IN =      132273.3128

          OUT:                                     OUT:
          ----                                     ----
             STORAGE =           0.0000               STORAGE =           0.0000
       CONSTANT HEAD =           0.0000         CONSTANT HEAD =           0.0000
               WELLS =     5136952.6688                 WELLS =       28070.7796
            RECHARGE =           0.0000              RECHARGE =           0.0000
      STREAM LEAKAGE =    27376437.5857        STREAM LEAKAGE =      104202.5446

           TOTAL OUT =    32513390.2545             TOTAL OUT =      132273.3242

            IN - OUT =          -1.3417              IN - OUT =      -1.1431E-02

 PERCENT DISCREPANCY =          -0.00     PERCENT DISCREPANCY =          -0.00






         TIME SUMMARY AT END OF TIME STEP    1 IN STRESS PERIOD    2
                    SECONDS     MINUTES      HOURS       DAYS        YEARS
                    -----------------------------------------------------------
   TIME STEP LENGTH 7.86240E+06 1.31040E+05  2184.0      91.000     0.24914    
 STRESS PERIOD TIME 7.86240E+06 1.31040E+05  2184.0      91.000     0.24914    
         TOTAL TIME 1.58112E+07 2.63520E+05  4392.0      183.00     0.50103    
1
1
                            STRESS PERIOD NO.    3, LENGTH =   91.00000    
                            -----------------------------------------------

                              NUMBER OF TIME STEPS =     1

                               MULTIPLIER FOR DELT =     1.500

                            INITIAL TIME STEP SIZE =   91.00000    

 WELL NO.  LAYER   ROW   COL   STRESS RATE         
 --------------------------------------------------
      1      1     16      2      -8562.    
      2      1     23     16      -2065.    
      3      1     13     14      -8503.    
      4      1      6     16      -8940.    

      4 WELLS

                 RECHARGE =   0.00000    

 REUSING STREAM SEGMENT DATA FROM LAST STRESS PERIOD
 
 SOLVING FOR HEAD 


     7 CALLS TO PCG ROUTINE FOR TIME STEP   1 IN STRESS PERIOD    3
    27 TOTAL ITERATIONS

 OUTPUT CONTROL FOR STRESS PERIOD    3   TIME STEP    1
    SAVE BUDGET
    SAVE HEAD FOR ALL LAYERS
    PRINT HEAD FOR ALL LAYERS
 UBDSV2 SAVING "STREAMFLOW OUT  " ON UNIT  50 AT TIME STEP  1, STRESS PERIOD   3



 STREAM LISTING     PERIOD      3   STEP        1

 LAYER ROW COL. STREAM  RCH.  FLOW INTO     FLOW TO   FLOW OUT OF   OVRLND.     DIRECT     STREAM       STREAM     STREAM     STREAM   STREAMBED  STREAMBED
                SEG.NO.  NO.  STRM. RCH.    AQUIFER    STRM. RCH.    RUNOFF     PRECIP       ET          HEAD       DEPTH      WIDTH   CONDCTNC.   GRADIENT

   1   13    1     1     1    1.0000E+05 -1.2248E+03   1.0122E+05  0.000E+00  0.000E+00  0.000E+00  4.84065E+01  1.452E-01  2.000E+01  2.000E+04 -6.124E-02
   1   13    2     1     2    1.0122E+05 -2.3144E+03   1.0354E+05  0.000E+00  0.000E+00  0.000E+00  4.79308E+01  1.467E-01  2.000E+01  2.000E+04 -1.157E-01
   1   14    3     1     3    1.0354E+05 -1.5901E+02   1.0370E+05  0.000E+00  0.000E+00  0.000E+00  4.74546E+01  1.478E-01  2.000E+01  2.000E+04 -7.951E-03
   1   15    4     1     4    1.0370E+05 -1.3645E+02   1.0383E+05  0.000E+00  0.000E+00  0.000E+00  4.69774E+01  1.479E-01  2.000E+01  2.000E+04 -6.822E-03
   1   16    5     1     5    1.0383E+05 -2.1651E+02   1.0405E+05  0.000E+00  0.000E+00  0.000E+00  4.65003E+01  1.480E-01  2.000E+01  2.000E+04 -1.083E-02
   1   16    6     1     6    1.0405E+05 -1.0157E+03   1.0507E+05  0.000E+00  0.000E+00  0.000E+00  4.60236E+01  1.486E-01  2.000E+01  2.000E+04 -5.079E-02
   1   16    7     1     7    1.0507E+05 -1.1772E+03   1.0624E+05  0.000E+00  0.000E+00  0.000E+00  4.55472E+01  1.495E-01  2.000E+01  2.000E+04 -5.886E-02
   1   16    8     1     8    1.0624E+05 -1.2515E+03   1.0750E+05  0.000E+00  0.000E+00  0.000E+00  4.50710E+01  1.505E-01  2.000E+01  2.000E+04 -6.258E-02
   1   16    9     1     9    1.0750E+05 -1.2801E+03   1.0878E+05  0.000E+00  0.000E+00  0.000E+00  4.45948E+01  1.516E-01  2.000E+01  2.000E+04 -6.400E-02
   1   16   10     1    10    1.0878E+05 -1.2766E+03   1.1005E+05  0.000E+00  0.000E+00  0.000E+00  4.41186E+01  1.527E-01  2.000E+01  2.000E+04 -6.383E-02
   1   16   11     1    11    1.1005E+05 -1.2752E+03   1.1133E+05  0.000E+00  0.000E+00  0.000E+00  4.36424E+01  1.537E-01  2.000E+01  2.000E+04 -6.376E-02
   1   16   12     1    12    1.1133E+05 -2.1586E+03   1.1349E+05  0.000E+00  0.000E+00  0.000E+00  4.31665E+01  1.552E-01  2.000E+01  2.000E+04 -1.079E-01
   1   15   13     1    13    1.1349E+05 -1.6300E+03   1.1512E+05  0.000E+00  0.000E+00  0.000E+00  4.26908E+01  1.567E-01  2.000E+01  2.000E+04 -8.150E-02
   1   14   14     1    14    1.1512E+05  5.2919E+02   1.1459E+05  0.000E+00  0.000E+00  0.000E+00  4.22140E+01  1.572E-01  2.000E+01  2.000E+04  2.646E-02
   1   13   15     1    15    1.1459E+05  2.7313E+02   1.1431E+05  0.000E+00  0.000E+00  0.000E+00  4.17364E+01  1.569E-01  2.000E+01  2.000E+04  1.366E-02
   1   12   16     1    16    1.1431E+05 -2.6353E+03   1.1695E+05  0.000E+00  0.000E+00  0.000E+00  4.12601E+01  1.578E-01  2.000E+01  2.000E+04 -1.318E-01
   1   12   17     1    17    1.1695E+05 -1.9867E+03   1.1894E+05  0.000E+00  0.000E+00  0.000E+00  4.07847E+01  1.597E-01  2.000E+01  2.000E+04 -9.933E-02
   1   12   18     1    18    1.1894E+05 -1.9687E+03   1.2090E+05  0.000E+00  0.000E+00  0.000E+00  4.03090E+01  1.613E-01  2.000E+01  2.000E+04 -9.843E-02
   1   12   19     1    19    1.2090E+05 -2.6054E+03   1.2351E+05  0.000E+00  0.000E+00  0.000E+00  3.98336E+01  1.631E-01  2.000E+01  2.000E+04 -1.303E-01
   1   13   20     1    20    1.2351E+05 -2.1497E+03   1.2566E+05  0.000E+00  0.000E+00  0.000E+00  3.93582E+01  1.650E-01  2.000E+01  2.000E+04 -1.075E-01
   1   14   21     1    21    1.2566E+05 -2.1987E+03   1.2786E+05  0.000E+00  0.000E+00  0.000E+00  3.88827E+01  1.668E-01  2.000E+01  2.000E+04 -1.099E-01
   1   14   22     1    22    1.2786E+05  4.6534E+03   1.2320E+05  0.000E+00  0.000E+00  0.000E+00  3.84044E+01  1.658E-01  2.000E+01  2.000E+04  2.327E-01
   1    9   30     2     1    5.0000E+04 -9.1085E+02   5.0911E+04  0.000E+00  0.000E+00  0.000E+00  4.02415E+01  1.165E-01  2.000E+01  2.000E+04 -4.554E-02
   1    9   29     2     2    5.0911E+04 -1.2161E+03   5.2127E+04  0.000E+00  0.000E+00  0.000E+00  3.99930E+01  1.180E-01  2.000E+01  2.000E+04 -6.080E-02
   1    9   28     2     3    5.2127E+04 -1.4908E+03   5.3618E+04  0.000E+00  0.000E+00  0.000E+00  3.97448E+01  1.198E-01  2.000E+01  2.000E+04 -7.454E-02
   1    9   27     2     4    5.3618E+04 -2.9581E+03   5.6576E+04  0.000E+00  0.000E+00  0.000E+00  3.94978E+01  1.228E-01  2.000E+01  2.000E+04 -1.479E-01
   1   10   26     2     5    5.6576E+04 -1.9782E+03   5.8554E+04  0.000E+00  0.000E+00  0.000E+00  3.92511E+01  1.261E-01  2.000E+01  2.000E+04 -9.891E-02
   1   11   25     2     6    5.8554E+04 -1.6964E+03   6.0250E+04  0.000E+00  0.000E+00  0.000E+00  3.90035E+01  1.285E-01  2.000E+01  2.000E+04 -8.482E-02
   1   12   24     2     7    6.0250E+04 -1.7154E+03   6.1966E+04  0.000E+00  0.000E+00  0.000E+00  3.87557E+01  1.307E-01  2.000E+01  2.000E+04 -8.577E-02
   1   13   23     2     8    6.1966E+04 -2.5155E+02   6.2217E+04  0.000E+00  0.000E+00  0.000E+00  3.85069E+01  1.319E-01  2.000E+01  2.000E+04 -1.258E-02
   1   14   22     2     9    6.2217E+04  1.6854E+03   6.0532E+04  0.000E+00  0.000E+00  0.000E+00  3.82560E+01  1.310E-01  2.000E+01  2.000E+04  8.427E-02
   1   14   22     3     1    1.8374E+05 -8.8164E+03   1.9255E+05  0.000E+00  0.000E+00  0.000E+00  3.77309E+01  1.754E-01  2.000E+01  2.000E+04 -4.408E-01
   1   15   23     3     2    1.9255E+05 -6.5395E+02   1.9321E+05  0.000E+00  0.000E+00  0.000E+00  3.68447E+01  1.780E-01  2.000E+01  2.000E+04 -3.270E-02
   1   15   24     3     3    1.9321E+05 -3.4206E+02   1.9355E+05  0.000E+00  0.000E+00  0.000E+00  3.59561E+01  1.783E-01  2.000E+01  2.000E+04 -1.710E-02
   1   15   25     3     4    1.9355E+05 -3.3253E+02   1.9388E+05  0.000E+00  0.000E+00  0.000E+00  3.50674E+01  1.785E-01  2.000E+01  2.000E+04 -1.663E-02
   1   15   26     3     5    1.9388E+05 -3.6986E+02   1.9425E+05  0.000E+00  0.000E+00  0.000E+00  3.41787E+01  1.787E-01  2.000E+01  2.000E+04 -1.849E-02
   1   16   27     3     6    1.9425E+05 -4.3353E+02   1.9468E+05  0.000E+00  0.000E+00  0.000E+00  3.32900E+01  1.789E-01  2.000E+01  2.000E+04 -2.168E-02
   1   17   28     3     7    1.9468E+05 -1.8451E+03   1.9653E+05  0.000E+00  0.000E+00  0.000E+00  3.24017E+01  1.795E-01  2.000E+01  2.000E+04 -9.225E-02
   1   18   29     3     8    1.9653E+05 -3.5295E+03   2.0006E+05  0.000E+00  0.000E+00  0.000E+00  3.15143E+01  1.810E-01  2.000E+01  2.000E+04 -1.765E-01
   1   18   30     3     9    2.0006E+05 -3.5434E+03   2.0360E+05  0.000E+00  0.000E+00  0.000E+00  3.06274E+01  1.829E-01  2.000E+01  2.000E+04 -1.772E-01



1
              HEAD IN LAYER   1 AT END OF TIME STEP   1 IN STRESS PERIOD    3
  ---------------------------------------------------------------------------

          1      2      3      4      5      6      7      8      9     10
         11     12     13     14     15     16     17     18     19     20
         21     22     23     24     25     26     27     28     29     30
 .........................................................................
   1  ****** ****** ****** ****** ****** ****** ****** ****** ****** ******
      ****** ****** ****** ****** ****** ****** ****** ****** ****** ******
      ****** ****** ****** ****** ****** ****** ****** ****** ****** ******
   2  ****** ****** ****** ****** ****** ****** ****** ****** ****** ******
      ****** ****** ****** ****** ****** ****** ****** ****** ****** ******
      ****** ****** ****** ****** ****** ****** ****** ****** ****** ******
   3  ****** ****** ****** ****** ****** ****** ****** ****** ****** ******
      ****** ****** ****** ****** ****** ****** ****** ****** ****** ******
      ****** ****** ****** ****** ****** ****** ****** ****** ****** ******
   4  ****** ****** ****** ****** ****** ****** ****** ****** ****** ******
      ****** ****** ****** ****** ****** ****** ****** ****** ****** ******
      ****** ****** ****** ****** ****** ****** ****** ****** ****** ******
   5  ****** ****** ****** ****** ****** ****** ****** ****** ****** ******
      ****** ****** ****** ****** ****** ****** ****** ****** ****** ******
      ****** ****** ****** ****** ****** ****** ****** ****** ****** ******
   6  ****** ****** ****** ****** ****** ****** ****** ****** ****** ******
      ****** ****** ****** ****** ****** ****** ****** ****** ****** ******
      ****** ****** ****** ****** ****** ****** ****** ****** ****** ******
   7  ****** ****** ****** ****** ****** ****** ****** ****** ****** ******
      ****** ****** ****** ****** ****** ****** ****** ****** ****** ******
      ****** ****** ****** ****** ****** ****** ****** ****** ****** ******
   8  ****** ****** ****** ****** ****** ****** ****** ****** ****** ******
      ****** ****** ****** ****** ****** ****** ****** ****** ****** ******
      ****** ****** ****** ****** ****** ****** ****** ****** ****** ******
   9  ****** ****** ****** ****** ****** ****** ****** ****** ****** ******
      ****** ****** ****** ****** ****** ****** ****** ****** ****** ******
      ****** ****** ****** ****** ****** ****** ****** ****** ****** ******
  10  ****** ****** ****** ****** ****** ****** ****** ****** ****** ******
      ****** ****** ****** ****** ****** ****** ****** ****** ****** ******
      ****** ****** ****** ****** ****** ****** ****** ****** ****** ******
  11  ****** ****** ****** ****** ****** ****** ****** ****** ****** ******
      ****** ****** ****** ****** ****** ****** ****** ****** ****** ******
      ****** ****** ****** ****** ****** ****** ****** ****** ****** ******
  12  ****** ****** ****** ****** ****** ****** ****** ****** ****** ******
      ****** ****** ****** ****** ****** ****** ****** ****** ****** ******
      ****** ****** ****** ****** ****** ****** ****** ****** ****** ******
  13  ****** ****** ****** ****** ****** ****** ****** ****** ****** ******
      ****** ****** ****** ****** ****** ****** ****** ****** ****** ******
      ****** ****** ****** ****** ****** ****** ****** ****** ****** ******
  14  ****** ****** ****** ****** ****** ****** ****** ****** ****** ******
      ****** ****** ****** ****** ****** ****** ****** ****** ****** ******
      ****** ****** ****** ****** ****** ****** ****** ****** ****** ******
  15  ****** ****** ****** ****** ****** ****** ****** ****** ****** ******
      ****** ****** ****** ****** ****** ****** ****** ****** ****** ******
      ****** ****** ****** ****** ****** ****** ****** ****** ****** ******
  16  ****** ****** ****** ****** ****** ****** ****** ****** ****** ******
      ****** ****** ****** ****** ****** ****** ****** ****** ****** ******
      ****** ****** ****** ****** ****** ****** ****** ****** ****** ******
  17  ****** ****** ****** ****** ****** ****** ****** ****** ****** ******
      ****** ****** ****** ****** ****** ****** ****** ****** ****** ******
      ****** ****** ****** ****** ****** ****** ****** ****** ****** ******
  18  ****** ****** ****** ****** ****** ****** ****** ****** ****** ******
      ****** ****** ****** ****** ****** ****** ****** ****** ****** ******
      ****** ****** ****** ****** ****** ****** ****** ****** ****** ******
  19  ****** ****** ****** ****** ****** ****** ****** ****** ****** ******
      ****** ****** ****** ****** ****** ****** ****** ****** ****** ******
      ****** ****** ****** ****** ****** ****** ****** ****** ****** ******
  20  ****** ****** ****** ****** ****** ****** ****** ****** ****** ******
      ****** ****** ****** ****** ****** ****** ****** ****** ****** ******
      ****** ****** ****** ****** ****** ****** ****** ****** ****** ******
  21  ****** ****** ****** ****** ****** ****** ****** ****** ****** ******
      ****** ****** ****** ****** ****** ****** ****** ****** ****** ******
      ****** ****** ****** ****** ****** ****** ****** ****** ****** ******
  22  ****** ****** ****** ****** ****** ****** ****** ****** ****** ******
      ****** ****** ****** ****** ****** ****** ****** ****** ****** ******
      ****** ****** ****** ****** ****** ****** ****** ****** ****** ******
  23  ****** ****** ****** ****** ****** ****** ****** ****** ****** ******
      ****** ****** ****** ****** ****** ****** ****** ****** ****** ******
      ****** ****** ****** ****** ****** ****** ****** ****** ****** ******
  24  ****** ****** ****** ****** ****** ****** ****** ****** ****** ******
      ****** ****** ****** ****** ****** ****** ****** ****** ****** ******
      ****** ****** ****** ****** ****** ****** ****** ****** ****** ******
  25  ****** ****** ****** ****** ****** ****** ****** ****** ****** ******
      ****** ****** ****** ****** ****** ****** ****** ****** ****** ******
      ****** ****** ****** ****** ****** ****** ****** ****** ****** ******

 HEAD WILL BE SAVED ON UNIT   51 AT END OF TIME STEP    1, STRESS PERIOD    3
1
  VOLUMETRIC BUDGET FOR ENTIRE MODEL AT END OF TIME STEP    1, STRESS PERIOD   3
  ------------------------------------------------------------------------------

     CUMULATIVE VOLUMES      L**3       RATES FOR THIS TIME STEP      L**3/T
     ------------------                 ------------------------

           IN:                                      IN:
           ---                                      ---
             STORAGE =    27640694.0323               STORAGE =       55505.3986
       CONSTANT HEAD =     5160227.6883         CONSTANT HEAD =       26168.2732
               WELLS =           0.0000                 WELLS =           0.0000
            RECHARGE =     6292800.0000              RECHARGE =           0.0000
      STREAM LEAKAGE =     1501813.4564        STREAM LEAKAGE =        7141.1224

            TOTAL IN =    40595535.1770              TOTAL IN =       88814.7941

          OUT:                                     OUT:
          ----                                     ----
             STORAGE =           0.0000               STORAGE =           0.0000
       CONSTANT HEAD =           0.0000         CONSTANT HEAD =           0.0000
               WELLS =     7691393.6134                 WELLS =       28070.7796
            RECHARGE =           0.0000              RECHARGE =           0.0000
      STREAM LEAKAGE =    32904143.6380        STREAM LEAKAGE =       60744.0226

           TOTAL OUT =    40595537.2513             TOTAL OUT =       88814.8022

            IN - OUT =          -2.0743              IN - OUT =      -8.0510E-03

 PERCENT DISCREPANCY =          -0.00     PERCENT DISCREPANCY =          -0.00






         TIME SUMMARY AT END OF TIME STEP    1 IN STRESS PERIOD    3
                    SECONDS     MINUTES      HOURS       DAYS        YEARS
                    -----------------------------------------------------------
   TIME STEP LENGTH 7.86240E+06 1.31040E+05  2184.0      91.000     0.24914    
 STRESS PERIOD TIME 7.86240E+06 1.31040E+05  2184.0      91.000     0.24914    
         TOTAL TIME 2.36736E+07 3.94560E+05  6576.0      274.00     0.75017    
1
1
                            STRESS PERIOD NO.    4, LENGTH =   91.00000    
                            -----------------------------------------------

                              NUMBER OF TIME STEPS =     1

                               MULTIPLIER FOR DELT =     1.500

                            INITIAL TIME STEP SIZE =   91.00000    

 WELL NO.  LAYER   ROW   COL   STRESS RATE         
 --------------------------------------------------
      1      1     16      2      -8562.    
      2      1     23     16      -2065.    
      3      1     13     14      -8503.    
      4      1      6     16      -8940.    

      4 WELLS

                 RECHARGE =  1.000000E-03

 REUSING STREAM SEGMENT DATA FROM LAST STRESS PERIOD
 
 SOLVING FOR HEAD 


     6 CALLS TO PCG ROUTINE FOR TIME STEP   1 IN STRESS PERIOD    4
    23 TOTAL ITERATIONS

 OUTPUT CONTROL FOR STRESS PERIOD    4   TIME STEP    1
    SAVE BUDGET
    SAVE HEAD FOR ALL LAYERS
    PRINT HEAD FOR ALL LAYERS
 UBDSV2 SAVING "STREAMFLOW OUT  " ON UNIT  50 AT TIME STEP  1, STRESS PERIOD   4



 STREAM LISTING     PERIOD      4   STEP        1

 LAYER ROW COL. STREAM  RCH.  FLOW INTO     FLOW TO   FLOW OUT OF   OVRLND.     DIRECT     STREAM       STREAM     STREAM     STREAM   STREAMBED  STREAMBED
                SEG.NO.  NO.  STRM. RCH.    AQUIFER    STRM. RCH.    RUNOFF     PRECIP       ET          HEAD       DEPTH      WIDTH   CONDCTNC.   GRADIENT

   1   13    1     1     1    1.0000E+05 -9.5216E+02   1.0095E+05  0.000E+00  0.000E+00  0.000E+00  4.84064E+01  1.451E-01  2.000E+01  2.000E+04 -4.761E-02
   1   13    2     1     2    1.0095E+05 -2.0026E+03   1.0295E+05  0.000E+00  0.000E+00  0.000E+00  4.79304E+01  1.463E-01  2.000E+01  2.000E+04 -1.001E-01
   1   14    3     1     3    1.0295E+05 -1.2155E+02   1.0308E+05  0.000E+00  0.000E+00  0.000E+00  4.74541E+01  1.473E-01  2.000E+01  2.000E+04 -6.077E-03
   1   15    4     1     4    1.0308E+05 -8.7367E+01   1.0316E+05  0.000E+00  0.000E+00  0.000E+00  4.69769E+01  1.473E-01  2.000E+01  2.000E+04 -4.368E-03
   1   16    5     1     5    1.0316E+05  1.4571E+02   1.0302E+05  0.000E+00  0.000E+00  0.000E+00  4.64996E+01  1.473E-01  2.000E+01  2.000E+04  7.285E-03
   1   16    6     1     6    1.0302E+05 -8.4211E+02   1.0386E+05  0.000E+00  0.000E+00  0.000E+00  4.60226E+01  1.476E-01  2.000E+01  2.000E+04 -4.211E-02
   1   16    7     1     7    1.0386E+05 -1.0198E+03   1.0488E+05  0.000E+00  0.000E+00  0.000E+00  4.55461E+01  1.484E-01  2.000E+01  2.000E+04 -5.099E-02
   1   16    8     1     8    1.0488E+05 -1.1015E+03   1.0598E+05  0.000E+00  0.000E+00  0.000E+00  4.50698E+01  1.493E-01  2.000E+01  2.000E+04 -5.508E-02
   1   16    9     1     9    1.0598E+05 -1.1354E+03   1.0712E+05  0.000E+00  0.000E+00  0.000E+00  4.45934E+01  1.503E-01  2.000E+01  2.000E+04 -5.677E-02
   1   16   10     1    10    1.0712E+05 -1.1377E+03   1.0825E+05  0.000E+00  0.000E+00  0.000E+00  4.41171E+01  1.512E-01  2.000E+01  2.000E+04 -5.689E-02
   1   16   11     1    11    1.0825E+05 -1.1387E+03   1.0939E+05  0.000E+00  0.000E+00  0.000E+00  4.36408E+01  1.522E-01  2.000E+01  2.000E+04 -5.694E-02
   1   16   12     1    12    1.0939E+05 -1.8792E+03   1.1127E+05  0.000E+00  0.000E+00  0.000E+00  4.31648E+01  1.534E-01  2.000E+01  2.000E+04 -9.396E-02
   1   15   13     1    13    1.1127E+05 -1.3658E+03   1.1264E+05  0.000E+00  0.000E+00  0.000E+00  4.26889E+01  1.548E-01  2.000E+01  2.000E+04 -6.829E-02
   1   14   14     1    14    1.1264E+05  8.2135E+02   1.1182E+05  0.000E+00  0.000E+00  0.000E+00  4.22118E+01  1.550E-01  2.000E+01  2.000E+04  4.107E-02
   1   13   15     1    15    1.1182E+05  5.9707E+02   1.1122E+05  0.000E+00  0.000E+00  0.000E+00  4.17340E+01  1.544E-01  2.000E+01  2.000E+04  2.985E-02
   1   12   16     1    16    1.1122E+05 -2.1999E+03   1.1342E+05  0.000E+00  0.000E+00  0.000E+00  4.12574E+01  1.551E-01  2.000E+01  2.000E+04 -1.100E-01
   1   12   17     1    17    1.1342E+05 -1.7307E+03   1.1515E+05  0.000E+00  0.000E+00  0.000E+00  4.07817E+01  1.567E-01  2.000E+01  2.000E+04 -8.653E-02
   1   12   18     1    18    1.1515E+05 -1.7332E+03   1.1688E+05  0.000E+00  0.000E+00  0.000E+00  4.03059E+01  1.581E-01  2.000E+01  2.000E+04 -8.666E-02
   1   12   19     1    19    1.1688E+05 -2.3130E+03   1.1920E+05  0.000E+00  0.000E+00  0.000E+00  3.98302E+01  1.598E-01  2.000E+01  2.000E+04 -1.156E-01
   1   13   20     1    20    1.1920E+05 -1.9726E+03   1.2117E+05  0.000E+00  0.000E+00  0.000E+00  3.93547E+01  1.615E-01  2.000E+01  2.000E+04 -9.863E-02
   1   14   21     1    21    1.2117E+05 -1.9735E+03   1.2314E+05  0.000E+00  0.000E+00  0.000E+00  3.88790E+01  1.631E-01  2.000E+01  2.000E+04 -9.868E-02
   1   14   22     1    22    1.2314E+05  4.6838E+03   1.1846E+05  0.000E+00  0.000E+00  0.000E+00  3.84007E+01  1.620E-01  2.000E+01  2.000E+04  2.342E-01
   1    9   30     2     1    5.0000E+04 -8.1917E+02   5.0819E+04  0.000E+00  0.000E+00  0.000E+00  4.02414E+01  1.164E-01  2.000E+01  2.000E+04 -4.096E-02
   1    9   29     2     2    5.0819E+04 -1.1167E+03   5.1936E+04  0.000E+00  0.000E+00  0.000E+00  3.99928E+01  1.178E-01  2.000E+01  2.000E+04 -5.583E-02
   1    9   28     2     3    5.1936E+04 -1.3695E+03   5.3305E+04  0.000E+00  0.000E+00  0.000E+00  3.97445E+01  1.195E-01  2.000E+01  2.000E+04 -6.848E-02
   1    9   27     2     4    5.3305E+04 -2.6767E+03   5.5982E+04  0.000E+00  0.000E+00  0.000E+00  3.94972E+01  1.222E-01  2.000E+01  2.000E+04 -1.338E-01
   1   10   26     2     5    5.5982E+04 -1.8093E+03   5.7791E+04  0.000E+00  0.000E+00  0.000E+00  3.92502E+01  1.252E-01  2.000E+01  2.000E+04 -9.046E-02
   1   11   25     2     6    5.7791E+04 -1.5676E+03   5.9359E+04  0.000E+00  0.000E+00  0.000E+00  3.90024E+01  1.274E-01  2.000E+01  2.000E+04 -7.838E-02
   1   12   24     2     7    5.9359E+04 -1.6031E+03   6.0962E+04  0.000E+00  0.000E+00  0.000E+00  3.87545E+01  1.295E-01  2.000E+01  2.000E+04 -8.015E-02
   1   13   23     2     8    6.0962E+04 -2.7491E+02   6.1237E+04  0.000E+00  0.000E+00  0.000E+00  3.85057E+01  1.307E-01  2.000E+01  2.000E+04 -1.375E-02
   1   14   22     2     9    6.1237E+04  1.7650E+03   5.9472E+04  0.000E+00  0.000E+00  0.000E+00  3.82547E+01  1.297E-01  2.000E+01  2.000E+04  8.825E-02
   1   14   22     3     1    1.7793E+05 -8.7761E+03   1.8671E+05  0.000E+00  0.000E+00  0.000E+00  3.77277E+01  1.721E-01  2.000E+01  2.000E+04 -4.388E-01
   1   15   23     3     2    1.8671E+05 -6.3249E+02   1.8734E+05  0.000E+00  0.000E+00  0.000E+00  3.68414E+01  1.748E-01  2.000E+01  2.000E+04 -3.162E-02
   1   15   24     3     3    1.8734E+05 -3.4268E+02   1.8768E+05  0.000E+00  0.000E+00  0.000E+00  3.59528E+01  1.750E-01  2.000E+01  2.000E+04 -1.713E-02
   1   15   25     3     4    1.8768E+05 -3.3289E+02   1.8801E+05  0.000E+00  0.000E+00  0.000E+00  3.50641E+01  1.752E-01  2.000E+01  2.000E+04 -1.664E-02
   1   15   26     3     5    1.8801E+05 -3.7974E+02   1.8839E+05  0.000E+00  0.000E+00  0.000E+00  3.41754E+01  1.754E-01  2.000E+01  2.000E+04 -1.899E-02
   1   16   27     3     6    1.8839E+05 -4.3517E+02   1.8883E+05  0.000E+00  0.000E+00  0.000E+00  3.32868E+01  1.756E-01  2.000E+01  2.000E+04 -2.176E-02
   1   17   28     3     7    1.8883E+05 -1.7859E+03   1.9062E+05  0.000E+00  0.000E+00  0.000E+00  3.23985E+01  1.763E-01  2.000E+01  2.000E+04 -8.930E-02
   1   18   29     3     8    1.9062E+05 -3.3207E+03   1.9394E+05  0.000E+00  0.000E+00  0.000E+00  3.15110E+01  1.777E-01  2.000E+01  2.000E+04 -1.660E-01
   1   18   30     3     9    1.9394E+05 -3.4408E+03   1.9738E+05  0.000E+00  0.000E+00  0.000E+00  3.06240E+01  1.796E-01  2.000E+01  2.000E+04 -1.720E-01



1
              HEAD IN LAYER   1 AT END OF TIME STEP   1 IN STRESS PERIOD    4
  ---------------------------------------------------------------------------

          1      2      3      4      5      6      7      8      9     10
         11     12     13     14     15     16     17     18     19     20
         21     22     23     24     25     26     27     28     29     30
 .........................................................................
   1  ****** ****** ****** ****** ****** ****** ****** ****** ****** ******
      ****** ****** ****** ****** ****** ****** ****** ****** ****** ******
      ****** ****** ****** ****** ****** ****** ****** ****** ****** ******
   2  ****** ****** ****** ****** ****** ****** ****** ****** ****** ******
      ****** ****** ****** ****** ****** ****** ****** ****** ****** ******
      ****** ****** ****** ****** ****** ****** ****** ****** ****** ******
   3  ****** ****** ****** ****** ****** ****** ****** ****** ****** ******
      ****** ****** ****** ****** ****** ****** ****** ****** ****** ******
      ****** ****** ****** ****** ****** ****** ****** ****** ****** ******
   4  ****** ****** ****** ****** ****** ****** ****** ****** ****** ******
      ****** ****** ****** ****** ****** ****** ****** ****** ****** ******
      ****** ****** ****** ****** ****** ****** ****** ****** ****** ******
   5  ****** ****** ****** ****** ****** ****** ****** ****** ****** ******
      ****** ****** ****** ****** ****** ****** ****** ****** ****** ******
      ****** ****** ****** ****** ****** ****** ****** ****** ****** ******
   6  ****** ****** ****** ****** ****** ****** ****** ****** ****** ******
      ****** ****** ****** ****** ****** ****** ****** ****** ****** ******
      ****** ****** ****** ****** ****** ****** ****** ****** ****** ******
   7  ****** ****** ****** ****** ****** ****** ****** ****** ****** ******
      ****** ****** ****** ****** ****** ****** ****** ****** ****** ******
      ****** ****** ****** ****** ****** ****** ****** ****** ****** ******
   8  ****** ****** ****** ****** ****** ****** ****** ****** ****** ******
      ****** ****** ****** ****** ****** ****** ****** ****** ****** ******
      ****** ****** ****** ****** ****** ****** ****** ****** ****** ******
   9  ****** ****** ****** ****** ****** ****** ****** ****** ****** ******
      ****** ****** ****** ****** ****** ****** ****** ****** ****** ******
      ****** ****** ****** ****** ****** ****** ****** ****** ****** ******
  10  ****** ****** ****** ****** ****** ****** ****** ****** ****** ******
      ****** ****** ****** ****** ****** ****** ****** ****** ****** ******
      ****** ****** ****** ****** ****** ****** ****** ****** ****** ******
  11  ****** ****** ****** ****** ****** ****** ****** ****** ****** ******
      ****** ****** ****** ****** ****** ****** ****** ****** ****** ******
      ****** ****** ****** ****** ****** ****** ****** ****** ****** ******
  12  ****** ****** ****** ****** ****** ****** ****** ****** ****** ******
      ****** ****** ****** ****** ****** ****** ****** ****** ****** ******
      ****** ****** ****** ****** ****** ****** ****** ****** ****** ******
  13  ****** ****** ****** ****** ****** ****** ****** ****** ****** ******
      ****** ****** ****** ****** ****** ****** ****** ****** ****** ******
      ****** ****** ****** ****** ****** ****** ****** ****** ****** ******
  14  ****** ****** ****** ****** ****** ****** ****** ****** ****** ******
      ****** ****** ****** ****** ****** ****** ****** ****** ****** ******
      ****** ****** ****** ****** ****** ****** ****** ****** ****** ******
  15  ****** ****** ****** ****** ****** ****** ****** ****** ****** ******
      ****** ****** ****** ****** ****** ****** ****** ****** ****** ******
      ****** ****** ****** ****** ****** ****** ****** ****** ****** ******
  16  ****** ****** ****** ****** ****** ****** ****** ****** ****** ******
      ****** ****** ****** ****** ****** ****** ****** ****** ****** ******
      ****** ****** ****** ****** ****** ****** ****** ****** ****** ******
  17  ****** ****** ****** ****** ****** ****** ****** ****** ****** ******
      ****** ****** ****** ****** ****** ****** ****** ****** ****** ******
      ****** ****** ****** ****** ****** ****** ****** ****** ****** ******
  18  ****** ****** ****** ****** ****** ****** ****** ****** ****** ******
      ****** ****** ****** ****** ****** ****** ****** ****** ****** ******
      ****** ****** ****** ****** ****** ****** ****** ****** ****** ******
  19  ****** ****** ****** ****** ****** ****** ****** ****** ****** ******
      ****** ****** ****** ****** ****** ****** ****** ****** ****** ******
      ****** ****** ****** ****** ****** ****** ****** ****** ****** ******
  20  ****** ****** ****** ****** ****** ****** ****** ****** ****** ******
      ****** ****** ****** ****** ****** ****** ****** ****** ****** ******
      ****** ****** ****** ****** ****** ****** ****** ****** ****** ******
  21  ****** ****** ****** ****** ****** ****** ****** ****** ****** ******
      ****** ****** ****** ****** ****** ****** ****** ****** ****** ******
      ****** ****** ****** ****** ****** ****** ****** ****** ****** ******
  22  ****** ****** ****** ****** ****** ****** ****** ****** ****** ******
      ****** ****** ****** ****** ****** ****** ****** ****** ****** ******
      ****** ****** ****** ****** ****** ****** ****** ****** ****** ******
  23  ****** ****** ****** ****** ****** ****** ****** ****** ****** ******
      ****** ****** ****** ****** ****** ****** ****** ****** ****** ******
      ****** ****** ****** ****** ****** ****** ****** ****** ****** ******
  24  ****** ****** ****** ****** ****** ****** ****** ****** ****** ******
      ****** ****** ****** ****** ****** ****** ****** ****** ****** ******
      ****** ****** ****** ****** ****** ****** ****** ****** ****** ******
  25  ****** ****** ****** ****** ****** ****** ****** ****** ****** ******
      ****** ****** ****** ****** ****** ****** ****** ****** ****** ******
      ****** ****** ****** ****** ****** ****** ****** ****** ****** ******

 HEAD WILL BE SAVED ON UNIT   51 AT END OF TIME STEP    1, STRESS PERIOD    4
1
  VOLUMETRIC BUDGET FOR ENTIRE MODEL AT END OF TIME STEP    1, STRESS PERIOD   4
  ------------------------------------------------------------------------------

     CUMULATIVE VOLUMES      L**3       RATES FOR THIS TIME STEP      L**3/T
     ------------------                 ------------------------

           IN:                                      IN:
           ---                                      ---
             STORAGE =    29372108.5161               STORAGE =       19026.5328
       CONSTANT HEAD =     7784211.3412         CONSTANT HEAD =       28834.9852
               WELLS =           0.0000                 WELLS =           0.0000
            RECHARGE =     8804400.0000              RECHARGE =       27600.0000
      STREAM LEAKAGE =     2230993.8379        STREAM LEAKAGE =        8012.9712

            TOTAL IN =    48191713.6952              TOTAL IN =       83474.4892

          OUT:                                     OUT:
          ----                                     ----
             STORAGE =        1222.7098               STORAGE =          13.4364
       CONSTANT HEAD =           0.0000         CONSTANT HEAD =           0.0000
               WELLS =    10245834.5579                 WELLS =       28070.7796
            RECHARGE =           0.0000              RECHARGE =           0.0000
      STREAM LEAKAGE =    37944658.5900        STREAM LEAKAGE =       55390.2742

           TOTAL OUT =    48191715.8577             TOTAL OUT =       83474.4902

            IN - OUT =          -2.1625              IN - OUT =      -9.6899E-04

 PERCENT DISCREPANCY =          -0.00     PERCENT DISCREPANCY =          -0.00






         TIME SUMMARY AT END OF TIME STEP    1 IN STRESS PERIOD    4
                    SECONDS     MINUTES      HOURS       DAYS        YEARS
                    -----------------------------------------------------------
   TIME STEP LENGTH 7.86240E+06 1.31040E+05  2184.0      91.000     0.24914    
 STRESS PERIOD TIME 7.86240E+06 1.31040E+05  2184.0      91.000     0.24914    
         TOTAL TIME 3.15360E+07 5.25600E+05  8760.0      365.00     0.99932    
1
1
                            STRESS PERIOD NO.    5, LENGTH =   92.00000    
                            -----------------------------------------------

                              NUMBER OF TIME STEPS =     1

                               MULTIPLIER FOR DELT =     1.500

                            INITIAL TIME STEP SIZE =   92.00000    

 WELL NO.  LAYER   ROW   COL   STRESS RATE         
 --------------------------------------------------
      1      1     16      2      -8562.    
      2      1     23     16      -2065.    
      3      1     13     14      -8503.    
      4      1      6     16      -8940.    

      4 WELLS

                 RECHARGE =  5.000000E-04

 REUSING STREAM SEGMENT DATA FROM LAST STRESS PERIOD
 
 SOLVING FOR HEAD 


     7 CALLS TO PCG ROUTINE FOR TIME STEP   1 IN STRESS PERIOD    5
    26 TOTAL ITERATIONS

 OUTPUT CONTROL FOR STRESS PERIOD    5   TIME STEP    1
    SAVE BUDGET
    SAVE HEAD FOR ALL LAYERS
    PRINT HEAD FOR ALL LAYERS
 UBDSV2 SAVING "STREAMFLOW OUT  " ON UNIT  50 AT TIME STEP  1, STRESS PERIOD   5



 STREAM LISTING     PERIOD      5   STEP        1

 LAYER ROW COL. STREAM  RCH.  FLOW INTO     FLOW TO   FLOW OUT OF   OVRLND.     DIRECT     STREAM       STREAM     STREAM     STREAM   STREAMBED  STREAMBED
                SEG.NO.  NO.  STRM. RCH.    AQUIFER    STRM. RCH.    RUNOFF     PRECIP       ET          HEAD       DEPTH      WIDTH   CONDCTNC.   GRADIENT

   1   13    1     1     1    1.0000E+05 -5.1500E+02   1.0051E+05  0.000E+00  0.000E+00  0.000E+00  4.84062E+01  1.449E-01  2.000E+01  2.000E+04 -2.575E-02
   1   13    2     1     2    1.0051E+05 -1.5099E+03   1.0202E+05  0.000E+00  0.000E+00  0.000E+00  4.79298E+01  1.458E-01  2.000E+01  2.000E+04 -7.550E-02
   1   14    3     1     3    1.0202E+05  5.2613E+00   1.0202E+05  0.000E+00  0.000E+00  0.000E+00  4.74532E+01  1.464E-01  2.000E+01  2.000E+04  2.631E-04
   1   15    4     1     4    1.0202E+05  4.6559E+01   1.0197E+05  0.000E+00  0.000E+00  0.000E+00  4.69759E+01  1.464E-01  2.000E+01  2.000E+04  2.328E-03
   1   16    5     1     5    1.0197E+05  6.0239E+02   1.0137E+05  0.000E+00  0.000E+00  0.000E+00  4.64984E+01  1.461E-01  2.000E+01  2.000E+04  3.012E-02
   1   16    6     1     6    1.0137E+05 -5.7831E+02   1.0195E+05  0.000E+00  0.000E+00  0.000E+00  4.60211E+01  1.461E-01  2.000E+01  2.000E+04 -2.892E-02
   1   16    7     1     7    1.0195E+05 -7.6839E+02   1.0272E+05  0.000E+00  0.000E+00  0.000E+00  4.55444E+01  1.467E-01  2.000E+01  2.000E+04 -3.842E-02
   1   16    8     1     8    1.0272E+05 -8.5505E+02   1.0357E+05  0.000E+00  0.000E+00  0.000E+00  4.50678E+01  1.474E-01  2.000E+01  2.000E+04 -4.275E-02
   1   16    9     1     9    1.0357E+05 -8.9309E+02   1.0447E+05  0.000E+00  0.000E+00  0.000E+00  4.45913E+01  1.481E-01  2.000E+01  2.000E+04 -4.465E-02
   1   16   10     1    10    1.0447E+05 -9.0021E+02   1.0537E+05  0.000E+00  0.000E+00  0.000E+00  4.41148E+01  1.489E-01  2.000E+01  2.000E+04 -4.501E-02
   1   16   11     1    11    1.0537E+05 -9.0231E+02   1.0627E+05  0.000E+00  0.000E+00  0.000E+00  4.36383E+01  1.496E-01  2.000E+01  2.000E+04 -4.512E-02
   1   16   12     1    12    1.0627E+05 -1.4581E+03   1.0773E+05  0.000E+00  0.000E+00  0.000E+00  4.31620E+01  1.506E-01  2.000E+01  2.000E+04 -7.291E-02
   1   15   13     1    13    1.0773E+05 -9.1956E+02   1.0865E+05  0.000E+00  0.000E+00  0.000E+00  4.26857E+01  1.516E-01  2.000E+01  2.000E+04 -4.598E-02
   1   14   14     1    14    1.0865E+05  1.2987E+03   1.0735E+05  0.000E+00  0.000E+00  0.000E+00  4.22083E+01  1.515E-01  2.000E+01  2.000E+04  6.494E-02
   1   13   15     1    15    1.0735E+05  1.0958E+03   1.0625E+05  0.000E+00  0.000E+00  0.000E+00  4.17300E+01  1.505E-01  2.000E+01  2.000E+04  5.479E-02
   1   12   16     1    16    1.0625E+05 -1.6468E+03   1.0790E+05  0.000E+00  0.000E+00  0.000E+00  4.12530E+01  1.507E-01  2.000E+01  2.000E+04 -8.234E-02
   1   12   17     1    17    1.0790E+05 -1.3639E+03   1.0926E+05  0.000E+00  0.000E+00  0.000E+00  4.07770E+01  1.520E-01  2.000E+01  2.000E+04 -6.819E-02
   1   12   18     1    18    1.0926E+05 -1.3856E+03   1.1065E+05  0.000E+00  0.000E+00  0.000E+00  4.03009E+01  1.531E-01  2.000E+01  2.000E+04 -6.928E-02
   1   12   19     1    19    1.1065E+05 -1.8913E+03   1.1254E+05  0.000E+00  0.000E+00  0.000E+00  3.98249E+01  1.545E-01  2.000E+01  2.000E+04 -9.456E-02
   1   13   20     1    20    1.1254E+05 -1.6137E+03   1.1415E+05  0.000E+00  0.000E+00  0.000E+00  3.93491E+01  1.559E-01  2.000E+01  2.000E+04 -8.069E-02
   1   14   21     1    21    1.1415E+05 -1.5974E+03   1.1575E+05  0.000E+00  0.000E+00  0.000E+00  3.88732E+01  1.573E-01  2.000E+01  2.000E+04 -7.987E-02
   1   14   22     1    22    1.1575E+05  4.7589E+03   1.1099E+05  0.000E+00  0.000E+00  0.000E+00  3.83946E+01  1.560E-01  2.000E+01  2.000E+04  2.379E-01
   1    9   30     2     1    5.0000E+04 -5.8564E+02   5.0586E+04  0.000E+00  0.000E+00  0.000E+00  4.02413E+01  1.163E-01  2.000E+01  2.000E+04 -2.928E-02
   1    9   29     2     2    5.0586E+04 -8.7929E+02   5.1465E+04  0.000E+00  0.000E+00  0.000E+00  3.99923E+01  1.173E-01  2.000E+01  2.000E+04 -4.396E-02
   1    9   28     2     3    5.1465E+04 -1.1194E+03   5.2584E+04  0.000E+00  0.000E+00  0.000E+00  3.97437E+01  1.187E-01  2.000E+01  2.000E+04 -5.597E-02
   1    9   27     2     4    5.2584E+04 -2.2795E+03   5.4864E+04  0.000E+00  0.000E+00  0.000E+00  3.94960E+01  1.210E-01  2.000E+01  2.000E+04 -1.140E-01
   1   10   26     2     5    5.4864E+04 -1.4625E+03   5.6326E+04  0.000E+00  0.000E+00  0.000E+00  3.92485E+01  1.235E-01  2.000E+01  2.000E+04 -7.312E-02
   1   11   25     2     6    5.6326E+04 -1.2488E+03   5.7575E+04  0.000E+00  0.000E+00  0.000E+00  3.90003E+01  1.253E-01  2.000E+01  2.000E+04 -6.244E-02
   1   12   24     2     7    5.7575E+04 -1.3109E+03   5.8886E+04  0.000E+00  0.000E+00  0.000E+00  3.87520E+01  1.270E-01  2.000E+01  2.000E+04 -6.555E-02
   1   13   23     2     8    5.8886E+04 -2.0520E+02   5.9091E+04  0.000E+00  0.000E+00  0.000E+00  3.85029E+01  1.279E-01  2.000E+01  2.000E+04 -1.026E-02
   1   14   22     2     9    5.9091E+04  1.9037E+03   5.7188E+04  0.000E+00  0.000E+00  0.000E+00  3.82518E+01  1.268E-01  2.000E+01  2.000E+04  9.518E-02
   1   14   22     3     1    1.6818E+05 -8.6920E+03   1.7687E+05  0.000E+00  0.000E+00  0.000E+00  3.77221E+01  1.665E-01  2.000E+01  2.000E+04 -4.346E-01
   1   15   23     3     2    1.7687E+05 -5.3473E+02   1.7741E+05  0.000E+00  0.000E+00  0.000E+00  3.68358E+01  1.692E-01  2.000E+01  2.000E+04 -2.674E-02
   1   15   24     3     3    1.7741E+05 -2.7106E+02   1.7768E+05  0.000E+00  0.000E+00  0.000E+00  3.59472E+01  1.694E-01  2.000E+01  2.000E+04 -1.355E-02
   1   15   25     3     4    1.7768E+05 -2.6187E+02   1.7794E+05  0.000E+00  0.000E+00  0.000E+00  3.50584E+01  1.695E-01  2.000E+01  2.000E+04 -1.309E-02
   1   15   26     3     5    1.7794E+05 -3.0783E+02   1.7825E+05  0.000E+00  0.000E+00  0.000E+00  3.41697E+01  1.697E-01  2.000E+01  2.000E+04 -1.539E-02
   1   16   27     3     6    1.7825E+05 -3.4497E+02   1.7859E+05  0.000E+00  0.000E+00  0.000E+00  3.32810E+01  1.699E-01  2.000E+01  2.000E+04 -1.725E-02
   1   17   28     3     7    1.7859E+05 -1.5190E+03   1.8011E+05  0.000E+00  0.000E+00  0.000E+00  3.23926E+01  1.704E-01  2.000E+01  2.000E+04 -7.595E-02
   1   18   29     3     8    1.8011E+05 -2.9484E+03   1.8306E+05  0.000E+00  0.000E+00  0.000E+00  3.15050E+01  1.717E-01  2.000E+01  2.000E+04 -1.474E-01
   1   18   30     3     9    1.8306E+05 -3.1844E+03   1.8624E+05  0.000E+00  0.000E+00  0.000E+00  3.06179E+01  1.734E-01  2.000E+01  2.000E+04 -1.592E-01



1
              HEAD IN LAYER   1 AT END OF TIME STEP   1 IN STRESS PERIOD    5
  ---------------------------------------------------------------------------

          1      2      3      4      5      6      7      8      9     10
         11     12     13     14     15     16     17     18     19     20
         21     22     23     24     25     26     27     28     29     30
 .........................................................................
   1  ****** ****** ****** ****** ****** ****** ****** ****** ****** ******
      ****** ****** ****** ****** ****** ****** ****** ****** ****** ******
      ****** ****** ****** ****** ****** ****** ****** ****** ****** ******
   2  ****** ****** ****** ****** ****** ****** ****** ****** ****** ******
      ****** ****** ****** ****** ****** ****** ****** ****** ****** ******
      ****** ****** ****** ****** ****** ****** ****** ****** ****** ******
   3  ****** ****** ****** ****** ****** ****** ****** ****** ****** ******
      ****** ****** ****** ****** ****** ****** ****** ****** ****** ******
      ****** ****** ****** ****** ****** ****** ****** ****** ****** ******
   4  ****** ****** ****** ****** ****** ****** ****** ****** ****** ******
      ****** ****** ****** ****** ****** ****** ****** ****** ****** ******
      ****** ****** ****** ****** ****** ****** ****** ****** ****** ******
   5  ****** ****** ****** ****** ****** ****** ****** ****** ****** ******
      ****** ****** ****** ****** ****** ****** ****** ****** ****** ******
      ****** ****** ****** ****** ****** ****** ****** ****** ****** ******
   6  ****** ****** ****** ****** ****** ****** ****** ****** ****** ******
      ****** ****** ****** ****** ****** ****** ****** ****** ****** ******
      ****** ****** ****** ****** ****** ****** ****** ****** ****** ******
   7  ****** ****** ****** ****** ****** ****** ****** ****** ****** ******
      ****** ****** ****** ****** ****** ****** ****** ****** ****** ******
      ****** ****** ****** ****** ****** ****** ****** ****** ****** ******
   8  ****** ****** ****** ****** ****** ****** ****** ****** ****** ******
      ****** ****** ****** ****** ****** ****** ****** ****** ****** ******
      ****** ****** ****** ****** ****** ****** ****** ****** ****** ******
   9  ****** ****** ****** ****** ****** ****** ****** ****** ****** ******
      ****** ****** ****** ****** ****** ****** ****** ****** ****** ******
      ****** ****** ****** ****** ****** ****** ****** ****** ****** ******
  10  ****** ****** ****** ****** ****** ****** ****** ****** ****** ******
      ****** ****** ****** ****** ****** ****** ****** ****** ****** ******
      ****** ****** ****** ****** ****** ****** ****** ****** ****** ******
  11  ****** ****** ****** ****** ****** ****** ****** ****** ****** ******
      ****** ****** ****** ****** ****** ****** ****** ****** ****** ******
      ****** ****** ****** ****** ****** ****** ****** ****** ****** ******
  12  ****** ****** ****** ****** ****** ****** ****** ****** ****** ******
      ****** ****** ****** ****** ****** ****** ****** ****** ****** ******
      ****** ****** ****** ****** ****** ****** ****** ****** ****** ******
  13  ****** ****** ****** ****** ****** ****** ****** ****** ****** ******
      ****** ****** ****** ****** ****** ****** ****** ****** ****** ******
      ****** ****** ****** ****** ****** ****** ****** ****** ****** ******
  14  ****** ****** ****** ****** ****** ****** ****** ****** ****** ******
      ****** ****** ****** ****** ****** ****** ****** ****** ****** ******
      ****** ****** ****** ****** ****** ****** ****** ****** ****** ******
  15  ****** ****** ****** ****** ****** ****** ****** ****** ****** ******
      ****** ****** ****** ****** ****** ****** ****** ****** ****** ******
      ****** ****** ****** ****** ****** ****** ****** ****** ****** ******
  16  ****** ****** ****** ****** ****** ****** ****** ****** ****** ******
      ****** ****** ****** ****** ****** ****** ****** ****** ****** ******
      ****** ****** ****** ****** ****** ****** ****** ****** ****** ******
  17  ****** ****** ****** ****** ****** ****** ****** ****** ****** ******
      ****** ****** ****** ****** ****** ****** ****** ****** ****** ******
      ****** ****** ****** ****** ****** ****** ****** ****** ****** ******
  18  ****** ****** ****** ****** ****** ****** ****** ****** ****** ******
      ****** ****** ****** ****** ****** ****** ****** ****** ****** ******
      ****** ****** ****** ****** ****** ****** ****** ****** ****** ******
  19  ****** ****** ****** ****** ****** ****** ****** ****** ****** ******
      ****** ****** ****** ****** ****** ****** ****** ****** ****** ******
      ****** ****** ****** ****** ****** ****** ****** ****** ****** ******
  20  ****** ****** ****** ****** ****** ****** ****** ****** ****** ******
      ****** ****** ****** ****** ****** ****** ****** ****** ****** ******
      ****** ****** ****** ****** ****** ****** ****** ****** ****** ******
  21  ****** ****** ****** ****** ****** ****** ****** ****** ****** ******
      ****** ****** ****** ****** ****** ****** ****** ****** ****** ******
      ****** ****** ****** ****** ****** ****** ****** ****** ****** ******
  22  ****** ****** ****** ****** ****** ****** ****** ****** ****** ******
      ****** ****** ****** ****** ****** ****** ****** ****** ****** ******
      ****** ****** ****** ****** ****** ****** ****** ****** ****** ******
  23  ****** ****** ****** ****** ****** ****** ****** ****** ****** ******
      ****** ****** ****** ****** ****** ****** ****** ****** ****** ******
      ****** ****** ****** ****** ****** ****** ****** ****** ****** ******
  24  ****** ****** ****** ****** ****** ****** ****** ****** ****** ******
      ****** ****** ****** ****** ****** ****** ****** ****** ****** ******
      ****** ****** ****** ****** ****** ****** ****** ****** ****** ******
  25  ****** ****** ****** ****** ****** ****** ****** ****** ****** ******
      ****** ****** ****** ****** ****** ****** ****** ****** ****** ******
      ****** ****** ****** ****** ****** ****** ****** ****** ****** ******

 HEAD WILL BE SAVED ON UNIT   51 AT END OF TIME STEP    1, STRESS PERIOD    5
1
  VOLUMETRIC BUDGET FOR ENTIRE MODEL AT END OF TIME STEP    1, STRESS PERIOD   5
  ------------------------------------------------------------------------------

     CUMULATIVE VOLUMES      L**3       RATES FOR THIS TIME STEP      L**3/T
     ------------------                 ------------------------

           IN:                                      IN:
           ---                                      ---
             STORAGE =    31093181.7468               STORAGE =       18707.3177
       CONSTANT HEAD =    10710400.8866         CONSTANT HEAD =       31806.4081
               WELLS =           0.0000                 WELLS =           0.0000
            RECHARGE =    10074000.0000              RECHARGE =       13800.0000
      STREAM LEAKAGE =     3124435.5372        STREAM LEAKAGE =        9711.3228

            TOTAL IN =    55002018.1707              TOTAL IN =       74025.0486

          OUT:                                     OUT:
          ----                                     ----
             STORAGE =        1222.7098               STORAGE =           0.0000
       CONSTANT HEAD =           0.0000         CONSTANT HEAD =           0.0000
               WELLS =    12828346.2821                 WELLS =       28070.7796
            RECHARGE =           0.0000              RECHARGE =           0.0000
      STREAM LEAKAGE =    42172451.6581        STREAM LEAKAGE =       45954.2725

           TOTAL OUT =    55002020.6500             TOTAL OUT =       74025.0521

            IN - OUT =          -2.4793              IN - OUT =      -3.4435E-03

 PERCENT DISCREPANCY =          -0.00     PERCENT DISCREPANCY =          -0.00






         TIME SUMMARY AT END OF TIME STEP    1 IN STRESS PERIOD    5
                    SECONDS     MINUTES      HOURS       DAYS        YEARS
                    -----------------------------------------------------------
   TIME STEP LENGTH 7.94880E+06 1.32480E+05  2208.0      92.000     0.25188    
 STRESS PERIOD TIME 7.94880E+06 1.32480E+05  2208.0      92.000     0.25188    
         TOTAL TIME 3.94848E+07 6.58080E+05  10968.      457.00      1.2512    
1
1
                            STRESS PERIOD NO.    6, LENGTH =   91.00000    
                            -----------------------------------------------

                              NUMBER OF TIME STEPS =     1

                               MULTIPLIER FOR DELT =     1.500

                            INITIAL TIME STEP SIZE =   91.00000    

 WELL NO.  LAYER   ROW   COL   STRESS RATE         
 --------------------------------------------------
      1      1     16      2      -8562.    
      2      1     23     16      -2065.    
      3      1     13     14      -8503.    
      4      1      6     16      -8940.    

      4 WELLS

                 RECHARGE =  2.000000E-03

 REUSING STREAM SEGMENT DATA FROM LAST STRESS PERIOD
 
 SOLVING FOR HEAD 


     7 CALLS TO PCG ROUTINE FOR TIME STEP   1 IN STRESS PERIOD    6
    26 TOTAL ITERATIONS

 OUTPUT CONTROL FOR STRESS PERIOD    6   TIME STEP    1
    SAVE BUDGET
    SAVE HEAD FOR ALL LAYERS
    PRINT HEAD FOR ALL LAYERS
 UBDSV2 SAVING "STREAMFLOW OUT  " ON UNIT  50 AT TIME STEP  1, STRESS PERIOD   6



 STREAM LISTING     PERIOD      6   STEP        1

 LAYER ROW COL. STREAM  RCH.  FLOW INTO     FLOW TO   FLOW OUT OF   OVRLND.     DIRECT     STREAM       STREAM     STREAM     STREAM   STREAMBED  STREAMBED
                SEG.NO.  NO.  STRM. RCH.    AQUIFER    STRM. RCH.    RUNOFF     PRECIP       ET          HEAD       DEPTH      WIDTH   CONDCTNC.   GRADIENT

   1   13    1     1     1    1.0000E+05 -8.1584E+02   1.0082E+05  0.000E+00  0.000E+00  0.000E+00  4.84064E+01  1.450E-01  2.000E+01  2.000E+04 -4.079E-02
   1   13    2     1     2    1.0082E+05 -1.8393E+03   1.0266E+05  0.000E+00  0.000E+00  0.000E+00  4.79302E+01  1.462E-01  2.000E+01  2.000E+04 -9.196E-02
   1   14    3     1     3    1.0266E+05 -1.4696E+02   1.0280E+05  0.000E+00  0.000E+00  0.000E+00  4.74538E+01  1.470E-01  2.000E+01  2.000E+04 -7.348E-03
   1   15    4     1     4    1.0280E+05 -1.1702E+02   1.0292E+05  0.000E+00  0.000E+00  0.000E+00  4.69767E+01  1.471E-01  2.000E+01  2.000E+04 -5.851E-03
   1   16    5     1     5    1.0292E+05  1.1744E+02   1.0280E+05  0.000E+00  0.000E+00  0.000E+00  4.64994E+01  1.471E-01  2.000E+01  2.000E+04  5.872E-03
   1   16    6     1     6    1.0280E+05 -8.6394E+02   1.0367E+05  0.000E+00  0.000E+00  0.000E+00  4.60224E+01  1.474E-01  2.000E+01  2.000E+04 -4.320E-02
   1   16    7     1     7    1.0367E+05 -1.0395E+03   1.0471E+05  0.000E+00  0.000E+00  0.000E+00  4.55460E+01  1.483E-01  2.000E+01  2.000E+04 -5.198E-02
   1   16    8     1     8    1.0471E+05 -1.1222E+03   1.0583E+05  0.000E+00  0.000E+00  0.000E+00  4.50696E+01  1.492E-01  2.000E+01  2.000E+04 -5.611E-02
   1   16    9     1     9    1.0583E+05 -1.1604E+03   1.0699E+05  0.000E+00  0.000E+00  0.000E+00  4.45933E+01  1.501E-01  2.000E+01  2.000E+04 -5.802E-02
   1   16   10     1    10    1.0699E+05 -1.1700E+03   1.0816E+05  0.000E+00  0.000E+00  0.000E+00  4.41170E+01  1.511E-01  2.000E+01  2.000E+04 -5.850E-02
   1   16   11     1    11    1.0816E+05 -1.1762E+03   1.0933E+05  0.000E+00  0.000E+00  0.000E+00  4.36408E+01  1.521E-01  2.000E+01  2.000E+04 -5.881E-02
   1   16   12     1    12    1.0933E+05 -1.9011E+03   1.1124E+05  0.000E+00  0.000E+00  0.000E+00  4.31648E+01  1.534E-01  2.000E+01  2.000E+04 -9.506E-02
   1   15   13     1    13    1.1124E+05 -1.3701E+03   1.1261E+05  0.000E+00  0.000E+00  0.000E+00  4.26889E+01  1.548E-01  2.000E+01  2.000E+04 -6.850E-02
   1   14   14     1    14    1.1261E+05  8.5550E+02   1.1175E+05  0.000E+00  0.000E+00  0.000E+00  4.22118E+01  1.550E-01  2.000E+01  2.000E+04  4.278E-02
   1   13   15     1    15    1.1175E+05  6.7434E+02   1.1108E+05  0.000E+00  0.000E+00  0.000E+00  4.17339E+01  1.543E-01  2.000E+01  2.000E+04  3.372E-02
   1   12   16     1    16    1.1108E+05 -2.0173E+03   1.1309E+05  0.000E+00  0.000E+00  0.000E+00  4.12572E+01  1.549E-01  2.000E+01  2.000E+04 -1.009E-01
   1   12   17     1    17    1.1309E+05 -1.6707E+03   1.1476E+05  0.000E+00  0.000E+00  0.000E+00  4.07814E+01  1.564E-01  2.000E+01  2.000E+04 -8.353E-02
   1   12   18     1    18    1.1476E+05 -1.6974E+03   1.1646E+05  0.000E+00  0.000E+00  0.000E+00  4.03055E+01  1.578E-01  2.000E+01  2.000E+04 -8.487E-02
   1   12   19     1    19    1.1646E+05 -2.2786E+03   1.1874E+05  0.000E+00  0.000E+00  0.000E+00  3.98299E+01  1.594E-01  2.000E+01  2.000E+04 -1.139E-01
   1   13   20     1    20    1.1874E+05 -2.0341E+03   1.2077E+05  0.000E+00  0.000E+00  0.000E+00  3.93544E+01  1.612E-01  2.000E+01  2.000E+04 -1.017E-01
   1   14   21     1    21    1.2077E+05 -2.0111E+03   1.2278E+05  0.000E+00  0.000E+00  0.000E+00  3.88787E+01  1.628E-01  2.000E+01  2.000E+04 -1.006E-01
   1   14   22     1    22    1.2278E+05  4.6533E+03   1.1813E+05  0.000E+00  0.000E+00  0.000E+00  3.84004E+01  1.617E-01  2.000E+01  2.000E+04  2.327E-01
   1    9   30     2     1    5.0000E+04 -9.4813E+02   5.0948E+04  0.000E+00  0.000E+00  0.000E+00  4.02415E+01  1.165E-01  2.000E+01  2.000E+04 -4.741E-02
   1    9   29     2     2    5.0948E+04 -1.2372E+03   5.2185E+04  0.000E+00  0.000E+00  0.000E+00  3.99930E+01  1.180E-01  2.000E+01  2.000E+04 -6.186E-02
   1    9   28     2     3    5.2185E+04 -1.4702E+03   5.3656E+04  0.000E+00  0.000E+00  0.000E+00  3.97449E+01  1.199E-01  2.000E+01  2.000E+04 -7.351E-02
   1    9   27     2     4    5.3656E+04 -2.7210E+03   5.6377E+04  0.000E+00  0.000E+00  0.000E+00  3.94977E+01  1.227E-01  2.000E+01  2.000E+04 -1.361E-01
   1   10   26     2     5    5.6377E+04 -1.9287E+03   5.8305E+04  0.000E+00  0.000E+00  0.000E+00  3.92508E+01  1.258E-01  2.000E+01  2.000E+04 -9.643E-02
   1   11   25     2     6    5.8305E+04 -1.7005E+03   6.0006E+04  0.000E+00  0.000E+00  0.000E+00  3.90032E+01  1.282E-01  2.000E+01  2.000E+04 -8.502E-02
   1   12   24     2     7    6.0006E+04 -1.7177E+03   6.1723E+04  0.000E+00  0.000E+00  0.000E+00  3.87554E+01  1.304E-01  2.000E+01  2.000E+04 -8.589E-02
   1   13   23     2     8    6.1723E+04 -3.4258E+02   6.2066E+04  0.000E+00  0.000E+00  0.000E+00  3.85067E+01  1.317E-01  2.000E+01  2.000E+04 -1.713E-02
   1   14   22     2     9    6.2066E+04  1.7614E+03   6.0305E+04  0.000E+00  0.000E+00  0.000E+00  3.82558E+01  1.308E-01  2.000E+01  2.000E+04  8.807E-02
   1   14   22     3     1    1.7844E+05 -8.7952E+03   1.8723E+05  0.000E+00  0.000E+00  0.000E+00  3.77280E+01  1.724E-01  2.000E+01  2.000E+04 -4.398E-01
   1   15   23     3     2    1.8723E+05 -6.7288E+02   1.8790E+05  0.000E+00  0.000E+00  0.000E+00  3.68417E+01  1.751E-01  2.000E+01  2.000E+04 -3.364E-02
   1   15   24     3     3    1.8790E+05 -3.9358E+02   1.8830E+05  0.000E+00  0.000E+00  0.000E+00  3.59531E+01  1.754E-01  2.000E+01  2.000E+04 -1.968E-02
   1   15   25     3     4    1.8830E+05 -3.8883E+02   1.8869E+05  0.000E+00  0.000E+00  0.000E+00  3.50645E+01  1.756E-01  2.000E+01  2.000E+04 -1.944E-02
   1   15   26     3     5    1.8869E+05 -4.5960E+02   1.8915E+05  0.000E+00  0.000E+00  0.000E+00  3.41758E+01  1.758E-01  2.000E+01  2.000E+04 -2.298E-02
   1   16   27     3     6    1.8915E+05 -5.1436E+02   1.8966E+05  0.000E+00  0.000E+00  0.000E+00  3.32872E+01  1.761E-01  2.000E+01  2.000E+04 -2.572E-02
   1   17   28     3     7    1.8966E+05 -1.9842E+03   1.9164E+05  0.000E+00  0.000E+00  0.000E+00  3.23990E+01  1.768E-01  2.000E+01  2.000E+04 -9.921E-02
   1   18   29     3     8    1.9164E+05 -3.3933E+03   1.9504E+05  0.000E+00  0.000E+00  0.000E+00  3.15116E+01  1.783E-01  2.000E+01  2.000E+04 -1.697E-01
   1   18   30     3     9    1.9504E+05 -3.5439E+03   1.9858E+05  0.000E+00  0.000E+00  0.000E+00  3.06246E+01  1.802E-01  2.000E+01  2.000E+04 -1.772E-01



1
              HEAD IN LAYER   1 AT END OF TIME STEP   1 IN STRESS PERIOD    6
  ---------------------------------------------------------------------------

          1      2      3      4      5      6      7      8      9     10
         11     12     13     14     15     16     17     18     19     20
         21     22     23     24     25     26     27     28     29     30
 .........................................................................
   1  ****** ****** ****** ****** ****** ****** ****** ****** ****** ******
      ****** ****** ****** ****** ****** ****** ****** ****** ****** ******
      ****** ****** ****** ****** ****** ****** ****** ****** ****** ******
   2  ****** ****** ****** ****** ****** ****** ****** ****** ****** ******
      ****** ****** ****** ****** ****** ****** ****** ****** ****** ******
      ****** ****** ****** ****** ****** ****** ****** ****** ****** ******
   3  ****** ****** ****** ****** ****** ****** ****** ****** ****** ******
      ****** ****** ****** ****** ****** ****** ****** ****** ****** ******
      ****** ****** ****** ****** ****** ****** ****** ****** ****** ******
   4  ****** ****** ****** ****** ****** ****** ****** ****** ****** ******
      ****** ****** ****** ****** ****** ****** ****** ****** ****** ******
      ****** ****** ****** ****** ****** ****** ****** ****** ****** ******
   5  ****** ****** ****** ****** ****** ****** ****** ****** ****** ******
      ****** ****** ****** ****** ****** ****** ****** ****** ****** ******
      ****** ****** ****** ****** ****** ****** ****** ****** ****** ******
   6  ****** ****** ****** ****** ****** ****** ****** ****** ****** ******
      ****** ****** ****** ****** ****** ****** ****** ****** ****** ******
      ****** ****** ****** ****** ****** ****** ****** ****** ****** ******
   7  ****** ****** ****** ****** ****** ****** ****** ****** ****** ******
      ****** ****** ****** ****** ****** ****** ****** ****** ****** ******
      ****** ****** ****** ****** ****** ****** ****** ****** ****** ******
   8  ****** ****** ****** ****** ****** ****** ****** ****** ****** ******
      ****** ****** ****** ****** ****** ****** ****** ****** ****** ******
      ****** ****** ****** ****** ****** ****** ****** ****** ****** ******
   9  ****** ****** ****** ****** ****** ****** ****** ****** ****** ******
      ****** ****** ****** ****** ****** ****** ****** ****** ****** ******
      ****** ****** ****** ****** ****** ****** ****** ****** ****** ******
  10  ****** ****** ****** ****** ****** ****** ****** ****** ****** ******
      ****** ****** ****** ****** ****** ****** ****** ****** ****** ******
      ****** ****** ****** ****** ****** ****** ****** ****** ****** ******
  11  ****** ****** ****** ****** ****** ****** ****** ****** ****** ******
      ****** ****** ****** ****** ****** ****** ****** ****** ****** ******
      ****** ****** ****** ****** ****** ****** ****** ****** ****** ******
  12  ****** ****** ****** ****** ****** ****** ****** ****** ****** ******
      ****** ****** ****** ****** ****** ****** ****** ****** ****** ******
      ****** ****** ****** ****** ****** ****** ****** ****** ****** ******
  13  ****** ****** ****** ****** ****** ****** ****** ****** ****** ******
      ****** ****** ****** ****** ****** ****** ****** ****** ****** ******
      ****** ****** ****** ****** ****** ****** ****** ****** ****** ******
  14  ****** ****** ****** ****** ****** ****** ****** ****** ****** ******
      ****** ****** ****** ****** ****** ****** ****** ****** ****** ******
      ****** ****** ****** ****** ****** ****** ****** ****** ****** ******
  15  ****** ****** ****** ****** ****** ****** ****** ****** ****** ******
      ****** ****** ****** ****** ****** ****** ****** ****** ****** ******
      ****** ****** ****** ****** ****** ****** ****** ****** ****** ******
  16  ****** ****** ****** ****** ****** ****** ****** ****** ****** ******
      ****** ****** ****** ****** ****** ****** ****** ****** ****** ******
      ****** ****** ****** ****** ****** ****** ****** ****** ****** ******
  17  ****** ****** ****** ****** ****** ****** ****** ****** ****** ******
      ****** ****** ****** ****** ****** ****** ****** ****** ****** ******
      ****** ****** ****** ****** ****** ****** ****** ****** ****** ******
  18  ****** ****** ****** ****** ****** ****** ****** ****** ****** ******
      ****** ****** ****** ****** ****** ****** ****** ****** ****** ******
      ****** ****** ****** ****** ****** ****** ****** ****** ****** ******
  19  ****** ****** ****** ****** ****** ****** ****** ****** ****** ******
      ****** ****** ****** ****** ****** ****** ****** ****** ****** ******
      ****** ****** ****** ****** ****** ****** ****** ****** ****** ******
  20  ****** ****** ****** ****** ****** ****** ****** ****** ****** ******
      ****** ****** ****** ****** ****** ****** ****** ****** ****** ******
      ****** ****** ****** ****** ****** ****** ****** ****** ****** ******
  21  ****** ****** ****** ****** ****** ****** ****** ****** ****** ******
      ****** ****** ****** ****** ****** ****** ****** ****** ****** ******
      ****** ****** ****** ****** ****** ****** ****** ****** ****** ******
  22  ****** ****** ****** ****** ****** ****** ****** ****** ****** ******
      ****** ****** ****** ****** ****** ****** ****** ****** ****** ******
      ****** ****** ****** ****** ****** ****** ****** ****** ****** ******
  23  ****** ****** ****** ****** ****** ****** ****** ****** ****** ******
      ****** ****** ****** ****** ****** ****** ****** ****** ****** ******
      ****** ****** ****** ****** ****** ****** ****** ****** ****** ******
  24  ****** ****** ****** ****** ****** ****** ****** ****** ****** ******
      ****** ****** ****** ****** ****** ****** ****** ****** ****** ******
      ****** ****** ****** ****** ****** ****** ****** ****** ****** ******
  25  ****** ****** ****** ****** ****** ****** ****** ****** ****** ******
      ****** ****** ****** ****** ****** ****** ****** ****** ****** ******
      ****** ****** ****** ****** ****** ****** ****** ****** ****** ******

 HEAD WILL BE SAVED ON UNIT   51 AT END OF TIME STEP    1, STRESS PERIOD    6
1
  VOLUMETRIC BUDGET FOR ENTIRE MODEL AT END OF TIME STEP    1, STRESS PERIOD   6
  ------------------------------------------------------------------------------

     CUMULATIVE VOLUMES      L**3       RATES FOR THIS TIME STEP      L**3/T
     ------------------                 ------------------------

           IN:                                      IN:
           ---                                      ---
             STORAGE =    31093272.1719               STORAGE =           0.9937
       CONSTANT HEAD =    13434424.0581         CONSTANT HEAD =       29934.3206
               WELLS =           0.0000                 WELLS =           0.0000
            RECHARGE =    15097200.0000              RECHARGE =       55200.0000
      STREAM LEAKAGE =     3858070.6929        STREAM LEAKAGE =        8061.9248

            TOTAL IN =    63482966.9230              TOTAL IN =       93197.2390

          OUT:                                     OUT:
          ----                                     ----
             STORAGE =      773150.1898               STORAGE =        8482.7196
       CONSTANT HEAD =           0.0000         CONSTANT HEAD =           0.0000
               WELLS =    15382787.2267                 WELLS =       28070.7796
            RECHARGE =           0.0000              RECHARGE =           0.0000
      STREAM LEAKAGE =    47327031.7152        STREAM LEAKAGE =       56643.7369

           TOTAL OUT =    63482969.1316             TOTAL OUT =       93197.2361

            IN - OUT =          -2.2086              IN - OUT =       2.9745E-03

 PERCENT DISCREPANCY =          -0.00     PERCENT DISCREPANCY =           0.00






         TIME SUMMARY AT END OF TIME STEP    1 IN STRESS PERIOD    6
                    SECONDS     MINUTES      HOURS       DAYS        YEARS
                    -----------------------------------------------------------
   TIME STEP LENGTH 7.86240E+06 1.31040E+05  2184.0      91.000     0.24914    
 STRESS PERIOD TIME 7.86240E+06 1.31040E+05  2184.0      91.000     0.24914    
         TOTAL TIME 4.73472E+07 7.89120E+05  13152.      548.00      1.5003    
1
1
                            STRESS PERIOD NO.    7, LENGTH =   91.00000    
                            -----------------------------------------------

                              NUMBER OF TIME STEPS =     1

                               MULTIPLIER FOR DELT =     1.500

                            INITIAL TIME STEP SIZE =   91.00000    

 WELL NO.  LAYER   ROW   COL   STRESS RATE         
 --------------------------------------------------
      1      1     16      2      -8562.    
      2      1     23     16      -2065.    
      3      1     13     14      -8503.    
      4      1      6     16      -8940.    

      4 WELLS

                 RECHARGE =   0.00000    

 REUSING STREAM SEGMENT DATA FROM LAST STRESS PERIOD
 
 SOLVING FOR HEAD 


     7 CALLS TO PCG ROUTINE FOR TIME STEP   1 IN STRESS PERIOD    7
    26 TOTAL ITERATIONS

 OUTPUT CONTROL FOR STRESS PERIOD    7   TIME STEP    1
    SAVE BUDGET
    SAVE HEAD FOR ALL LAYERS
    PRINT HEAD FOR ALL LAYERS
 UBDSV2 SAVING "STREAMFLOW OUT  " ON UNIT  50 AT TIME STEP  1, STRESS PERIOD   7



 STREAM LISTING     PERIOD      7   STEP        1

 LAYER ROW COL. STREAM  RCH.  FLOW INTO     FLOW TO   FLOW OUT OF   OVRLND.     DIRECT     STREAM       STREAM     STREAM     STREAM   STREAMBED  STREAMBED
                SEG.NO.  NO.  STRM. RCH.    AQUIFER    STRM. RCH.    RUNOFF     PRECIP       ET          HEAD       DEPTH      WIDTH   CONDCTNC.   GRADIENT

   1   13    1     1     1    1.0000E+05 -1.4071E+02   1.0014E+05  0.000E+00  0.000E+00  0.000E+00  4.84061E+01  1.447E-01  2.000E+01  2.000E+04 -7.035E-03
   1   13    2     1     2    1.0014E+05 -1.0839E+03   1.0122E+05  0.000E+00  0.000E+00  0.000E+00  4.79293E+01  1.452E-01  2.000E+01  2.000E+04 -5.419E-02
   1   14    3     1     3    1.0122E+05  1.0668E+02   1.0112E+05  0.000E+00  0.000E+00  0.000E+00  4.74525E+01  1.457E-01  2.000E+01  2.000E+04  5.334E-03
   1   15    4     1     4    1.0112E+05  1.4733E+02   1.0097E+05  0.000E+00  0.000E+00  0.000E+00  4.69751E+01  1.456E-01  2.000E+01  2.000E+04  7.366E-03
   1   16    5     1     5    1.0097E+05  8.7612E+02   1.0009E+05  0.000E+00  0.000E+00  0.000E+00  4.64974E+01  1.451E-01  2.000E+01  2.000E+04  4.381E-02
   1   16    6     1     6    1.0009E+05 -4.0668E+02   1.0050E+05  0.000E+00  0.000E+00  0.000E+00  4.60199E+01  1.449E-01  2.000E+01  2.000E+04 -2.033E-02
   1   16    7     1     7    1.0050E+05 -6.0096E+02   1.0110E+05  0.000E+00  0.000E+00  0.000E+00  4.55431E+01  1.453E-01  2.000E+01  2.000E+04 -3.005E-02
   1   16    8     1     8    1.0110E+05 -6.8985E+02   1.0179E+05  0.000E+00  0.000E+00  0.000E+00  4.50664E+01  1.459E-01  2.000E+01  2.000E+04 -3.449E-02
   1   16    9     1     9    1.0179E+05 -7.3153E+02   1.0252E+05  0.000E+00  0.000E+00  0.000E+00  4.45897E+01  1.465E-01  2.000E+01  2.000E+04 -3.658E-02
   1   16   10     1    10    1.0252E+05 -7.4393E+02   1.0327E+05  0.000E+00  0.000E+00  0.000E+00  4.41131E+01  1.472E-01  2.000E+01  2.000E+04 -3.720E-02
   1   16   11     1    11    1.0327E+05 -7.4952E+02   1.0402E+05  0.000E+00  0.000E+00  0.000E+00  4.36364E+01  1.478E-01  2.000E+01  2.000E+04 -3.748E-02
   1   16   12     1    12    1.0402E+05 -1.1841E+03   1.0520E+05  0.000E+00  0.000E+00  0.000E+00  4.31600E+01  1.486E-01  2.000E+01  2.000E+04 -5.921E-02
   1   15   13     1    13    1.0520E+05 -5.9947E+02   1.0580E+05  0.000E+00  0.000E+00  0.000E+00  4.26835E+01  1.494E-01  2.000E+01  2.000E+04 -2.997E-02
   1   14   14     1    14    1.0580E+05  1.6552E+03   1.0415E+05  0.000E+00  0.000E+00  0.000E+00  4.22057E+01  1.489E-01  2.000E+01  2.000E+04  8.276E-02
   1   13   15     1    15    1.0415E+05  1.4774E+03   1.0267E+05  0.000E+00  0.000E+00  0.000E+00  4.17271E+01  1.476E-01  2.000E+01  2.000E+04  7.387E-02
   1   12   16     1    16    1.0267E+05 -1.2179E+03   1.0389E+05  0.000E+00  0.000E+00  0.000E+00  4.12498E+01  1.475E-01  2.000E+01  2.000E+04 -6.090E-02
   1   12   17     1    17    1.0389E+05 -1.0912E+03   1.0498E+05  0.000E+00  0.000E+00  0.000E+00  4.07735E+01  1.485E-01  2.000E+01  2.000E+04 -5.456E-02
   1   12   18     1    18    1.0498E+05 -1.1326E+03   1.0611E+05  0.000E+00  0.000E+00  0.000E+00  4.02971E+01  1.494E-01  2.000E+01  2.000E+04 -5.663E-02
   1   12   19     1    19    1.0611E+05 -1.5886E+03   1.0770E+05  0.000E+00  0.000E+00  0.000E+00  3.98210E+01  1.506E-01  2.000E+01  2.000E+04 -7.943E-02
   1   13   20     1    20    1.0770E+05 -1.3645E+03   1.0906E+05  0.000E+00  0.000E+00  0.000E+00  3.93450E+01  1.518E-01  2.000E+01  2.000E+04 -6.823E-02
   1   14   21     1    21    1.0906E+05 -1.3523E+03   1.1042E+05  0.000E+00  0.000E+00  0.000E+00  3.88689E+01  1.529E-01  2.000E+01  2.000E+04 -6.762E-02
   1   14   22     1    22    1.1042E+05  4.8060E+03   1.0561E+05  0.000E+00  0.000E+00  0.000E+00  3.83901E+01  1.515E-01  2.000E+01  2.000E+04  2.403E-01
   1    9   30     2     1    5.0000E+04 -4.3380E+02   5.0434E+04  0.000E+00  0.000E+00  0.000E+00  4.02412E+01  1.162E-01  2.000E+01  2.000E+04 -2.169E-02
   1    9   29     2     2    5.0434E+04 -7.2461E+02   5.1158E+04  0.000E+00  0.000E+00  0.000E+00  3.99920E+01  1.170E-01  2.000E+01  2.000E+04 -3.623E-02
   1    9   28     2     3    5.1158E+04 -9.5598E+02   5.2114E+04  0.000E+00  0.000E+00  0.000E+00  3.97431E+01  1.181E-01  2.000E+01  2.000E+04 -4.780E-02
   1    9   27     2     4    5.2114E+04 -2.0214E+03   5.4136E+04  0.000E+00  0.000E+00  0.000E+00  3.94952E+01  1.202E-01  2.000E+01  2.000E+04 -1.011E-01
   1   10   26     2     5    5.4136E+04 -1.2275E+03   5.5363E+04  0.000E+00  0.000E+00  0.000E+00  3.92473E+01  1.223E-01  2.000E+01  2.000E+04 -6.137E-02
   1   11   25     2     6    5.5363E+04 -1.0280E+03   5.6391E+04  0.000E+00  0.000E+00  0.000E+00  3.89989E+01  1.239E-01  2.000E+01  2.000E+04 -5.140E-02
   1   12   24     2     7    5.6391E+04 -1.1043E+03   5.7496E+04  0.000E+00  0.000E+00  0.000E+00  3.87503E+01  1.253E-01  2.000E+01  2.000E+04 -5.522E-02
   1   13   23     2     8    5.7496E+04 -1.5038E+02   5.7646E+04  0.000E+00  0.000E+00  0.000E+00  3.85011E+01  1.261E-01  2.000E+01  2.000E+04 -7.519E-03
   1   14   22     2     9    5.7646E+04  2.0008E+03   5.5645E+04  0.000E+00  0.000E+00  0.000E+00  3.82499E+01  1.249E-01  2.000E+01  2.000E+04  1.000E-01
   1   14   22     3     1    1.6125E+05 -8.6368E+03   1.6989E+05  0.000E+00  0.000E+00  0.000E+00  3.77180E+01  1.624E-01  2.000E+01  2.000E+04 -4.318E-01
   1   15   23     3     2    1.6989E+05 -4.6734E+02   1.7036E+05  0.000E+00  0.000E+00  0.000E+00  3.68318E+01  1.651E-01  2.000E+01  2.000E+04 -2.337E-02
   1   15   24     3     3    1.7036E+05 -2.2053E+02   1.7058E+05  0.000E+00  0.000E+00  0.000E+00  3.59431E+01  1.653E-01  2.000E+01  2.000E+04 -1.103E-02
   1   15   25     3     4    1.7058E+05 -2.1268E+02   1.7079E+05  0.000E+00  0.000E+00  0.000E+00  3.50543E+01  1.654E-01  2.000E+01  2.000E+04 -1.063E-02
   1   15   26     3     5    1.7079E+05 -2.5878E+02   1.7105E+05  0.000E+00  0.000E+00  0.000E+00  3.41656E+01  1.656E-01  2.000E+01  2.000E+04 -1.294E-02
   1   16   27     3     6    1.7105E+05 -2.8270E+02   1.7133E+05  0.000E+00  0.000E+00  0.000E+00  3.32768E+01  1.657E-01  2.000E+01  2.000E+04 -1.414E-02
   1   17   28     3     7    1.7133E+05 -1.3451E+03   1.7268E+05  0.000E+00  0.000E+00  0.000E+00  3.23884E+01  1.662E-01  2.000E+01  2.000E+04 -6.725E-02
   1   18   29     3     8    1.7268E+05 -2.7119E+03   1.7539E+05  0.000E+00  0.000E+00  0.000E+00  3.15007E+01  1.674E-01  2.000E+01  2.000E+04 -1.356E-01
   1   18   30     3     9    1.7539E+05 -3.0183E+03   1.7841E+05  0.000E+00  0.000E+00  0.000E+00  3.06135E+01  1.690E-01  2.000E+01  2.000E+04 -1.509E-01



1
              HEAD IN LAYER   1 AT END OF TIME STEP   1 IN STRESS PERIOD    7
  ---------------------------------------------------------------------------

          1      2      3      4      5      6      7      8      9     10
         11     12     13     14     15     16     17     18     19     20
         21     22     23     24     25     26     27     28     29     30
 .........................................................................
   1  ****** ****** ****** ****** ****** ****** ****** ****** ****** ******
      ****** ****** ****** ****** ****** ****** ****** ****** ****** ******
      ****** ****** ****** ****** ****** ****** ****** ****** ****** ******
   2  ****** ****** ****** ****** ****** ****** ****** ****** ****** ******
      ****** ****** ****** ****** ****** ****** ****** ****** ****** ******
      ****** ****** ****** ****** ****** ****** ****** ****** ****** ******
   3  ****** ****** ****** ****** ****** ****** ****** ****** ****** ******
      ****** ****** ****** ****** ****** ****** ****** ****** ****** ******
      ****** ****** ****** ****** ****** ****** ****** ****** ****** ******
   4  ****** ****** ****** ****** ****** ****** ****** ****** ****** ******
      ****** ****** ****** ****** ****** ****** ****** ****** ****** ******
      ****** ****** ****** ****** ****** ****** ****** ****** ****** ******
   5  ****** ****** ****** ****** ****** ****** ****** ****** ****** ******
      ****** ****** ****** ****** ****** ****** ****** ****** ****** ******
      ****** ****** ****** ****** ****** ****** ****** ****** ****** ******
   6  ****** ****** ****** ****** ****** ****** ****** ****** ****** ******
      ****** ****** ****** ****** ****** ****** ****** ****** ****** ******
      ****** ****** ****** ****** ****** ****** ****** ****** ****** ******
   7  ****** ****** ****** ****** ****** ****** ****** ****** ****** ******
      ****** ****** ****** ****** ****** ****** ****** ****** ****** ******
      ****** ****** ****** ****** ****** ****** ****** ****** ****** ******
   8  ****** ****** ****** ****** ****** ****** ****** ****** ****** ******
      ****** ****** ****** ****** ****** ****** ****** ****** ****** ******
      ****** ****** ****** ****** ****** ****** ****** ****** ****** ******
   9  ****** ****** ****** ****** ****** ****** ****** ****** ****** ******
      ****** ****** ****** ****** ****** ****** ****** ****** ****** ******
      ****** ****** ****** ****** ****** ****** ****** ****** ****** ******
  10  ****** ****** ****** ****** ****** ****** ****** ****** ****** ******
      ****** ****** ****** ****** ****** ****** ****** ****** ****** ******
      ****** ****** ****** ****** ****** ****** ****** ****** ****** ******
  11  ****** ****** ****** ****** ****** ****** ****** ****** ****** ******
      ****** ****** ****** ****** ****** ****** ****** ****** ****** ******
      ****** ****** ****** ****** ****** ****** ****** ****** ****** ******
  12  ****** ****** ****** ****** ****** ****** ****** ****** ****** ******
      ****** ****** ****** ****** ****** ****** ****** ****** ****** ******
      ****** ****** ****** ****** ****** ****** ****** ****** ****** ******
  13  ****** ****** ****** ****** ****** ****** ****** ****** ****** ******
      ****** ****** ****** ****** ****** ****** ****** ****** ****** ******
      ****** ****** ****** ****** ****** ****** ****** ****** ****** ******
  14  ****** ****** ****** ****** ****** ****** ****** ****** ****** ******
      ****** ****** ****** ****** ****** ****** ****** ****** ****** ******
      ****** ****** ****** ****** ****** ****** ****** ****** ****** ******
  15  ****** ****** ****** ****** ****** ****** ****** ****** ****** ******
      ****** ****** ****** ****** ****** ****** ****** ****** ****** ******
      ****** ****** ****** ****** ****** ****** ****** ****** ****** ******
  16  ****** ****** ****** ****** ****** ****** ****** ****** ****** ******
      ****** ****** ****** ****** ****** ****** ****** ****** ****** ******
      ****** ****** ****** ****** ****** ****** ****** ****** ****** ******
  17  ****** ****** ****** ****** ****** ****** ****** ****** ****** ******
      ****** ****** ****** ****** ****** ****** ****** ****** ****** ******
      ****** ****** ****** ****** ****** ****** ****** ****** ****** ******
  18  ****** ****** ****** ****** ****** ****** ****** ****** ****** ******
      ****** ****** ****** ****** ****** ****** ****** ****** ****** ******
      ****** ****** ****** ****** ****** ****** ****** ****** ****** ******
  19  ****** ****** ****** ****** ****** ****** ****** ****** ****** ******
      ****** ****** ****** ****** ****** ****** ****** ****** ****** ******
      ****** ****** ****** ****** ****** ****** ****** ****** ****** ******
  20  ****** ****** ****** ****** ****** ****** ****** ****** ****** ******
      ****** ****** ****** ****** ****** ****** ****** ****** ****** ******
      ****** ****** ****** ****** ****** ****** ****** ****** ****** ******
  21  ****** ****** ****** ****** ****** ****** ****** ****** ****** ******
      ****** ****** ****** ****** ****** ****** ****** ****** ****** ******
      ****** ****** ****** ****** ****** ****** ****** ****** ****** ******
  22  ****** ****** ****** ****** ****** ****** ****** ****** ****** ******
      ****** ****** ****** ****** ****** ****** ****** ****** ****** ******
      ****** ****** ****** ****** ****** ****** ****** ****** ****** ******
  23  ****** ****** ****** ****** ****** ****** ****** ****** ****** ******
      ****** ****** ****** ****** ****** ****** ****** ****** ****** ******
      ****** ****** ****** ****** ****** ****** ****** ****** ****** ******
  24  ****** ****** ****** ****** ****** ****** ****** ****** ****** ******
      ****** ****** ****** ****** ****** ****** ****** ****** ****** ******
      ****** ****** ****** ****** ****** ****** ****** ****** ****** ******
  25  ****** ****** ****** ****** ****** ****** ****** ****** ****** ******
      ****** ****** ****** ****** ****** ****** ****** ****** ****** ******
      ****** ****** ****** ****** ****** ****** ****** ****** ****** ******

 HEAD WILL BE SAVED ON UNIT   51 AT END OF TIME STEP    1, STRESS PERIOD    7
1
  VOLUMETRIC BUDGET FOR ENTIRE MODEL AT END OF TIME STEP    1, STRESS PERIOD   7
  ------------------------------------------------------------------------------

     CUMULATIVE VOLUMES      L**3       RATES FOR THIS TIME STEP      L**3/T
     ------------------                 ------------------------

           IN:                                      IN:
           ---                                      ---
             STORAGE =    33149269.1441               STORAGE =       22593.3733
       CONSTANT HEAD =    16518016.6561         CONSTANT HEAD =       33885.6329
               WELLS =           0.0000                 WELLS =           0.0000
            RECHARGE =    15097200.0000              RECHARGE =           0.0000
      STREAM LEAKAGE =     4865403.9647        STREAM LEAKAGE =       11069.5964

            TOTAL IN =    69629889.7648              TOTAL IN =       67548.6027

          OUT:                                     OUT:
          ----                                     ----
             STORAGE =      773150.1898               STORAGE =           0.0000
       CONSTANT HEAD =           0.0000         CONSTANT HEAD =           0.0000
               WELLS =    17937228.1713                 WELLS =       28070.7796
            RECHARGE =           0.0000              RECHARGE =           0.0000
      STREAM LEAKAGE =    50919514.1461        STREAM LEAKAGE =       39477.8289

           TOTAL OUT =    69629892.5071             TOTAL OUT =       67548.6085

            IN - OUT =          -2.7423              IN - OUT =      -5.8647E-03

 PERCENT DISCREPANCY =          -0.00     PERCENT DISCREPANCY =          -0.00






         TIME SUMMARY AT END OF TIME STEP    1 IN STRESS PERIOD    7
                    SECONDS     MINUTES      HOURS       DAYS        YEARS
                    -----------------------------------------------------------
   TIME STEP LENGTH 7.86240E+06 1.31040E+05  2184.0      91.000     0.24914    
 STRESS PERIOD TIME 7.86240E+06 1.31040E+05  2184.0      91.000     0.24914    
         TOTAL TIME 5.52096E+07 9.20160E+05  15336.      639.00      1.7495    
1
1
                            STRESS PERIOD NO.    8, LENGTH =   91.00000    
                            -----------------------------------------------

                              NUMBER OF TIME STEPS =     1

                               MULTIPLIER FOR DELT =     1.500

                            INITIAL TIME STEP SIZE =   91.00000    

 WELL NO.  LAYER   ROW   COL   STRESS RATE         
 --------------------------------------------------
      1      1     16      2      -8562.    
      2      1     23     16      -2065.    
      3      1     13     14      -8503.    
      4      1      6     16      -8940.    

      4 WELLS

                 RECHARGE =  1.000000E-03

 REUSING STREAM SEGMENT DATA FROM LAST STRESS PERIOD
 
 SOLVING FOR HEAD 


     6 CALLS TO PCG ROUTINE FOR TIME STEP   1 IN STRESS PERIOD    8
    22 TOTAL ITERATIONS

 OUTPUT CONTROL FOR STRESS PERIOD    8   TIME STEP    1
    SAVE BUDGET
    SAVE HEAD FOR ALL LAYERS
    PRINT HEAD FOR ALL LAYERS
 UBDSV2 SAVING "STREAMFLOW OUT  " ON UNIT  50 AT TIME STEP  1, STRESS PERIOD   8



 STREAM LISTING     PERIOD      8   STEP        1

 LAYER ROW COL. STREAM  RCH.  FLOW INTO     FLOW TO   FLOW OUT OF   OVRLND.     DIRECT     STREAM       STREAM     STREAM     STREAM   STREAMBED  STREAMBED
                SEG.NO.  NO.  STRM. RCH.    AQUIFER    STRM. RCH.    RUNOFF     PRECIP       ET          HEAD       DEPTH      WIDTH   CONDCTNC.   GRADIENT

   1   13    1     1     1    1.0000E+05 -2.0794E+02   1.0021E+05  0.000E+00  0.000E+00  0.000E+00  4.84061E+01  1.447E-01  2.000E+01  2.000E+04 -1.040E-02
   1   13    2     1     2    1.0021E+05 -1.1497E+03   1.0136E+05  0.000E+00  0.000E+00  0.000E+00  4.79294E+01  1.453E-01  2.000E+01  2.000E+04 -5.749E-02
   1   14    3     1     3    1.0136E+05  4.3811E+01   1.0131E+05  0.000E+00  0.000E+00  0.000E+00  4.74526E+01  1.458E-01  2.000E+01  2.000E+04  2.191E-03
   1   15    4     1     4    1.0131E+05  7.9719E+01   1.0123E+05  0.000E+00  0.000E+00  0.000E+00  4.69753E+01  1.458E-01  2.000E+01  2.000E+04  3.986E-03
   1   16    5     1     5    1.0123E+05  7.0487E+02   1.0053E+05  0.000E+00  0.000E+00  0.000E+00  4.64977E+01  1.454E-01  2.000E+01  2.000E+04  3.524E-02
   1   16    6     1     6    1.0053E+05 -5.1203E+02   1.0104E+05  0.000E+00  0.000E+00  0.000E+00  4.60203E+01  1.453E-01  2.000E+01  2.000E+04 -2.560E-02
   1   16    7     1     7    1.0104E+05 -7.0141E+02   1.0174E+05  0.000E+00  0.000E+00  0.000E+00  4.55436E+01  1.459E-01  2.000E+01  2.000E+04 -3.507E-02
   1   16    8     1     8    1.0174E+05 -7.8961E+02   1.0253E+05  0.000E+00  0.000E+00  0.000E+00  4.50670E+01  1.465E-01  2.000E+01  2.000E+04 -3.948E-02
   1   16    9     1     9    1.0253E+05 -8.3266E+02   1.0337E+05  0.000E+00  0.000E+00  0.000E+00  4.45904E+01  1.472E-01  2.000E+01  2.000E+04 -4.163E-02
   1   16   10     1    10    1.0337E+05 -8.4787E+02   1.0421E+05  0.000E+00  0.000E+00  0.000E+00  4.41138E+01  1.479E-01  2.000E+01  2.000E+04 -4.239E-02
   1   16   11     1    11    1.0421E+05 -8.5690E+02   1.0507E+05  0.000E+00  0.000E+00  0.000E+00  4.36373E+01  1.486E-01  2.000E+01  2.000E+04 -4.284E-02
   1   16   12     1    12    1.0507E+05 -1.3447E+03   1.0641E+05  0.000E+00  0.000E+00  0.000E+00  4.31609E+01  1.496E-01  2.000E+01  2.000E+04 -6.724E-02
   1   15   13     1    13    1.0641E+05 -7.6541E+02   1.0718E+05  0.000E+00  0.000E+00  0.000E+00  4.26846E+01  1.505E-01  2.000E+01  2.000E+04 -3.827E-02
   1   14   14     1    14    1.0718E+05  1.4975E+03   1.0568E+05  0.000E+00  0.000E+00  0.000E+00  4.22070E+01  1.502E-01  2.000E+01  2.000E+04  7.488E-02
   1   13   15     1    15    1.0568E+05  1.3337E+03   1.0435E+05  0.000E+00  0.000E+00  0.000E+00  4.17285E+01  1.490E-01  2.000E+01  2.000E+04  6.669E-02
   1   12   16     1    16    1.0435E+05 -1.3213E+03   1.0567E+05  0.000E+00  0.000E+00  0.000E+00  4.12512E+01  1.490E-01  2.000E+01  2.000E+04 -6.607E-02
   1   12   17     1    17    1.0567E+05 -1.1987E+03   1.0687E+05  0.000E+00  0.000E+00  0.000E+00  4.07750E+01  1.500E-01  2.000E+01  2.000E+04 -5.993E-02
   1   12   18     1    18    1.0687E+05 -1.2475E+03   1.0812E+05  0.000E+00  0.000E+00  0.000E+00  4.02988E+01  1.511E-01  2.000E+01  2.000E+04 -6.237E-02
   1   12   19     1    19    1.0812E+05 -1.7335E+03   1.0985E+05  0.000E+00  0.000E+00  0.000E+00  3.98228E+01  1.523E-01  2.000E+01  2.000E+04 -8.667E-02
   1   13   20     1    20    1.0985E+05 -1.5414E+03   1.1139E+05  0.000E+00  0.000E+00  0.000E+00  3.93469E+01  1.537E-01  2.000E+01  2.000E+04 -7.707E-02
   1   14   21     1    21    1.1139E+05 -1.5114E+03   1.1290E+05  0.000E+00  0.000E+00  0.000E+00  3.88709E+01  1.550E-01  2.000E+01  2.000E+04 -7.557E-02
   1   14   22     1    22    1.1290E+05  4.7589E+03   1.0814E+05  0.000E+00  0.000E+00  0.000E+00  3.83922E+01  1.536E-01  2.000E+01  2.000E+04  2.379E-01
   1    9   30     2     1    5.0000E+04 -5.9605E+02   5.0596E+04  0.000E+00  0.000E+00  0.000E+00  4.02413E+01  1.163E-01  2.000E+01  2.000E+04 -2.980E-02
   1    9   29     2     2    5.0596E+04 -8.8399E+02   5.1480E+04  0.000E+00  0.000E+00  0.000E+00  3.99923E+01  1.173E-01  2.000E+01  2.000E+04 -4.420E-02
   1    9   28     2     3    5.1480E+04 -1.1096E+03   5.2590E+04  0.000E+00  0.000E+00  0.000E+00  3.97437E+01  1.187E-01  2.000E+01  2.000E+04 -5.548E-02
   1    9   27     2     4    5.2590E+04 -2.1967E+03   5.4786E+04  0.000E+00  0.000E+00  0.000E+00  3.94959E+01  1.209E-01  2.000E+01  2.000E+04 -1.098E-01
   1   10   26     2     5    5.4786E+04 -1.4303E+03   5.6217E+04  0.000E+00  0.000E+00  0.000E+00  3.92484E+01  1.234E-01  2.000E+01  2.000E+04 -7.152E-02
   1   11   25     2     6    5.6217E+04 -1.2295E+03   5.7446E+04  0.000E+00  0.000E+00  0.000E+00  3.90001E+01  1.251E-01  2.000E+01  2.000E+04 -6.147E-02
   1   12   24     2     7    5.7446E+04 -1.2870E+03   5.8733E+04  0.000E+00  0.000E+00  0.000E+00  3.87518E+01  1.268E-01  2.000E+01  2.000E+04 -6.435E-02
   1   13   23     2     8    5.8733E+04 -2.2432E+02   5.8957E+04  0.000E+00  0.000E+00  0.000E+00  3.85028E+01  1.278E-01  2.000E+01  2.000E+04 -1.122E-02
   1   14   22     2     9    5.8957E+04  1.9469E+03   5.7011E+04  0.000E+00  0.000E+00  0.000E+00  3.82516E+01  1.266E-01  2.000E+01  2.000E+04  9.734E-02
   1   14   22     3     1    1.6515E+05 -8.6800E+03   1.7383E+05  0.000E+00  0.000E+00  0.000E+00  3.77203E+01  1.647E-01  2.000E+01  2.000E+04 -4.340E-01
   1   15   23     3     2    1.7383E+05 -5.3187E+02   1.7437E+05  0.000E+00  0.000E+00  0.000E+00  3.68341E+01  1.674E-01  2.000E+01  2.000E+04 -2.659E-02
   1   15   24     3     3    1.7437E+05 -2.8126E+02   1.7465E+05  0.000E+00  0.000E+00  0.000E+00  3.59454E+01  1.676E-01  2.000E+01  2.000E+04 -1.406E-02
   1   15   25     3     4    1.7465E+05 -2.7511E+02   1.7492E+05  0.000E+00  0.000E+00  0.000E+00  3.50567E+01  1.678E-01  2.000E+01  2.000E+04 -1.376E-02
   1   15   26     3     5    1.7492E+05 -3.3357E+02   1.7526E+05  0.000E+00  0.000E+00  0.000E+00  3.41680E+01  1.680E-01  2.000E+01  2.000E+04 -1.668E-02
   1   16   27     3     6    1.7526E+05 -3.6478E+02   1.7562E+05  0.000E+00  0.000E+00  0.000E+00  3.32793E+01  1.682E-01  2.000E+01  2.000E+04 -1.824E-02
   1   17   28     3     7    1.7562E+05 -1.5497E+03   1.7717E+05  0.000E+00  0.000E+00  0.000E+00  3.23910E+01  1.687E-01  2.000E+01  2.000E+04 -7.748E-02
   1   18   29     3     8    1.7717E+05 -2.8791E+03   1.8005E+05  0.000E+00  0.000E+00  0.000E+00  3.15033E+01  1.700E-01  2.000E+01  2.000E+04 -1.440E-01
   1   18   30     3     9    1.8005E+05 -3.1661E+03   1.8322E+05  0.000E+00  0.000E+00  0.000E+00  3.06162E+01  1.717E-01  2.000E+01  2.000E+04 -1.583E-01



1
              HEAD IN LAYER   1 AT END OF TIME STEP   1 IN STRESS PERIOD    8
  ---------------------------------------------------------------------------

          1      2      3      4      5      6      7      8      9     10
         11     12     13     14     15     16     17     18     19     20
         21     22     23     24     25     26     27     28     29     30
 .........................................................................
   1  ****** ****** ****** ****** ****** ****** ****** ****** ****** ******
      ****** ****** ****** ****** ****** ****** ****** ****** ****** ******
      ****** ****** ****** ****** ****** ****** ****** ****** ****** ******
   2  ****** ****** ****** ****** ****** ****** ****** ****** ****** ******
      ****** ****** ****** ****** ****** ****** ****** ****** ****** ******
      ****** ****** ****** ****** ****** ****** ****** ****** ****** ******
   3  ****** ****** ****** ****** ****** ****** ****** ****** ****** ******
      ****** ****** ****** ****** ****** ****** ****** ****** ****** ******
      ****** ****** ****** ****** ****** ****** ****** ****** ****** ******
   4  ****** ****** ****** ****** ****** ****** ****** ****** ****** ******
      ****** ****** ****** ****** ****** ****** ****** ****** ****** ******
      ****** ****** ****** ****** ****** ****** ****** ****** ****** ******
   5  ****** ****** ****** ****** ****** ****** ****** ****** ****** ******
      ****** ****** ****** ****** ****** ****** ****** ****** ****** ******
      ****** ****** ****** ****** ****** ****** ****** ****** ****** ******
   6  ****** ****** ****** ****** ****** ****** ****** ****** ****** ******
      ****** ****** ****** ****** ****** ****** ****** ****** ****** ******
      ****** ****** ****** ****** ****** ****** ****** ****** ****** ******
   7  ****** ****** ****** ****** ****** ****** ****** ****** ****** ******
      ****** ****** ****** ****** ****** ****** ****** ****** ****** ******
      ****** ****** ****** ****** ****** ****** ****** ****** ****** ******
   8  ****** ****** ****** ****** ****** ****** ****** ****** ****** ******
      ****** ****** ****** ****** ****** ****** ****** ****** ****** ******
      ****** ****** ****** ****** ****** ****** ****** ****** ****** ******
   9  ****** ****** ****** ****** ****** ****** ****** ****** ****** ******
      ****** ****** ****** ****** ****** ****** ****** ****** ****** ******
      ****** ****** ****** ****** ****** ****** ****** ****** ****** ******
  10  ****** ****** ****** ****** ****** ****** ****** ****** ****** ******
      ****** ****** ****** ****** ****** ****** ****** ****** ****** ******
      ****** ****** ****** ****** ****** ****** ****** ****** ****** ******
  11  ****** ****** ****** ****** ****** ****** ****** ****** ****** ******
      ****** ****** ****** ****** ****** ****** ****** ****** ****** ******
      ****** ****** ****** ****** ****** ****** ****** ****** ****** ******
  12  ****** ****** ****** ****** ****** ****** ****** ****** ****** ******
      ****** ****** ****** ****** ****** ****** ****** ****** ****** ******
      ****** ****** ****** ****** ****** ****** ****** ****** ****** ******
  13  ****** ****** ****** ****** ****** ****** ****** ****** ****** ******
      ****** ****** ****** ****** ****** ****** ****** ****** ****** ******
      ****** ****** ****** ****** ****** ****** ****** ****** ****** ******
  14  ****** ****** ****** ****** ****** ****** ****** ****** ****** ******
      ****** ****** ****** ****** ****** ****** ****** ****** ****** ******
      ****** ****** ****** ****** ****** ****** ****** ****** ****** ******
  15  ****** ****** ****** ****** ****** ****** ****** ****** ****** ******
      ****** ****** ****** ****** ****** ****** ****** ****** ****** ******
      ****** ****** ****** ****** ****** ****** ****** ****** ****** ******
  16  ****** ****** ****** ****** ****** ****** ****** ****** ****** ******
      ****** ****** ****** ****** ****** ****** ****** ****** ****** ******
      ****** ****** ****** ****** ****** ****** ****** ****** ****** ******
  17  ****** ****** ****** ****** ****** ****** ****** ****** ****** ******
      ****** ****** ****** ****** ****** ****** ****** ****** ****** ******
      ****** ****** ****** ****** ****** ****** ****** ****** ****** ******
  18  ****** ****** ****** ****** ****** ****** ****** ****** ****** ******
      ****** ****** ****** ****** ****** ****** ****** ****** ****** ******
      ****** ****** ****** ****** ****** ****** ****** ****** ****** ******
  19  ****** ****** ****** ****** ****** ****** ****** ****** ****** ******
      ****** ****** ****** ****** ****** ****** ****** ****** ****** ******
      ****** ****** ****** ****** ****** ****** ****** ****** ****** ******
  20  ****** ****** ****** ****** ****** ****** ****** ****** ****** ******
      ****** ****** ****** ****** ****** ****** ****** ****** ****** ******
      ****** ****** ****** ****** ****** ****** ****** ****** ****** ******
  21  ****** ****** ****** ****** ****** ****** ****** ****** ****** ******
      ****** ****** ****** ****** ****** ****** ****** ****** ****** ******
      ****** ****** ****** ****** ****** ****** ****** ****** ****** ******
  22  ****** ****** ****** ****** ****** ****** ****** ****** ****** ******
      ****** ****** ****** ****** ****** ****** ****** ****** ****** ******
      ****** ****** ****** ****** ****** ****** ****** ****** ****** ******
  23  ****** ****** ****** ****** ****** ****** ****** ****** ****** ******
      ****** ****** ****** ****** ****** ****** ****** ****** ****** ******
      ****** ****** ****** ****** ****** ****** ****** ****** ****** ******
  24  ****** ****** ****** ****** ****** ****** ****** ****** ****** ******
      ****** ****** ****** ****** ****** ****** ****** ****** ****** ******
      ****** ****** ****** ****** ****** ****** ****** ****** ****** ******
  25  ****** ****** ****** ****** ****** ****** ****** ****** ****** ******
      ****** ****** ****** ****** ****** ****** ****** ****** ****** ******
      ****** ****** ****** ****** ****** ****** ****** ****** ****** ******

 HEAD WILL BE SAVED ON UNIT   51 AT END OF TIME STEP    1, STRESS PERIOD    8
1
  VOLUMETRIC BUDGET FOR ENTIRE MODEL AT END OF TIME STEP    1, STRESS PERIOD   8
  ------------------------------------------------------------------------------

     CUMULATIVE VOLUMES      L**3       RATES FOR THIS TIME STEP      L**3/T
     ------------------                 ------------------------

           IN:                                      IN:
           ---                                      ---
             STORAGE =    33298039.0242               STORAGE =        1634.8338
       CONSTANT HEAD =    19576405.8143         CONSTANT HEAD =       33608.6721
               WELLS =           0.0000                 WELLS =           0.0000
            RECHARGE =    17608800.0000              RECHARGE =       27600.0000
      STREAM LEAKAGE =     5808654.2898        STREAM LEAKAGE =       10365.3882

            TOTAL IN =    76291899.1283              TOTAL IN =       73208.8941

          OUT:                                     OUT:
          ----                                     ----
             STORAGE =      914842.3901               STORAGE =        1557.0571
       CONSTANT HEAD =           0.0000         CONSTANT HEAD =           0.0000
               WELLS =    20491669.1159                 WELLS =       28070.7796
            RECHARGE =           0.0000              RECHARGE =           0.0000
      STREAM LEAKAGE =    54885389.6091        STREAM LEAKAGE =       43581.0490

           TOTAL OUT =    76291901.1150             TOTAL OUT =       73208.8858

            IN - OUT =          -1.9867              IN - OUT =       8.3030E-03

 PERCENT DISCREPANCY =          -0.00     PERCENT DISCREPANCY =           0.00






         TIME SUMMARY AT END OF TIME STEP    1 IN STRESS PERIOD    8
                    SECONDS     MINUTES      HOURS       DAYS        YEARS
                    -----------------------------------------------------------
   TIME STEP LENGTH 7.86240E+06 1.31040E+05  2184.0      91.000     0.24914    
 STRESS PERIOD TIME 7.86240E+06 1.31040E+05  2184.0      91.000     0.24914    
         TOTAL TIME 6.30720E+07 1.05120E+06  17520.      730.00      1.9986    
1
1
                            STRESS PERIOD NO.    9, LENGTH =   92.00000    
                            -----------------------------------------------

                              NUMBER OF TIME STEPS =     1

                               MULTIPLIER FOR DELT =     1.500

                            INITIAL TIME STEP SIZE =   92.00000    

 WELL NO.  LAYER   ROW   COL   STRESS RATE         
 --------------------------------------------------
      1      1     16      2      -8562.    
      2      1     23     16      -2065.    
      3      1     13     14      -8503.    
      4      1      6     16      -8940.    

      4 WELLS

                 RECHARGE =  5.000000E-04

 REUSING STREAM SEGMENT DATA FROM LAST STRESS PERIOD
 
 SOLVING FOR HEAD 


     6 CALLS TO PCG ROUTINE FOR TIME STEP   1 IN STRESS PERIOD    9
    23 TOTAL ITERATIONS

 OUTPUT CONTROL FOR STRESS PERIOD    9   TIME STEP    1
    SAVE BUDGET
    SAVE HEAD FOR ALL LAYERS
    PRINT HEAD FOR ALL LAYERS
 UBDSV2 SAVING "STREAMFLOW OUT  " ON UNIT  50 AT TIME STEP  1, STRESS PERIOD   9



 STREAM LISTING     PERIOD      9   STEP        1

 LAYER ROW COL. STREAM  RCH.  FLOW INTO     FLOW TO   FLOW OUT OF   OVRLND.     DIRECT     STREAM       STREAM     STREAM     STREAM   STREAMBED  STREAMBED
                SEG.NO.  NO.  STRM. RCH.    AQUIFER    STRM. RCH.    RUNOFF     PRECIP       ET          HEAD       DEPTH      WIDTH   CONDCTNC.   GRADIENT

   1   13    1     1     1    1.0000E+05  1.0898E+01   9.9989E+04  0.000E+00  0.000E+00  0.000E+00  4.84060E+01  1.446E-01  2.000E+01  2.000E+04  5.449E-04
   1   13    2     1     2    9.9989E+04 -9.0177E+02   1.0089E+05  0.000E+00  0.000E+00  0.000E+00  4.79291E+01  1.450E-01  2.000E+01  2.000E+04 -4.509E-02
   1   14    3     1     3    1.0089E+05  1.1546E+02   1.0078E+05  0.000E+00  0.000E+00  0.000E+00  4.74522E+01  1.454E-01  2.000E+01  2.000E+04  5.773E-03
   1   15    4     1     4    1.0078E+05  1.5228E+02   1.0062E+05  0.000E+00  0.000E+00  0.000E+00  4.69748E+01  1.453E-01  2.000E+01  2.000E+04  7.614E-03
   1   16    5     1     5    1.0062E+05  8.9853E+02   9.9725E+04  0.000E+00  0.000E+00  0.000E+00  4.64971E+01  1.448E-01  2.000E+01  2.000E+04  4.493E-02
   1   16    6     1     6    9.9725E+04 -3.9119E+02   1.0012E+05  0.000E+00  0.000E+00  0.000E+00  4.60196E+01  1.446E-01  2.000E+01  2.000E+04 -1.956E-02
   1   16    7     1     7    1.0012E+05 -5.8432E+02   1.0070E+05  0.000E+00  0.000E+00  0.000E+00  4.55427E+01  1.450E-01  2.000E+01  2.000E+04 -2.922E-02
   1   16    8     1     8    1.0070E+05 -6.7412E+02   1.0137E+05  0.000E+00  0.000E+00  0.000E+00  4.50660E+01  1.456E-01  2.000E+01  2.000E+04 -3.371E-02
   1   16    9     1     9    1.0137E+05 -7.1892E+02   1.0209E+05  0.000E+00  0.000E+00  0.000E+00  4.45893E+01  1.462E-01  2.000E+01  2.000E+04 -3.595E-02
   1   16   10     1    10    1.0209E+05 -7.3634E+02   1.0283E+05  0.000E+00  0.000E+00  0.000E+00  4.41127E+01  1.468E-01  2.000E+01  2.000E+04 -3.682E-02
   1   16   11     1    11    1.0283E+05 -7.4662E+02   1.0358E+05  0.000E+00  0.000E+00  0.000E+00  4.36361E+01  1.474E-01  2.000E+01  2.000E+04 -3.733E-02
   1   16   12     1    12    1.0358E+05 -1.1560E+03   1.0473E+05  0.000E+00  0.000E+00  0.000E+00  4.31596E+01  1.482E-01  2.000E+01  2.000E+04 -5.780E-02
   1   15   13     1    13    1.0473E+05 -5.5443E+02   1.0529E+05  0.000E+00  0.000E+00  0.000E+00  4.26830E+01  1.490E-01  2.000E+01  2.000E+04 -2.772E-02
   1   14   14     1    14    1.0529E+05  1.7226E+03   1.0356E+05  0.000E+00  0.000E+00  0.000E+00  4.22053E+01  1.485E-01  2.000E+01  2.000E+04  8.613E-02
   1   13   15     1    15    1.0356E+05  1.5653E+03   1.0200E+05  0.000E+00  0.000E+00  0.000E+00  4.17266E+01  1.471E-01  2.000E+01  2.000E+04  7.827E-02
   1   12   16     1    16    1.0200E+05 -1.0804E+03   1.0308E+05  0.000E+00  0.000E+00  0.000E+00  4.12491E+01  1.468E-01  2.000E+01  2.000E+04 -5.402E-02
   1   12   17     1    17    1.0308E+05 -1.0341E+03   1.0411E+05  0.000E+00  0.000E+00  0.000E+00  4.07728E+01  1.478E-01  2.000E+01  2.000E+04 -5.170E-02
   1   12   18     1    18    1.0411E+05 -1.0907E+03   1.0520E+05  0.000E+00  0.000E+00  0.000E+00  4.02964E+01  1.487E-01  2.000E+01  2.000E+04 -5.454E-02
   1   12   19     1    19    1.0520E+05 -1.5447E+03   1.0675E+05  0.000E+00  0.000E+00  0.000E+00  3.98202E+01  1.498E-01  2.000E+01  2.000E+04 -7.724E-02
   1   13   20     1    20    1.0675E+05 -1.3675E+03   1.0812E+05  0.000E+00  0.000E+00  0.000E+00  3.93442E+01  1.510E-01  2.000E+01  2.000E+04 -6.838E-02
   1   14   21     1    21    1.0812E+05 -1.3404E+03   1.0946E+05  0.000E+00  0.000E+00  0.000E+00  3.88681E+01  1.521E-01  2.000E+01  2.000E+04 -6.702E-02
   1   14   22     1    22    1.0946E+05  4.7956E+03   1.0466E+05  0.000E+00  0.000E+00  0.000E+00  3.83893E+01  1.507E-01  2.000E+01  2.000E+04  2.398E-01
   1    9   30     2     1    5.0000E+04 -4.7229E+02   5.0472E+04  0.000E+00  0.000E+00  0.000E+00  4.02412E+01  1.162E-01  2.000E+01  2.000E+04 -2.361E-02
   1    9   29     2     2    5.0472E+04 -7.5996E+02   5.1232E+04  0.000E+00  0.000E+00  0.000E+00  3.99920E+01  1.170E-01  2.000E+01  2.000E+04 -3.800E-02
   1    9   28     2     3    5.1232E+04 -9.8354E+02   5.2216E+04  0.000E+00  0.000E+00  0.000E+00  3.97432E+01  1.182E-01  2.000E+01  2.000E+04 -4.918E-02
   1    9   27     2     4    5.2216E+04 -2.0189E+03   5.4235E+04  0.000E+00  0.000E+00  0.000E+00  3.94953E+01  1.203E-01  2.000E+01  2.000E+04 -1.009E-01
   1   10   26     2     5    5.4235E+04 -1.2556E+03   5.5490E+04  0.000E+00  0.000E+00  0.000E+00  3.92475E+01  1.225E-01  2.000E+01  2.000E+04 -6.278E-02
   1   11   25     2     6    5.5490E+04 -1.0623E+03   5.6553E+04  0.000E+00  0.000E+00  0.000E+00  3.89990E+01  1.240E-01  2.000E+01  2.000E+04 -5.311E-02
   1   12   24     2     7    5.6553E+04 -1.1332E+03   5.7686E+04  0.000E+00  0.000E+00  0.000E+00  3.87505E+01  1.255E-01  2.000E+01  2.000E+04 -5.666E-02
   1   13   23     2     8    5.7686E+04 -1.7703E+02   5.7863E+04  0.000E+00  0.000E+00  0.000E+00  3.85014E+01  1.264E-01  2.000E+01  2.000E+04 -8.852E-03
   1   14   22     2     9    5.7863E+04  2.0121E+03   5.5851E+04  0.000E+00  0.000E+00  0.000E+00  3.82502E+01  1.252E-01  2.000E+01  2.000E+04  1.006E-01
   1   14   22     3     1    1.6051E+05 -8.6398E+03   1.6915E+05  0.000E+00  0.000E+00  0.000E+00  3.77176E+01  1.620E-01  2.000E+01  2.000E+04 -4.320E-01
   1   15   23     3     2    1.6915E+05 -4.7955E+02   1.6963E+05  0.000E+00  0.000E+00  0.000E+00  3.68313E+01  1.647E-01  2.000E+01  2.000E+04 -2.398E-02
   1   15   24     3     3    1.6963E+05 -2.3841E+02   1.6987E+05  0.000E+00  0.000E+00  0.000E+00  3.59427E+01  1.649E-01  2.000E+01  2.000E+04 -1.192E-02
   1   15   25     3     4    1.6987E+05 -2.3200E+02   1.7010E+05  0.000E+00  0.000E+00  0.000E+00  3.50539E+01  1.650E-01  2.000E+01  2.000E+04 -1.160E-02
   1   15   26     3     5    1.7010E+05 -2.8609E+02   1.7039E+05  0.000E+00  0.000E+00  0.000E+00  3.41652E+01  1.652E-01  2.000E+01  2.000E+04 -1.430E-02
   1   16   27     3     6    1.7039E+05 -3.0897E+02   1.7070E+05  0.000E+00  0.000E+00  0.000E+00  3.32765E+01  1.653E-01  2.000E+01  2.000E+04 -1.545E-02
   1   17   28     3     7    1.7070E+05 -1.3968E+03   1.7209E+05  0.000E+00  0.000E+00  0.000E+00  3.23881E+01  1.658E-01  2.000E+01  2.000E+04 -6.984E-02
   1   18   29     3     8    1.7209E+05 -2.7046E+03   1.7480E+05  0.000E+00  0.000E+00  0.000E+00  3.15004E+01  1.670E-01  2.000E+01  2.000E+04 -1.352E-01
   1   18   30     3     9    1.7480E+05 -3.0347E+03   1.7783E+05  0.000E+00  0.000E+00  0.000E+00  3.06131E+01  1.687E-01  2.000E+01  2.000E+04 -1.517E-01



1
              HEAD IN LAYER   1 AT END OF TIME STEP   1 IN STRESS PERIOD    9
  ---------------------------------------------------------------------------

          1      2      3      4      5      6      7      8      9     10
         11     12     13     14     15     16     17     18     19     20
         21     22     23     24     25     26     27     28     29     30
 .........................................................................
   1  ****** ****** ****** ****** ****** ****** ****** ****** ****** ******
      ****** ****** ****** ****** ****** ****** ****** ****** ****** ******
      ****** ****** ****** ****** ****** ****** ****** ****** ****** ******
   2  ****** ****** ****** ****** ****** ****** ****** ****** ****** ******
      ****** ****** ****** ****** ****** ****** ****** ****** ****** ******
      ****** ****** ****** ****** ****** ****** ****** ****** ****** ******
   3  ****** ****** ****** ****** ****** ****** ****** ****** ****** ******
      ****** ****** ****** ****** ****** ****** ****** ****** ****** ******
      ****** ****** ****** ****** ****** ****** ****** ****** ****** ******
   4  ****** ****** ****** ****** ****** ****** ****** ****** ****** ******
      ****** ****** ****** ****** ****** ****** ****** ****** ****** ******
      ****** ****** ****** ****** ****** ****** ****** ****** ****** ******
   5  ****** ****** ****** ****** ****** ****** ****** ****** ****** ******
      ****** ****** ****** ****** ****** ****** ****** ****** ****** ******
      ****** ****** ****** ****** ****** ****** ****** ****** ****** ******
   6  ****** ****** ****** ****** ****** ****** ****** ****** ****** ******
      ****** ****** ****** ****** ****** ****** ****** ****** ****** ******
      ****** ****** ****** ****** ****** ****** ****** ****** ****** ******
   7  ****** ****** ****** ****** ****** ****** ****** ****** ****** ******
      ****** ****** ****** ****** ****** ****** ****** ****** ****** ******
      ****** ****** ****** ****** ****** ****** ****** ****** ****** ******
   8  ****** ****** ****** ****** ****** ****** ****** ****** ****** ******
      ****** ****** ****** ****** ****** ****** ****** ****** ****** ******
      ****** ****** ****** ****** ****** ****** ****** ****** ****** ******
   9  ****** ****** ****** ****** ****** ****** ****** ****** ****** ******
      ****** ****** ****** ****** ****** ****** ****** ****** ****** ******
      ****** ****** ****** ****** ****** ****** ****** ****** ****** ******
  10  ****** ****** ****** ****** ****** ****** ****** ****** ****** ******
      ****** ****** ****** ****** ****** ****** ****** ****** ****** ******
      ****** ****** ****** ****** ****** ****** ****** ****** ****** ******
  11  ****** ****** ****** ****** ****** ****** ****** ****** ****** ******
      ****** ****** ****** ****** ****** ****** ****** ****** ****** ******
      ****** ****** ****** ****** ****** ****** ****** ****** ****** ******
  12  ****** ****** ****** ****** ****** ****** ****** ****** ****** ******
      ****** ****** ****** ****** ****** ****** ****** ****** ****** ******
      ****** ****** ****** ****** ****** ****** ****** ****** ****** ******
  13  ****** ****** ****** ****** ****** ****** ****** ****** ****** ******
      ****** ****** ****** ****** ****** ****** ****** ****** ****** ******
      ****** ****** ****** ****** ****** ****** ****** ****** ****** ******
  14  ****** ****** ****** ****** ****** ****** ****** ****** ****** ******
      ****** ****** ****** ****** ****** ****** ****** ****** ****** ******
      ****** ****** ****** ****** ****** ****** ****** ****** ****** ******
  15  ****** ****** ****** ****** ****** ****** ****** ****** ****** ******
      ****** ****** ****** ****** ****** ****** ****** ****** ****** ******
      ****** ****** ****** ****** ****** ****** ****** ****** ****** ******
  16  ****** ****** ****** ****** ****** ****** ****** ****** ****** ******
      ****** ****** ****** ****** ****** ****** ****** ****** ****** ******
      ****** ****** ****** ****** ****** ****** ****** ****** ****** ******
  17  ****** ****** ****** ****** ****** ****** ****** ****** ****** ******
      ****** ****** ****** ****** ****** ****** ****** ****** ****** ******
      ****** ****** ****** ****** ****** ****** ****** ****** ****** ******
  18  ****** ****** ****** ****** ****** ****** ****** ****** ****** ******
      ****** ****** ****** ****** ****** ****** ****** ****** ****** ******
      ****** ****** ****** ****** ****** ****** ****** ****** ****** ******
  19  ****** ****** ****** ****** ****** ****** ****** ****** ****** ******
      ****** ****** ****** ****** ****** ****** ****** ****** ****** ******
      ****** ****** ****** ****** ****** ****** ****** ****** ****** ******
  20  ****** ****** ****** ****** ****** ****** ****** ****** ****** ******
      ****** ****** ****** ****** ****** ****** ****** ****** ****** ******
      ****** ****** ****** ****** ****** ****** ****** ****** ****** ******
  21  ****** ****** ****** ****** ****** ****** ****** ****** ****** ******
      ****** ****** ****** ****** ****** ****** ****** ****** ****** ******
      ****** ****** ****** ****** ****** ****** ****** ****** ****** ******
  22  ****** ****** ****** ****** ****** ****** ****** ****** ****** ******
      ****** ****** ****** ****** ****** ****** ****** ****** ****** ******
      ****** ****** ****** ****** ****** ****** ****** ****** ****** ******
  23  ****** ****** ****** ****** ****** ****** ****** ****** ****** ******
      ****** ****** ****** ****** ****** ****** ****** ****** ****** ******
      ****** ****** ****** ****** ****** ****** ****** ****** ****** ******
  24  ****** ****** ****** ****** ****** ****** ****** ****** ****** ******
      ****** ****** ****** ****** ****** ****** ****** ****** ****** ******
      ****** ****** ****** ****** ****** ****** ****** ****** ****** ******
  25  ****** ****** ****** ****** ****** ****** ****** ****** ****** ******
      ****** ****** ****** ****** ****** ****** ****** ****** ****** ******
      ****** ****** ****** ****** ****** ****** ****** ****** ****** ******

 HEAD WILL BE SAVED ON UNIT   51 AT END OF TIME STEP    1, STRESS PERIOD    9
1
  VOLUMETRIC BUDGET FOR ENTIRE MODEL AT END OF TIME STEP    1, STRESS PERIOD   9
  ------------------------------------------------------------------------------

     CUMULATIVE VOLUMES      L**3       RATES FOR THIS TIME STEP      L**3/T
     ------------------                 ------------------------

           IN:                                      IN:
           ---                                      ---
             STORAGE =    33971078.7540               STORAGE =        7315.6492
       CONSTANT HEAD =    22776846.4206         CONSTANT HEAD =       34787.3979
               WELLS =           0.0000                 WELLS =           0.0000
            RECHARGE =    18878400.0000              RECHARGE =       13800.0000
      STREAM LEAKAGE =     6845756.2985        STREAM LEAKAGE =       11272.8479

            TOTAL IN =    82472081.4731              TOTAL IN =       67175.8951

          OUT:                                     OUT:
          ----                                     ----
             STORAGE =      914842.3901               STORAGE =           0.0000
       CONSTANT HEAD =           0.0000         CONSTANT HEAD =           0.0000
               WELLS =    23074180.8401                 WELLS =       28070.7796
            RECHARGE =           0.0000              RECHARGE =           0.0000
      STREAM LEAKAGE =    58483060.3063        STREAM LEAKAGE =       39105.1163

           TOTAL OUT =    82472083.5364             TOTAL OUT =       67175.8959

            IN - OUT =          -2.0633              IN - OUT =      -8.3244E-04

 PERCENT DISCREPANCY =          -0.00     PERCENT DISCREPANCY =          -0.00






         TIME SUMMARY AT END OF TIME STEP    1 IN STRESS PERIOD    9
                    SECONDS     MINUTES      HOURS       DAYS        YEARS
                    -----------------------------------------------------------
   TIME STEP LENGTH 7.94880E+06 1.32480E+05  2208.0      92.000     0.25188    
 STRESS PERIOD TIME 7.94880E+06 1.32480E+05  2208.0      92.000     0.25188    
         TOTAL TIME 7.10208E+07 1.18368E+06  19728.      822.00      2.2505    
1
1
                            STRESS PERIOD NO.   10, LENGTH =   91.00000    
                            -----------------------------------------------

                              NUMBER OF TIME STEPS =     1

                               MULTIPLIER FOR DELT =     1.500

                            INITIAL TIME STEP SIZE =   91.00000    

 WELL NO.  LAYER   ROW   COL   STRESS RATE         
 --------------------------------------------------
      1      1     16      2      -8562.    
      2      1     23     16      -2065.    
      3      1     13     14      -8503.    
      4      1      6     16      -8940.    

      4 WELLS

                 RECHARGE =  2.000000E-03

 REUSING STREAM SEGMENT DATA FROM LAST STRESS PERIOD
 
 SOLVING FOR HEAD 


     7 CALLS TO PCG ROUTINE FOR TIME STEP   1 IN STRESS PERIOD   10
    26 TOTAL ITERATIONS

 OUTPUT CONTROL FOR STRESS PERIOD   10   TIME STEP    1
    SAVE BUDGET
    SAVE HEAD FOR ALL LAYERS
    PRINT HEAD FOR ALL LAYERS
 UBDSV2 SAVING "STREAMFLOW OUT  " ON UNIT  50 AT TIME STEP  1, STRESS PERIOD  10



 STREAM LISTING     PERIOD     10   STEP        1

 LAYER ROW COL. STREAM  RCH.  FLOW INTO     FLOW TO   FLOW OUT OF   OVRLND.     DIRECT     STREAM       STREAM     STREAM     STREAM   STREAMBED  STREAMBED
                SEG.NO.  NO.  STRM. RCH.    AQUIFER    STRM. RCH.    RUNOFF     PRECIP       ET          HEAD       DEPTH      WIDTH   CONDCTNC.   GRADIENT

   1   13    1     1     1    1.0000E+05 -4.3845E+02   1.0044E+05  0.000E+00  0.000E+00  0.000E+00  4.84062E+01  1.448E-01  2.000E+01  2.000E+04 -2.192E-02
   1   13    2     1     2    1.0044E+05 -1.3996E+03   1.0184E+05  0.000E+00  0.000E+00  0.000E+00  4.79297E+01  1.456E-01  2.000E+01  2.000E+04 -6.998E-02
   1   14    3     1     3    1.0184E+05 -7.0475E+01   1.0191E+05  0.000E+00  0.000E+00  0.000E+00  4.74531E+01  1.463E-01  2.000E+01  2.000E+04 -3.524E-03
   1   15    4     1     4    1.0191E+05 -4.6656E+01   1.0196E+05  0.000E+00  0.000E+00  0.000E+00  4.69759E+01  1.463E-01  2.000E+01  2.000E+04 -2.333E-03
   1   16    5     1     5    1.0196E+05  2.8018E+02   1.0167E+05  0.000E+00  0.000E+00  0.000E+00  4.64985E+01  1.462E-01  2.000E+01  2.000E+04  1.401E-02
   1   16    6     1     6    1.0167E+05 -7.5288E+02   1.0243E+05  0.000E+00  0.000E+00  0.000E+00  4.60214E+01  1.464E-01  2.000E+01  2.000E+04 -3.764E-02
   1   16    7     1     7    1.0243E+05 -9.2821E+02   1.0336E+05  0.000E+00  0.000E+00  0.000E+00  4.55449E+01  1.471E-01  2.000E+01  2.000E+04 -4.641E-02
   1   16    8     1     8    1.0336E+05 -1.0126E+03   1.0437E+05  0.000E+00  0.000E+00  0.000E+00  4.50684E+01  1.480E-01  2.000E+01  2.000E+04 -5.063E-02
   1   16    9     1     9    1.0437E+05 -1.0559E+03   1.0542E+05  0.000E+00  0.000E+00  0.000E+00  4.45920E+01  1.489E-01  2.000E+01  2.000E+04 -5.280E-02
   1   16   10     1    10    1.0542E+05 -1.0737E+03   1.0650E+05  0.000E+00  0.000E+00  0.000E+00  4.41157E+01  1.498E-01  2.000E+01  2.000E+04 -5.368E-02
   1   16   11     1    11    1.0650E+05 -1.0876E+03   1.0759E+05  0.000E+00  0.000E+00  0.000E+00  4.36393E+01  1.507E-01  2.000E+01  2.000E+04 -5.438E-02
   1   16   12     1    12    1.0759E+05 -1.7251E+03   1.0931E+05  0.000E+00  0.000E+00  0.000E+00  4.31632E+01  1.519E-01  2.000E+01  2.000E+04 -8.626E-02
   1   15   13     1    13    1.0931E+05 -1.1399E+03   1.1045E+05  0.000E+00  0.000E+00  0.000E+00  4.26872E+01  1.531E-01  2.000E+01  2.000E+04 -5.700E-02
   1   14   14     1    14    1.1045E+05  1.1304E+03   1.0932E+05  0.000E+00  0.000E+00  0.000E+00  4.22099E+01  1.531E-01  2.000E+01  2.000E+04  5.652E-02
   1   13   15     1    15    1.0932E+05  9.8356E+02   1.0834E+05  0.000E+00  0.000E+00  0.000E+00  4.17317E+01  1.522E-01  2.000E+01  2.000E+04  4.918E-02
   1   12   16     1    16    1.0834E+05 -1.6399E+03   1.0998E+05  0.000E+00  0.000E+00  0.000E+00  4.12547E+01  1.525E-01  2.000E+01  2.000E+04 -8.199E-02
   1   12   17     1    17    1.0998E+05 -1.4584E+03   1.1144E+05  0.000E+00  0.000E+00  0.000E+00  4.07788E+01  1.538E-01  2.000E+01  2.000E+04 -7.292E-02
   1   12   18     1    18    1.1144E+05 -1.5111E+03   1.1295E+05  0.000E+00  0.000E+00  0.000E+00  4.03027E+01  1.550E-01  2.000E+01  2.000E+04 -7.556E-02
   1   12   19     1    19    1.1295E+05 -2.0622E+03   1.1501E+05  0.000E+00  0.000E+00  0.000E+00  3.98269E+01  1.565E-01  2.000E+01  2.000E+04 -1.031E-01
   1   13   20     1    20    1.1501E+05 -1.8884E+03   1.1690E+05  0.000E+00  0.000E+00  0.000E+00  3.93513E+01  1.581E-01  2.000E+01  2.000E+04 -9.442E-02
   1   14   21     1    21    1.1690E+05 -1.8656E+03   1.1876E+05  0.000E+00  0.000E+00  0.000E+00  3.88755E+01  1.596E-01  2.000E+01  2.000E+04 -9.328E-02
   1   14   22     1    22    1.1876E+05  4.6719E+03   1.1409E+05  0.000E+00  0.000E+00  0.000E+00  3.83971E+01  1.585E-01  2.000E+01  2.000E+04  2.336E-01
   1    9   30     2     1    5.0000E+04 -8.8627E+02   5.0886E+04  0.000E+00  0.000E+00  0.000E+00  4.02415E+01  1.165E-01  2.000E+01  2.000E+04 -4.431E-02
   1    9   29     2     2    5.0886E+04 -1.1716E+03   5.2058E+04  0.000E+00  0.000E+00  0.000E+00  3.99929E+01  1.179E-01  2.000E+01  2.000E+04 -5.858E-02
   1    9   28     2     3    5.2058E+04 -1.3943E+03   5.3452E+04  0.000E+00  0.000E+00  0.000E+00  3.97447E+01  1.197E-01  2.000E+01  2.000E+04 -6.972E-02
   1    9   27     2     4    5.3452E+04 -2.5711E+03   5.6023E+04  0.000E+00  0.000E+00  0.000E+00  3.94973E+01  1.223E-01  2.000E+01  2.000E+04 -1.286E-01
   1   10   26     2     5    5.6023E+04 -1.8079E+03   5.7831E+04  0.000E+00  0.000E+00  0.000E+00  3.92502E+01  1.252E-01  2.000E+01  2.000E+04 -9.040E-02
   1   11   25     2     6    5.7831E+04 -1.5901E+03   5.9421E+04  0.000E+00  0.000E+00  0.000E+00  3.90025E+01  1.275E-01  2.000E+01  2.000E+04 -7.951E-02
   1   12   24     2     7    5.9421E+04 -1.6109E+03   6.1032E+04  0.000E+00  0.000E+00  0.000E+00  3.87546E+01  1.296E-01  2.000E+01  2.000E+04 -8.055E-02
   1   13   23     2     8    6.1032E+04 -3.2568E+02   6.1358E+04  0.000E+00  0.000E+00  0.000E+00  3.85058E+01  1.308E-01  2.000E+01  2.000E+04 -1.628E-02
   1   14   22     2     9    6.1358E+04  1.8264E+03   5.9532E+04  0.000E+00  0.000E+00  0.000E+00  3.82548E+01  1.298E-01  2.000E+01  2.000E+04  9.132E-02
   1   14   22     3     1    1.7362E+05 -8.7661E+03   1.8239E+05  0.000E+00  0.000E+00  0.000E+00  3.77252E+01  1.697E-01  2.000E+01  2.000E+04 -4.383E-01
   1   15   23     3     2    1.8239E+05 -6.4221E+02   1.8303E+05  0.000E+00  0.000E+00  0.000E+00  3.68390E+01  1.723E-01  2.000E+01  2.000E+04 -3.211E-02
   1   15   24     3     3    1.8303E+05 -3.7567E+02   1.8341E+05  0.000E+00  0.000E+00  0.000E+00  3.59504E+01  1.726E-01  2.000E+01  2.000E+04 -1.878E-02
   1   15   25     3     4    1.8341E+05 -3.7266E+02   1.8378E+05  0.000E+00  0.000E+00  0.000E+00  3.50617E+01  1.728E-01  2.000E+01  2.000E+04 -1.863E-02
   1   15   26     3     5    1.8378E+05 -4.4838E+02   1.8423E+05  0.000E+00  0.000E+00  0.000E+00  3.41731E+01  1.731E-01  2.000E+01  2.000E+04 -2.242E-02
   1   16   27     3     6    1.8423E+05 -4.9493E+02   1.8472E+05  0.000E+00  0.000E+00  0.000E+00  3.32844E+01  1.733E-01  2.000E+01  2.000E+04 -2.475E-02
   1   17   28     3     7    1.8472E+05 -1.9178E+03   1.8664E+05  0.000E+00  0.000E+00  0.000E+00  3.23962E+01  1.740E-01  2.000E+01  2.000E+04 -9.589E-02
   1   18   29     3     8    1.8664E+05 -3.2567E+03   1.8990E+05  0.000E+00  0.000E+00  0.000E+00  3.15088E+01  1.755E-01  2.000E+01  2.000E+04 -1.628E-01
   1   18   30     3     9    1.8990E+05 -3.4605E+03   1.9336E+05  0.000E+00  0.000E+00  0.000E+00  3.06218E+01  1.773E-01  2.000E+01  2.000E+04 -1.730E-01



1
              HEAD IN LAYER   1 AT END OF TIME STEP   1 IN STRESS PERIOD   10
  ---------------------------------------------------------------------------

          1      2      3      4      5      6      7      8      9     10
         11     12     13     14     15     16     17     18     19     20
         21     22     23     24     25     26     27     28     29     30
 .........................................................................
   1  ****** ****** ****** ****** ****** ****** ****** ****** ****** ******
      ****** ****** ****** ****** ****** ****** ****** ****** ****** ******
      ****** ****** ****** ****** ****** ****** ****** ****** ****** ******
   2  ****** ****** ****** ****** ****** ****** ****** ****** ****** ******
      ****** ****** ****** ****** ****** ****** ****** ****** ****** ******
      ****** ****** ****** ****** ****** ****** ****** ****** ****** ******
   3  ****** ****** ****** ****** ****** ****** ****** ****** ****** ******
      ****** ****** ****** ****** ****** ****** ****** ****** ****** ******
      ****** ****** ****** ****** ****** ****** ****** ****** ****** ******
   4  ****** ****** ****** ****** ****** ****** ****** ****** ****** ******
      ****** ****** ****** ****** ****** ****** ****** ****** ****** ******
      ****** ****** ****** ****** ****** ****** ****** ****** ****** ******
   5  ****** ****** ****** ****** ****** ****** ****** ****** ****** ******
      ****** ****** ****** ****** ****** ****** ****** ****** ****** ******
      ****** ****** ****** ****** ****** ****** ****** ****** ****** ******
   6  ****** ****** ****** ****** ****** ****** ****** ****** ****** ******
      ****** ****** ****** ****** ****** ****** ****** ****** ****** ******
      ****** ****** ****** ****** ****** ****** ****** ****** ****** ******
   7  ****** ****** ****** ****** ****** ****** ****** ****** ****** ******
      ****** ****** ****** ****** ****** ****** ****** ****** ****** ******
      ****** ****** ****** ****** ****** ****** ****** ****** ****** ******
   8  ****** ****** ****** ****** ****** ****** ****** ****** ****** ******
      ****** ****** ****** ****** ****** ****** ****** ****** ****** ******
      ****** ****** ****** ****** ****** ****** ****** ****** ****** ******
   9  ****** ****** ****** ****** ****** ****** ****** ****** ****** ******
      ****** ****** ****** ****** ****** ****** ****** ****** ****** ******
      ****** ****** ****** ****** ****** ****** ****** ****** ****** ******
  10  ****** ****** ****** ****** ****** ****** ****** ****** ****** ******
      ****** ****** ****** ****** ****** ****** ****** ****** ****** ******
      ****** ****** ****** ****** ****** ****** ****** ****** ****** ******
  11  ****** ****** ****** ****** ****** ****** ****** ****** ****** ******
      ****** ****** ****** ****** ****** ****** ****** ****** ****** ******
      ****** ****** ****** ****** ****** ****** ****** ****** ****** ******
  12  ****** ****** ****** ****** ****** ****** ****** ****** ****** ******
      ****** ****** ****** ****** ****** ****** ****** ****** ****** ******
      ****** ****** ****** ****** ****** ****** ****** ****** ****** ******
  13  ****** ****** ****** ****** ****** ****** ****** ****** ****** ******
      ****** ****** ****** ****** ****** ****** ****** ****** ****** ******
      ****** ****** ****** ****** ****** ****** ****** ****** ****** ******
  14  ****** ****** ****** ****** ****** ****** ****** ****** ****** ******
      ****** ****** ****** ****** ****** ****** ****** ****** ****** ******
      ****** ****** ****** ****** ****** ****** ****** ****** ****** ******
  15  ****** ****** ****** ****** ****** ****** ****** ****** ****** ******
      ****** ****** ****** ****** ****** ****** ****** ****** ****** ******
      ****** ****** ****** ****** ****** ****** ****** ****** ****** ******
  16  ****** ****** ****** ****** ****** ****** ****** ****** ****** ******
      ****** ****** ****** ****** ****** ****** ****** ****** ****** ******
      ****** ****** ****** ****** ****** ****** ****** ****** ****** ******
  17  ****** ****** ****** ****** ****** ****** ****** ****** ****** ******
      ****** ****** ****** ****** ****** ****** ****** ****** ****** ******
      ****** ****** ****** ****** ****** ****** ****** ****** ****** ******
  18  ****** ****** ****** ****** ****** ****** ****** ****** ****** ******
      ****** ****** ****** ****** ****** ****** ****** ****** ****** ******
      ****** ****** ****** ****** ****** ****** ****** ****** ****** ******
  19  ****** ****** ****** ****** ****** ****** ****** ****** ****** ******
      ****** ****** ****** ****** ****** ****** ****** ****** ****** ******
      ****** ****** ****** ****** ****** ****** ****** ****** ****** ******
  20  ****** ****** ****** ****** ****** ****** ****** ****** ****** ******
      ****** ****** ****** ****** ****** ****** ****** ****** ****** ******
      ****** ****** ****** ****** ****** ****** ****** ****** ****** ******
  21  ****** ****** ****** ****** ****** ****** ****** ****** ****** ******
      ****** ****** ****** ****** ****** ****** ****** ****** ****** ******
      ****** ****** ****** ****** ****** ****** ****** ****** ****** ******
  22  ****** ****** ****** ****** ****** ****** ****** ****** ****** ******
      ****** ****** ****** ****** ****** ****** ****** ****** ****** ******
      ****** ****** ****** ****** ****** ****** ****** ****** ****** ******
  23  ****** ****** ****** ****** ****** ****** ****** ****** ****** ******
      ****** ****** ****** ****** ****** ****** ****** ****** ****** ******
      ****** ****** ****** ****** ****** ****** ****** ****** ****** ******
  24  ****** ****** ****** ****** ****** ****** ****** ****** ****** ******
      ****** ****** ****** ****** ****** ****** ****** ****** ****** ******
      ****** ****** ****** ****** ****** ****** ****** ****** ****** ******
  25  ****** ****** ****** ****** ****** ****** ****** ****** ****** ******
      ****** ****** ****** ****** ****** ****** ****** ****** ****** ******
      ****** ****** ****** ****** ****** ****** ****** ****** ****** ******

 HEAD WILL BE SAVED ON UNIT   51 AT END OF TIME STEP    1, STRESS PERIOD   10
1
  VOLUMETRIC BUDGET FOR ENTIRE MODEL AT END OF TIME STEP    1, STRESS PERIOD  10
  ------------------------------------------------------------------------------

     CUMULATIVE VOLUMES      L**3       RATES FOR THIS TIME STEP      L**3/T
     ------------------                 ------------------------

           IN:                                      IN:
           ---                                      ---
             STORAGE =    33971078.7540               STORAGE =           0.0000
       CONSTANT HEAD =    25674511.3476         CONSTANT HEAD =       31842.4717
               WELLS =           0.0000                 WELLS =           0.0000
            RECHARGE =    23901600.0000              RECHARGE =       55200.0000
      STREAM LEAKAGE =     7654978.9088        STREAM LEAKAGE =        8892.5562

            TOTAL IN =    91202169.0104              TOTAL IN =       95935.0279

          OUT:                                     OUT:
          ----                                     ----
             STORAGE =     2335768.4961               STORAGE =       15614.5726
       CONSTANT HEAD =           0.0000         CONSTANT HEAD =           0.0000
               WELLS =    25628621.7846                 WELLS =       28070.7796
            RECHARGE =           0.0000              RECHARGE =           0.0000
      STREAM LEAKAGE =    63237780.4295        STREAM LEAKAGE =       52249.6717

           TOTAL OUT =    91202170.7103             TOTAL OUT =       95935.0239

            IN - OUT =          -1.6999              IN - OUT =       3.9941E-03

 PERCENT DISCREPANCY =          -0.00     PERCENT DISCREPANCY =           0.00






         TIME SUMMARY AT END OF TIME STEP    1 IN STRESS PERIOD   10
                    SECONDS     MINUTES      HOURS       DAYS        YEARS
                    -----------------------------------------------------------
   TIME STEP LENGTH 7.86240E+06 1.31040E+05  2184.0      91.000     0.24914    
 STRESS PERIOD TIME 7.86240E+06 1.31040E+05  2184.0      91.000     0.24914    
         TOTAL TIME 7.88832E+07 1.31472E+06  21912.      913.00      2.4997    
1
1
                            STRESS PERIOD NO.   11, LENGTH =   91.00000    
                            -----------------------------------------------

                              NUMBER OF TIME STEPS =     1

                               MULTIPLIER FOR DELT =     1.500

                            INITIAL TIME STEP SIZE =   91.00000    

 WELL NO.  LAYER   ROW   COL   STRESS RATE         
 --------------------------------------------------
      1      1     16      2      -8562.    
      2      1     23     16      -2065.    
      3      1     13     14      -8503.    
      4      1      6     16      -8940.    

      4 WELLS

                 RECHARGE =   0.00000    

 REUSING STREAM SEGMENT DATA FROM LAST STRESS PERIOD
 
 SOLVING FOR HEAD 


     7 CALLS TO PCG ROUTINE FOR TIME STEP   1 IN STRESS PERIOD   11
    26 TOTAL ITERATIONS

 OUTPUT CONTROL FOR STRESS PERIOD   11   TIME STEP    1
    SAVE BUDGET
    SAVE HEAD FOR ALL LAYERS
    PRINT HEAD FOR ALL LAYERS
 UBDSV2 SAVING "STREAMFLOW OUT  " ON UNIT  50 AT TIME STEP  1, STRESS PERIOD  11



 STREAM LISTING     PERIOD     11   STEP        1

 LAYER ROW COL. STREAM  RCH.  FLOW INTO     FLOW TO   FLOW OUT OF   OVRLND.     DIRECT     STREAM       STREAM     STREAM     STREAM   STREAMBED  STREAMBED
                SEG.NO.  NO.  STRM. RCH.    AQUIFER    STRM. RCH.    RUNOFF     PRECIP       ET          HEAD       DEPTH      WIDTH   CONDCTNC.   GRADIENT

   1   13    1     1     1    1.0000E+05  1.3151E+02   9.9868E+04  0.000E+00  0.000E+00  0.000E+00  4.84060E+01  1.446E-01  2.000E+01  2.000E+04  6.576E-03
   1   13    2     1     2    9.9868E+04 -7.6475E+02   1.0063E+05  0.000E+00  0.000E+00  0.000E+00  4.79290E+01  1.449E-01  2.000E+01  2.000E+04 -3.824E-02
   1   14    3     1     3    1.0063E+05  1.6084E+02   1.0047E+05  0.000E+00  0.000E+00  0.000E+00  4.74519E+01  1.451E-01  2.000E+01  2.000E+04  8.042E-03
   1   15    4     1     4    1.0047E+05  1.9559E+02   1.0028E+05  0.000E+00  0.000E+00  0.000E+00  4.69745E+01  1.450E-01  2.000E+01  2.000E+04  9.780E-03
   1   16    5     1     5    1.0028E+05  9.6832E+02   9.9308E+04  0.000E+00  0.000E+00  0.000E+00  4.64967E+01  1.445E-01  2.000E+01  2.000E+04  4.842E-02
   1   16    6     1     6    9.9308E+04 -3.3828E+02   9.9647E+04  0.000E+00  0.000E+00  0.000E+00  4.60192E+01  1.442E-01  2.000E+01  2.000E+04 -1.691E-02
   1   16    7     1     7    9.9647E+04 -5.3119E+02   1.0018E+05  0.000E+00  0.000E+00  0.000E+00  4.55423E+01  1.446E-01  2.000E+01  2.000E+04 -2.656E-02
   1   16    8     1     8    1.0018E+05 -6.2111E+02   1.0080E+05  0.000E+00  0.000E+00  0.000E+00  4.50655E+01  1.451E-01  2.000E+01  2.000E+04 -3.106E-02
   1   16    9     1     9    1.0080E+05 -6.6675E+02   1.0147E+05  0.000E+00  0.000E+00  0.000E+00  4.45888E+01  1.456E-01  2.000E+01  2.000E+04 -3.334E-02
   1   16   10     1    10    1.0147E+05 -6.8564E+02   1.0215E+05  0.000E+00  0.000E+00  0.000E+00  4.41121E+01  1.462E-01  2.000E+01  2.000E+04 -3.428E-02
   1   16   11     1    11    1.0215E+05 -6.9784E+02   1.0285E+05  0.000E+00  0.000E+00  0.000E+00  4.36354E+01  1.468E-01  2.000E+01  2.000E+04 -3.489E-02
   1   16   12     1    12    1.0285E+05 -1.0793E+03   1.0393E+05  0.000E+00  0.000E+00  0.000E+00  4.31589E+01  1.476E-01  2.000E+01  2.000E+04 -5.397E-02
   1   15   13     1    13    1.0393E+05 -4.5072E+02   1.0438E+05  0.000E+00  0.000E+00  0.000E+00  4.26823E+01  1.482E-01  2.000E+01  2.000E+04 -2.254E-02
   1   14   14     1    14    1.0438E+05  1.8377E+03   1.0254E+05  0.000E+00  0.000E+00  0.000E+00  4.22045E+01  1.476E-01  2.000E+01  2.000E+04  9.188E-02
   1   13   15     1    15    1.0254E+05  1.6854E+03   1.0086E+05  0.000E+00  0.000E+00  0.000E+00  4.17257E+01  1.461E-01  2.000E+01  2.000E+04  8.427E-02
   1   12   16     1    16    1.0086E+05 -9.6104E+02   1.0182E+05  0.000E+00  0.000E+00  0.000E+00  4.12481E+01  1.458E-01  2.000E+01  2.000E+04 -4.805E-02
   1   12   17     1    17    1.0182E+05 -9.5102E+02   1.0277E+05  0.000E+00  0.000E+00  0.000E+00  4.07716E+01  1.466E-01  2.000E+01  2.000E+04 -4.755E-02
   1   12   18     1    18    1.0277E+05 -1.0116E+03   1.0378E+05  0.000E+00  0.000E+00  0.000E+00  4.02952E+01  1.475E-01  2.000E+01  2.000E+04 -5.058E-02
   1   12   19     1    19    1.0378E+05 -1.4489E+03   1.0523E+05  0.000E+00  0.000E+00  0.000E+00  3.98190E+01  1.485E-01  2.000E+01  2.000E+04 -7.245E-02
   1   13   20     1    20    1.0523E+05 -1.2761E+03   1.0650E+05  0.000E+00  0.000E+00  0.000E+00  3.93429E+01  1.497E-01  2.000E+01  2.000E+04 -6.381E-02
   1   14   21     1    21    1.0650E+05 -1.2691E+03   1.0777E+05  0.000E+00  0.000E+00  0.000E+00  3.88667E+01  1.508E-01  2.000E+01  2.000E+04 -6.346E-02
   1   14   22     1    22    1.0777E+05  4.8144E+03   1.0296E+05  0.000E+00  0.000E+00  0.000E+00  3.83879E+01  1.493E-01  2.000E+01  2.000E+04  2.407E-01
   1    9   30     2     1    5.0000E+04 -3.9809E+02   5.0398E+04  0.000E+00  0.000E+00  0.000E+00  4.02411E+01  1.161E-01  2.000E+01  2.000E+04 -1.990E-02
   1    9   29     2     2    5.0398E+04 -6.8649E+02   5.1085E+04  0.000E+00  0.000E+00  0.000E+00  3.99919E+01  1.169E-01  2.000E+01  2.000E+04 -3.432E-02
   1    9   28     2     3    5.1085E+04 -9.1135E+02   5.1996E+04  0.000E+00  0.000E+00  0.000E+00  3.97430E+01  1.180E-01  2.000E+01  2.000E+04 -4.557E-02
   1    9   27     2     4    5.1996E+04 -1.9310E+03   5.3927E+04  0.000E+00  0.000E+00  0.000E+00  3.94949E+01  1.199E-01  2.000E+01  2.000E+04 -9.655E-02
   1   10   26     2     5    5.3927E+04 -1.1534E+03   5.5080E+04  0.000E+00  0.000E+00  0.000E+00  3.92470E+01  1.220E-01  2.000E+01  2.000E+04 -5.767E-02
   1   11   25     2     6    5.5080E+04 -9.5940E+02   5.6040E+04  0.000E+00  0.000E+00  0.000E+00  3.89984E+01  1.234E-01  2.000E+01  2.000E+04 -4.797E-02
   1   12   24     2     7    5.6040E+04 -1.0371E+03   5.7077E+04  0.000E+00  0.000E+00  0.000E+00  3.87498E+01  1.248E-01  2.000E+01  2.000E+04 -5.186E-02
   1   13   23     2     8    5.7077E+04 -1.3972E+02   5.7217E+04  0.000E+00  0.000E+00  0.000E+00  3.85005E+01  1.255E-01  2.000E+01  2.000E+04 -6.986E-03
   1   14   22     2     9    5.7217E+04  2.0420E+03   5.5175E+04  0.000E+00  0.000E+00  0.000E+00  3.82493E+01  1.243E-01  2.000E+01  2.000E+04  1.021E-01
   1   14   22     3     1    1.5813E+05 -8.6206E+03   1.6675E+05  0.000E+00  0.000E+00  0.000E+00  3.77161E+01  1.606E-01  2.000E+01  2.000E+04 -4.310E-01
   1   15   23     3     2    1.6675E+05 -4.5026E+02   1.6721E+05  0.000E+00  0.000E+00  0.000E+00  3.68299E+01  1.633E-01  2.000E+01  2.000E+04 -2.251E-02
   1   15   24     3     3    1.6721E+05 -2.1061E+02   1.6742E+05  0.000E+00  0.000E+00  0.000E+00  3.59412E+01  1.635E-01  2.000E+01  2.000E+04 -1.053E-02
   1   15   25     3     4    1.6742E+05 -2.0376E+02   1.6762E+05  0.000E+00  0.000E+00  0.000E+00  3.50525E+01  1.636E-01  2.000E+01  2.000E+04 -1.019E-02
   1   15   26     3     5    1.6762E+05 -2.5274E+02   1.6787E+05  0.000E+00  0.000E+00  0.000E+00  3.41637E+01  1.637E-01  2.000E+01  2.000E+04 -1.264E-02
   1   16   27     3     6    1.6787E+05 -2.7200E+02   1.6814E+05  0.000E+00  0.000E+00  0.000E+00  3.32750E+01  1.639E-01  2.000E+01  2.000E+04 -1.360E-02
   1   17   28     3     7    1.6814E+05 -1.3083E+03   1.6945E+05  0.000E+00  0.000E+00  0.000E+00  3.23866E+01  1.643E-01  2.000E+01  2.000E+04 -6.542E-02
   1   18   29     3     8    1.6945E+05 -2.6353E+03   1.7209E+05  0.000E+00  0.000E+00  0.000E+00  3.14988E+01  1.655E-01  2.000E+01  2.000E+04 -1.318E-01
   1   18   30     3     9    1.7209E+05 -2.9716E+03   1.7506E+05  0.000E+00  0.000E+00  0.000E+00  3.06115E+01  1.671E-01  2.000E+01  2.000E+04 -1.486E-01



1
              HEAD IN LAYER   1 AT END OF TIME STEP   1 IN STRESS PERIOD   11
  ---------------------------------------------------------------------------

          1      2      3      4      5      6      7      8      9     10
         11     12     13     14     15     16     17     18     19     20
         21     22     23     24     25     26     27     28     29     30
 .........................................................................
   1  ****** ****** ****** ****** ****** ****** ****** ****** ****** ******
      ****** ****** ****** ****** ****** ****** ****** ****** ****** ******
      ****** ****** ****** ****** ****** ****** ****** ****** ****** ******
   2  ****** ****** ****** ****** ****** ****** ****** ****** ****** ******
      ****** ****** ****** ****** ****** ****** ****** ****** ****** ******
      ****** ****** ****** ****** ****** ****** ****** ****** ****** ******
   3  ****** ****** ****** ****** ****** ****** ****** ****** ****** ******
      ****** ****** ****** ****** ****** ****** ****** ****** ****** ******
      ****** ****** ****** ****** ****** ****** ****** ****** ****** ******
   4  ****** ****** ****** ****** ****** ****** ****** ****** ****** ******
      ****** ****** ****** ****** ****** ****** ****** ****** ****** ******
      ****** ****** ****** ****** ****** ****** ****** ****** ****** ******
   5  ****** ****** ****** ****** ****** ****** ****** ****** ****** ******
      ****** ****** ****** ****** ****** ****** ****** ****** ****** ******
      ****** ****** ****** ****** ****** ****** ****** ****** ****** ******
   6  ****** ****** ****** ****** ****** ****** ****** ****** ****** ******
      ****** ****** ****** ****** ****** ****** ****** ****** ****** ******
      ****** ****** ****** ****** ****** ****** ****** ****** ****** ******
   7  ****** ****** ****** ****** ****** ****** ****** ****** ****** ******
      ****** ****** ****** ****** ****** ****** ****** ****** ****** ******
      ****** ****** ****** ****** ****** ****** ****** ****** ****** ******
   8  ****** ****** ****** ****** ****** ****** ****** ****** ****** ******
      ****** ****** ****** ****** ****** ****** ****** ****** ****** ******
      ****** ****** ****** ****** ****** ****** ****** ****** ****** ******
   9  ****** ****** ****** ****** ****** ****** ****** ****** ****** ******
      ****** ****** ****** ****** ****** ****** ****** ****** ****** ******
      ****** ****** ****** ****** ****** ****** ****** ****** ****** ******
  10  ****** ****** ****** ****** ****** ****** ****** ****** ****** ******
      ****** ****** ****** ****** ****** ****** ****** ****** ****** ******
      ****** ****** ****** ****** ****** ****** ****** ****** ****** ******
  11  ****** ****** ****** ****** ****** ****** ****** ****** ****** ******
      ****** ****** ****** ****** ****** ****** ****** ****** ****** ******
      ****** ****** ****** ****** ****** ****** ****** ****** ****** ******
  12  ****** ****** ****** ****** ****** ****** ****** ****** ****** ******
      ****** ****** ****** ****** ****** ****** ****** ****** ****** ******
      ****** ****** ****** ****** ****** ****** ****** ****** ****** ******
  13  ****** ****** ****** ****** ****** ****** ****** ****** ****** ******
      ****** ****** ****** ****** ****** ****** ****** ****** ****** ******
      ****** ****** ****** ****** ****** ****** ****** ****** ****** ******
  14  ****** ****** ****** ****** ****** ****** ****** ****** ****** ******
      ****** ****** ****** ****** ****** ****** ****** ****** ****** ******
      ****** ****** ****** ****** ****** ****** ****** ****** ****** ******
  15  ****** ****** ****** ****** ****** ****** ****** ****** ****** ******
      ****** ****** ****** ****** ****** ****** ****** ****** ****** ******
      ****** ****** ****** ****** ****** ****** ****** ****** ****** ******
  16  ****** ****** ****** ****** ****** ****** ****** ****** ****** ******
      ****** ****** ****** ****** ****** ****** ****** ****** ****** ******
      ****** ****** ****** ****** ****** ****** ****** ****** ****** ******
  17  ****** ****** ****** ****** ****** ****** ****** ****** ****** ******
      ****** ****** ****** ****** ****** ****** ****** ****** ****** ******
      ****** ****** ****** ****** ****** ****** ****** ****** ****** ******
  18  ****** ****** ****** ****** ****** ****** ****** ****** ****** ******
      ****** ****** ****** ****** ****** ****** ****** ****** ****** ******
      ****** ****** ****** ****** ****** ****** ****** ****** ****** ******
  19  ****** ****** ****** ****** ****** ****** ****** ****** ****** ******
      ****** ****** ****** ****** ****** ****** ****** ****** ****** ******
      ****** ****** ****** ****** ****** ****** ****** ****** ****** ******
  20  ****** ****** ****** ****** ****** ****** ****** ****** ****** ******
      ****** ****** ****** ****** ****** ****** ****** ****** ****** ******
      ****** ****** ****** ****** ****** ****** ****** ****** ****** ******
  21  ****** ****** ****** ****** ****** ****** ****** ****** ****** ******
      ****** ****** ****** ****** ****** ****** ****** ****** ****** ******
      ****** ****** ****** ****** ****** ****** ****** ****** ****** ******
  22  ****** ****** ****** ****** ****** ****** ****** ****** ****** ******
      ****** ****** ****** ****** ****** ****** ****** ****** ****** ******
      ****** ****** ****** ****** ****** ****** ****** ****** ****** ******
  23  ****** ****** ****** ****** ****** ****** ****** ****** ****** ******
      ****** ****** ****** ****** ****** ****** ****** ****** ****** ******
      ****** ****** ****** ****** ****** ****** ****** ****** ****** ******
  24  ****** ****** ****** ****** ****** ****** ****** ****** ****** ******
      ****** ****** ****** ****** ****** ****** ****** ****** ****** ******
      ****** ****** ****** ****** ****** ****** ****** ****** ****** ******
  25  ****** ****** ****** ****** ****** ****** ****** ****** ****** ******
      ****** ****** ****** ****** ****** ****** ****** ****** ****** ******
      ****** ****** ****** ****** ****** ****** ****** ****** ****** ******

 HEAD WILL BE SAVED ON UNIT   51 AT END OF TIME STEP    1, STRESS PERIOD   11
1
  VOLUMETRIC BUDGET FOR ENTIRE MODEL AT END OF TIME STEP    1, STRESS PERIOD  11
  ------------------------------------------------------------------------------

     CUMULATIVE VOLUMES      L**3       RATES FOR THIS TIME STEP      L**3/T
     ------------------                 ------------------------

           IN:                                      IN:
           ---                                      ---
             STORAGE =    35608725.0268               STORAGE =       17996.1129
       CONSTANT HEAD =    28871715.4573         CONSTANT HEAD =       35134.1111
               WELLS =           0.0000                 WELLS =           0.0000
            RECHARGE =    23901600.0000              RECHARGE =           0.0000
      STREAM LEAKAGE =     8732029.7138        STREAM LEAKAGE =       11835.7231

            TOTAL IN =    97114070.1978              TOTAL IN =       64965.9471

          OUT:                                     OUT:
          ----                                     ----
             STORAGE =     2335768.4961               STORAGE =           0.0000
       CONSTANT HEAD =           0.0000         CONSTANT HEAD =           0.0000
               WELLS =    28183062.7292                 WELLS =       28070.7796
            RECHARGE =           0.0000              RECHARGE =           0.0000
      STREAM LEAKAGE =    66595241.1486        STREAM LEAKAGE =       36895.1727

           TOTAL OUT =    97114072.3739             TOTAL OUT =       64965.9523

            IN - OUT =          -2.1761              IN - OUT =      -5.2337E-03

 PERCENT DISCREPANCY =          -0.00     PERCENT DISCREPANCY =          -0.00






         TIME SUMMARY AT END OF TIME STEP    1 IN STRESS PERIOD   11
                    SECONDS     MINUTES      HOURS       DAYS        YEARS
                    -----------------------------------------------------------
   TIME STEP LENGTH 7.86240E+06 1.31040E+05  2184.0      91.000     0.24914    
 STRESS PERIOD TIME 7.86240E+06 1.31040E+05  2184.0      91.000     0.24914    
         TOTAL TIME 8.67456E+07 1.44576E+06  24096.      1004.0      2.7488    
1
1
                            STRESS PERIOD NO.   12, LENGTH =   91.00000    
                            -----------------------------------------------

                              NUMBER OF TIME STEPS =     1

                               MULTIPLIER FOR DELT =     1.500

                            INITIAL TIME STEP SIZE =   91.00000    

 WELL NO.  LAYER   ROW   COL   STRESS RATE         
 --------------------------------------------------
      1      1     16      2      -8562.    
      2      1     23     16      -2065.    
      3      1     13     14      -8503.    
      4      1      6     16      -8940.    

      4 WELLS

                 RECHARGE =  1.000000E-03

 REUSING STREAM SEGMENT DATA FROM LAST STRESS PERIOD
 
 SOLVING FOR HEAD 


     7 CALLS TO PCG ROUTINE FOR TIME STEP   1 IN STRESS PERIOD   12
    24 TOTAL ITERATIONS

 OUTPUT CONTROL FOR STRESS PERIOD   12   TIME STEP    1
    SAVE BUDGET
    SAVE HEAD FOR ALL LAYERS
    PRINT HEAD FOR ALL LAYERS
 UBDSV2 SAVING "STREAMFLOW OUT  " ON UNIT  50 AT TIME STEP  1, STRESS PERIOD  12



 STREAM LISTING     PERIOD     12   STEP        1

 LAYER ROW COL. STREAM  RCH.  FLOW INTO     FLOW TO   FLOW OUT OF   OVRLND.     DIRECT     STREAM       STREAM     STREAM     STREAM   STREAMBED  STREAMBED
                SEG.NO.  NO.  STRM. RCH.    AQUIFER    STRM. RCH.    RUNOFF     PRECIP       ET          HEAD       DEPTH      WIDTH   CONDCTNC.   GRADIENT

   1   13    1     1     1    1.0000E+05 -1.1112E+01   1.0001E+05  0.000E+00  0.000E+00  0.000E+00  4.84060E+01  1.447E-01  2.000E+01  2.000E+04 -5.556E-04
   1   13    2     1     2    1.0001E+05 -9.1792E+02   1.0093E+05  0.000E+00  0.000E+00  0.000E+00  4.79292E+01  1.451E-01  2.000E+01  2.000E+04 -4.590E-02
   1   14    3     1     3    1.0093E+05  8.2595E+01   1.0085E+05  0.000E+00  0.000E+00  0.000E+00  4.74522E+01  1.454E-01  2.000E+01  2.000E+04  4.130E-03
   1   15    4     1     4    1.0085E+05  1.1348E+02   1.0073E+05  0.000E+00  0.000E+00  0.000E+00  4.69749E+01  1.453E-01  2.000E+01  2.000E+04  5.674E-03
   1   16    5     1     5    1.0073E+05  7.5875E+02   9.9974E+04  0.000E+00  0.000E+00  0.000E+00  4.64972E+01  1.450E-01  2.000E+01  2.000E+04  3.794E-02
   1   16    6     1     6    9.9974E+04 -4.6849E+02   1.0044E+05  0.000E+00  0.000E+00  0.000E+00  4.60198E+01  1.448E-01  2.000E+01  2.000E+04 -2.342E-02
   1   16    7     1     7    1.0044E+05 -6.5631E+02   1.0110E+05  0.000E+00  0.000E+00  0.000E+00  4.55430E+01  1.453E-01  2.000E+01  2.000E+04 -3.282E-02
   1   16    8     1     8    1.0110E+05 -7.4520E+02   1.0184E+05  0.000E+00  0.000E+00  0.000E+00  4.50664E+01  1.459E-01  2.000E+01  2.000E+04 -3.726E-02
   1   16    9     1     9    1.0184E+05 -7.9130E+02   1.0264E+05  0.000E+00  0.000E+00  0.000E+00  4.45898E+01  1.466E-01  2.000E+01  2.000E+04 -3.957E-02
   1   16   10     1    10    1.0264E+05 -8.1157E+02   1.0345E+05  0.000E+00  0.000E+00  0.000E+00  4.41132E+01  1.473E-01  2.000E+01  2.000E+04 -4.058E-02
   1   16   11     1    11    1.0345E+05 -8.2606E+02   1.0427E+05  0.000E+00  0.000E+00  0.000E+00  4.36366E+01  1.480E-01  2.000E+01  2.000E+04 -4.130E-02
   1   16   12     1    12    1.0427E+05 -1.2808E+03   1.0555E+05  0.000E+00  0.000E+00  0.000E+00  4.31602E+01  1.489E-01  2.000E+01  2.000E+04 -6.404E-02
   1   15   13     1    13    1.0555E+05 -6.6717E+02   1.0622E+05  0.000E+00  0.000E+00  0.000E+00  4.26838E+01  1.497E-01  2.000E+01  2.000E+04 -3.336E-02
   1   14   14     1    14    1.0622E+05  1.6209E+03   1.0460E+05  0.000E+00  0.000E+00  0.000E+00  4.22061E+01  1.493E-01  2.000E+01  2.000E+04  8.104E-02
   1   13   15     1    15    1.0460E+05  1.4761E+03   1.0312E+05  0.000E+00  0.000E+00  0.000E+00  4.17275E+01  1.480E-01  2.000E+01  2.000E+04  7.381E-02
   1   12   16     1    16    1.0312E+05 -1.1436E+03   1.0427E+05  0.000E+00  0.000E+00  0.000E+00  4.12501E+01  1.478E-01  2.000E+01  2.000E+04 -5.718E-02
   1   12   17     1    17    1.0427E+05 -1.1040E+03   1.0537E+05  0.000E+00  0.000E+00  0.000E+00  4.07738E+01  1.488E-01  2.000E+01  2.000E+04 -5.520E-02
   1   12   18     1    18    1.0537E+05 -1.1669E+03   1.0654E+05  0.000E+00  0.000E+00  0.000E+00  4.02975E+01  1.498E-01  2.000E+01  2.000E+04 -5.834E-02
   1   12   19     1    19    1.0654E+05 -1.6409E+03   1.0818E+05  0.000E+00  0.000E+00  0.000E+00  3.98214E+01  1.509E-01  2.000E+01  2.000E+04 -8.205E-02
   1   13   20     1    20    1.0818E+05 -1.4863E+03   1.0967E+05  0.000E+00  0.000E+00  0.000E+00  3.93454E+01  1.523E-01  2.000E+01  2.000E+04 -7.432E-02
   1   14   21     1    21    1.0967E+05 -1.4632E+03   1.1113E+05  0.000E+00  0.000E+00  0.000E+00  3.88694E+01  1.535E-01  2.000E+01  2.000E+04 -7.316E-02
   1   14   22     1    22    1.1113E+05  4.7626E+03   1.0637E+05  0.000E+00  0.000E+00  0.000E+00  3.83908E+01  1.521E-01  2.000E+01  2.000E+04  2.381E-01
   1    9   30     2     1    5.0000E+04 -5.7442E+02   5.0574E+04  0.000E+00  0.000E+00  0.000E+00  4.02413E+01  1.163E-01  2.000E+01  2.000E+04 -2.872E-02
   1    9   29     2     2    5.0574E+04 -8.6076E+02   5.1435E+04  0.000E+00  0.000E+00  0.000E+00  3.99923E+01  1.173E-01  2.000E+01  2.000E+04 -4.304E-02
   1    9   28     2     3    5.1435E+04 -1.0821E+03   5.2517E+04  0.000E+00  0.000E+00  0.000E+00  3.97436E+01  1.186E-01  2.000E+01  2.000E+04 -5.410E-02
   1    9   27     2     4    5.2517E+04 -2.1399E+03   5.4657E+04  0.000E+00  0.000E+00  0.000E+00  3.94958E+01  1.208E-01  2.000E+01  2.000E+04 -1.070E-01
   1   10   26     2     5    5.4657E+04 -1.3830E+03   5.6040E+04  0.000E+00  0.000E+00  0.000E+00  3.92482E+01  1.232E-01  2.000E+01  2.000E+04 -6.915E-02
   1   11   25     2     6    5.6040E+04 -1.1851E+03   5.7225E+04  0.000E+00  0.000E+00  0.000E+00  3.89999E+01  1.249E-01  2.000E+01  2.000E+04 -5.926E-02
   1   12   24     2     7    5.7225E+04 -1.2431E+03   5.8468E+04  0.000E+00  0.000E+00  0.000E+00  3.87515E+01  1.265E-01  2.000E+01  2.000E+04 -6.216E-02
   1   13   23     2     8    5.8468E+04 -2.1734E+02   5.8686E+04  0.000E+00  0.000E+00  0.000E+00  3.85024E+01  1.274E-01  2.000E+01  2.000E+04 -1.087E-02
   1   14   22     2     9    5.8686E+04  1.9728E+03   5.6713E+04  0.000E+00  0.000E+00  0.000E+00  3.82513E+01  1.263E-01  2.000E+01  2.000E+04  9.864E-02
   1   14   22     3     1    1.6308E+05 -8.6709E+03   1.7175E+05  0.000E+00  0.000E+00  0.000E+00  3.77191E+01  1.635E-01  2.000E+01  2.000E+04 -4.335E-01
   1   15   23     3     2    1.7175E+05 -5.2234E+02   1.7227E+05  0.000E+00  0.000E+00  0.000E+00  3.68329E+01  1.662E-01  2.000E+01  2.000E+04 -2.612E-02
   1   15   24     3     3    1.7227E+05 -2.7572E+02   1.7255E+05  0.000E+00  0.000E+00  0.000E+00  3.59442E+01  1.664E-01  2.000E+01  2.000E+04 -1.379E-02
   1   15   25     3     4    1.7255E+05 -2.7015E+02   1.7282E+05  0.000E+00  0.000E+00  0.000E+00  3.50555E+01  1.666E-01  2.000E+01  2.000E+04 -1.351E-02
   1   15   26     3     5    1.7282E+05 -3.3024E+02   1.7315E+05  0.000E+00  0.000E+00  0.000E+00  3.41668E+01  1.668E-01  2.000E+01  2.000E+04 -1.651E-02
   1   16   27     3     6    1.7315E+05 -3.5881E+02   1.7351E+05  0.000E+00  0.000E+00  0.000E+00  3.32781E+01  1.670E-01  2.000E+01  2.000E+04 -1.794E-02
   1   17   28     3     7    1.7351E+05 -1.5292E+03   1.7504E+05  0.000E+00  0.000E+00  0.000E+00  3.23897E+01  1.675E-01  2.000E+01  2.000E+04 -7.646E-02
   1   18   29     3     8    1.7504E+05 -2.8362E+03   1.7787E+05  0.000E+00  0.000E+00  0.000E+00  3.15021E+01  1.688E-01  2.000E+01  2.000E+04 -1.418E-01
   1   18   30     3     9    1.7787E+05 -3.1399E+03   1.8101E+05  0.000E+00  0.000E+00  0.000E+00  3.06149E+01  1.705E-01  2.000E+01  2.000E+04 -1.570E-01



1
              HEAD IN LAYER   1 AT END OF TIME STEP   1 IN STRESS PERIOD   12
  ---------------------------------------------------------------------------

          1      2      3      4      5      6      7      8      9     10
         11     12     13     14     15     16     17     18     19     20
         21     22     23     24     25     26     27     28     29     30
 .........................................................................
   1  ****** ****** ****** ****** ****** ****** ****** ****** ****** ******
      ****** ****** ****** ****** ****** ****** ****** ****** ****** ******
      ****** ****** ****** ****** ****** ****** ****** ****** ****** ******
   2  ****** ****** ****** ****** ****** ****** ****** ****** ****** ******
      ****** ****** ****** ****** ****** ****** ****** ****** ****** ******
      ****** ****** ****** ****** ****** ****** ****** ****** ****** ******
   3  ****** ****** ****** ****** ****** ****** ****** ****** ****** ******
      ****** ****** ****** ****** ****** ****** ****** ****** ****** ******
      ****** ****** ****** ****** ****** ****** ****** ****** ****** ******
   4  ****** ****** ****** ****** ****** ****** ****** ****** ****** ******
      ****** ****** ****** ****** ****** ****** ****** ****** ****** ******
      ****** ****** ****** ****** ****** ****** ****** ****** ****** ******
   5  ****** ****** ****** ****** ****** ****** ****** ****** ****** ******
      ****** ****** ****** ****** ****** ****** ****** ****** ****** ******
      ****** ****** ****** ****** ****** ****** ****** ****** ****** ******
   6  ****** ****** ****** ****** ****** ****** ****** ****** ****** ******
      ****** ****** ****** ****** ****** ****** ****** ****** ****** ******
      ****** ****** ****** ****** ****** ****** ****** ****** ****** ******
   7  ****** ****** ****** ****** ****** ****** ****** ****** ****** ******
      ****** ****** ****** ****** ****** ****** ****** ****** ****** ******
      ****** ****** ****** ****** ****** ****** ****** ****** ****** ******
   8  ****** ****** ****** ****** ****** ****** ****** ****** ****** ******
      ****** ****** ****** ****** ****** ****** ****** ****** ****** ******
      ****** ****** ****** ****** ****** ****** ****** ****** ****** ******
   9  ****** ****** ****** ****** ****** ****** ****** ****** ****** ******
      ****** ****** ****** ****** ****** ****** ****** ****** ****** ******
      ****** ****** ****** ****** ****** ****** ****** ****** ****** ******
  10  ****** ****** ****** ****** ****** ****** ****** ****** ****** ******
      ****** ****** ****** ****** ****** ****** ****** ****** ****** ******
      ****** ****** ****** ****** ****** ****** ****** ****** ****** ******
  11  ****** ****** ****** ****** ****** ****** ****** ****** ****** ******
      ****** ****** ****** ****** ****** ****** ****** ****** ****** ******
      ****** ****** ****** ****** ****** ****** ****** ****** ****** ******
  12  ****** ****** ****** ****** ****** ****** ****** ****** ****** ******
      ****** ****** ****** ****** ****** ****** ****** ****** ****** ******
      ****** ****** ****** ****** ****** ****** ****** ****** ****** ******
  13  ****** ****** ****** ****** ****** ****** ****** ****** ****** ******
      ****** ****** ****** ****** ****** ****** ****** ****** ****** ******
      ****** ****** ****** ****** ****** ****** ****** ****** ****** ******
  14  ****** ****** ****** ****** ****** ****** ****** ****** ****** ******
      ****** ****** ****** ****** ****** ****** ****** ****** ****** ******
      ****** ****** ****** ****** ****** ****** ****** ****** ****** ******
  15  ****** ****** ****** ****** ****** ****** ****** ****** ****** ******
      ****** ****** ****** ****** ****** ****** ****** ****** ****** ******
      ****** ****** ****** ****** ****** ****** ****** ****** ****** ******
  16  ****** ****** ****** ****** ****** ****** ****** ****** ****** ******
      ****** ****** ****** ****** ****** ****** ****** ****** ****** ******
      ****** ****** ****** ****** ****** ****** ****** ****** ****** ******
  17  ****** ****** ****** ****** ****** ****** ****** ****** ****** ******
      ****** ****** ****** ****** ****** ****** ****** ****** ****** ******
      ****** ****** ****** ****** ****** ****** ****** ****** ****** ******
  18  ****** ****** ****** ****** ****** ****** ****** ****** ****** ******
      ****** ****** ****** ****** ****** ****** ****** ****** ****** ******
      ****** ****** ****** ****** ****** ****** ****** ****** ****** ******
  19  ****** ****** ****** ****** ****** ****** ****** ****** ****** ******
      ****** ****** ****** ****** ****** ****** ****** ****** ****** ******
      ****** ****** ****** ****** ****** ****** ****** ****** ****** ******
  20  ****** ****** ****** ****** ****** ****** ****** ****** ****** ******
      ****** ****** ****** ****** ****** ****** ****** ****** ****** ******
      ****** ****** ****** ****** ****** ****** ****** ****** ****** ******
  21  ****** ****** ****** ****** ****** ****** ****** ****** ****** ******
      ****** ****** ****** ****** ****** ****** ****** ****** ****** ******
      ****** ****** ****** ****** ****** ****** ****** ****** ****** ******
  22  ****** ****** ****** ****** ****** ****** ****** ****** ****** ******
      ****** ****** ****** ****** ****** ****** ****** ****** ****** ******
      ****** ****** ****** ****** ****** ****** ****** ****** ****** ******
  23  ****** ****** ****** ****** ****** ****** ****** ****** ****** ******
      ****** ****** ****** ****** ****** ****** ****** ****** ****** ******
      ****** ****** ****** ****** ****** ****** ****** ****** ****** ******
  24  ****** ****** ****** ****** ****** ****** ****** ****** ****** ******
      ****** ****** ****** ****** ****** ****** ****** ****** ****** ******
      ****** ****** ****** ****** ****** ****** ****** ****** ****** ******
  25  ****** ****** ****** ****** ****** ****** ****** ****** ****** ******
      ****** ****** ****** ****** ****** ****** ****** ****** ****** ******
      ****** ****** ****** ****** ****** ****** ****** ****** ****** ******

 HEAD WILL BE SAVED ON UNIT   51 AT END OF TIME STEP    1, STRESS PERIOD   12
1
  VOLUMETRIC BUDGET FOR ENTIRE MODEL AT END OF TIME STEP    1, STRESS PERIOD  12
  ------------------------------------------------------------------------------

     CUMULATIVE VOLUMES      L**3       RATES FOR THIS TIME STEP      L**3/T
     ------------------                 ------------------------

           IN:                                      IN:
           ---                                      ---
             STORAGE =    35610307.8250               STORAGE =          17.3934
       CONSTANT HEAD =    32005967.7152         CONSTANT HEAD =       34442.3325
               WELLS =           0.0000                 WELLS =           0.0000
            RECHARGE =    26413200.0000              RECHARGE =       27600.0000
      STREAM LEAKAGE =     9713670.3235        STREAM LEAKAGE =       10787.2594

            TOTAL IN =   103743145.8637              TOTAL IN =       72846.9853

          OUT:                                     OUT:
          ----                                     ----
             STORAGE =     2606596.0314               STORAGE =        2976.1268
       CONSTANT HEAD =           0.0000         CONSTANT HEAD =           0.0000
               WELLS =    30737503.6738                 WELLS =       28070.7796
            RECHARGE =           0.0000              RECHARGE =           0.0000
      STREAM LEAKAGE =    70399048.2443        STREAM LEAKAGE =       41800.0780

           TOTAL OUT =   103743147.9496             TOTAL OUT =       72846.9843

            IN - OUT =          -2.0859              IN - OUT =       9.9145E-04

 PERCENT DISCREPANCY =          -0.00     PERCENT DISCREPANCY =           0.00






         TIME SUMMARY AT END OF TIME STEP    1 IN STRESS PERIOD   12
                    SECONDS     MINUTES      HOURS       DAYS        YEARS
                    -----------------------------------------------------------
   TIME STEP LENGTH 7.86240E+06 1.31040E+05  2184.0      91.000     0.24914    
 STRESS PERIOD TIME 7.86240E+06 1.31040E+05  2184.0      91.000     0.24914    
         TOTAL TIME 9.46080E+07 1.57680E+06  26280.      1095.0      2.9979    
1

 Run end date and time (yyyy/mm/dd hh:mm:ss): 2019/03/28 21:46:11
 Elapsed run time:  0.123 Seconds

