                                  MODFLOW-2005     
      U.S. GEOLOGICAL SURVEY MODULAR FINITE-DIFFERENCE GROUND-WATER FLOW MODEL
                            VERSION 1.11.00 8/8/2013

 LIST FILE: supply2.lst
                         UNIT   10

 OPENING ..\data\supply.dis
 FILE TYPE:DIS   UNIT   11   STATUS:OLD    
 FORMAT:FORMATTED              ACCESS:SEQUENTIAL          

 OPENING ..\data\supply.ba6
 FILE TYPE:BAS6   UNIT   12   STATUS:OLD    
 FORMAT:FORMATTED              ACCESS:SEQUENTIAL          

 OPENING ..\data\supply_het.bc6
 FILE TYPE:BCF6   UNIT   13   STATUS:OLD    
 FORMAT:FORMATTED              ACCESS:SEQUENTIAL          

 OPENING ..\data\supply.rch
 FILE TYPE:RCH   UNIT   15   STATUS:OLD    
 FORMAT:FORMATTED              ACCESS:SEQUENTIAL          

 OPENING ..\data\supply2.sfr
 FILE TYPE:SFR   UNIT   16   STATUS:OLD    
 FORMAT:FORMATTED              ACCESS:SEQUENTIAL          

 OPENING ..\data\supply.oc
 FILE TYPE:OC   UNIT   17   STATUS:OLD    
 FORMAT:FORMATTED              ACCESS:SEQUENTIAL          

 OPENING ..\data\supply.pcg
 FILE TYPE:PCG   UNIT   18   STATUS:OLD    
 FORMAT:FORMATTED              ACCESS:SEQUENTIAL          

 OPENING supply2.wel
 FILE TYPE:WEL   UNIT   19   STATUS:OLD    
 FORMAT:FORMATTED              ACCESS:SEQUENTIAL          

 OPENING supply2sf.cbc
 FILE TYPE:DATA(BINARY)   UNIT   50   STATUS:UNKNOWN
 FORMAT:BINARY                 ACCESS:SEQUENTIAL          

 OPENING supply2hd.bhd
 FILE TYPE:DATA(BINARY)   UNIT   51   STATUS:UNKNOWN
 FORMAT:BINARY                 ACCESS:SEQUENTIAL          

 BAS -- BASIC PACKAGE, VERSION 7, 5/2/2005 INPUT READ FROM UNIT   12
 
 MODFLOW was compiled using uniform precision
 Precision of REAL and DOUBLE PRECISION variables:          15

 DISCRETIZATION INPUT DATA READ FROM UNIT   11
    1 LAYERS        25 ROWS        30 COLUMNS
   12 STRESS PERIOD(S) IN SIMULATION
 MODEL TIME UNIT IS DAYS
 MODEL LENGTH UNIT IS UNDEFINED
  Confining bed flag for each layer:
   0

                     DELR =   200.000    

                     DELC =   200.000    

 TOP ELEVATION OF LAYER 1 =  100.0000    

   MODEL LAYER BOTTOM EL. =   0.00000     FOR LAYER   1


 STRESS PERIOD     LENGTH       TIME STEPS     MULTIPLIER FOR DELT    SS FLAG
 ----------------------------------------------------------------------------
        1         92.00000          1                    1.500         TR
        2         91.00000          1                    1.500         TR
        3         91.00000          1                    1.500         TR
        4         91.00000          1                    1.500         TR
        5         92.00000          1                    1.500         TR
        6         91.00000          1                    1.500         TR
        7         91.00000          1                    1.500         TR
        8         91.00000          1                    1.500         TR
        9         92.00000          1                    1.500         TR
       10         91.00000          1                    1.500         TR
       11         91.00000          1                    1.500         TR
       12         91.00000          1                    1.500         TR

 TRANSIENT SIMULATION



 
 #MODOFC transient water supply sample problem                                   
 #                                                                               
 THE FREE FORMAT OPTION HAS BEEN SELECTED



                     BOUNDARY ARRAY FOR LAYER   1
 READING ON UNIT   12 WITH FORMAT: (20I4)              

 AQUIFER HEAD WILL BE SET TO   0.0000     AT ALL NO-FLOW NODES (IBOUND=0).



                       INITIAL HEAD FOR LAYER   1
 READING ON UNIT   12 WITH FORMAT: (10F13.0)           

 OUTPUT CONTROL IS SPECIFIED ONLY AT TIME STEPS FOR WHICH OUTPUT IS DESIRED
 COMPACT CELL-BY-CELL BUDGET FILES WILL BE WRITTEN
 HEAD PRINT FORMAT CODE IS  18    DRAWDOWN PRINT FORMAT CODE IS   0
 HEADS WILL BE SAVED ON UNIT   51    DRAWDOWNS WILL BE SAVED ON UNIT    0

 BCF -- BLOCK-CENTERED FLOW PACKAGE, VERSION 7, 5/2/2005
         INPUT READ FROM UNIT 13
 TRANSIENT SIMULATION
 HEAD AT CELLS THAT CONVERT TO DRY=   0.0000    
 WETTING CAPABILITY IS NOT ACTIVE
      LAYER  LAYER-TYPE CODE     INTERBLOCK T
      --------------------------------------------
         1            0          0 -- HARMONIC    

 COLUMN TO ROW ANISOTROPY =  1.000000    

     PRIMARY STORAGE COEF =  5.000000E-02 FOR LAYER   1



               TRANSMIS. ALONG ROWS FOR LAYER   1
 READING ON UNIT   13 WITH FORMAT: (FREE)              

 WEL -- WELL PACKAGE, VERSION 7, 5/2/2005 INPUT READ FROM UNIT   19
 # Well package input file written by MMProc
 No named parameters
 MAXIMUM OF      4 ACTIVE WELLS AT ONE TIME


     0 Well parameters

 RCH -- RECHARGE PACKAGE, VERSION 7, 5/2/2005 INPUT READ FROM UNIT   15
 No named parameters
 OPTION 1 -- RECHARGE TO TOP LAYER


     0 Recharge parameters

 SFR7 -- STREAMFLOW ROUTING PACKAGE, VERSION 1.0.7, 2013-01-15
         INPUT READ FROM UNIT  16
 #  Supply2 test problem for GWM-VI
 #  The eighth entry in the first data line is ISTCB2 -
 #    Setting this to a negative number indicates that
 #    streamflows out of the reach will be saved to a
 #    binary file.  The absolute value of ISTCB2 is the
 #    unit to which unformatted flows will be written.
 #
 No named parameters
 Segment information will not be 
 read by reach
 No named parameters
 No specifed inflow files


 NUMBER OF STREAM REACHES IS   40

 NUMBER OF STREAM SEGMENTS IS    3

 NUMBER OF STREAM PARAMETERS IS    0

 NUMBER OF STREAM SEGMENTS DEFINED USING PARAMETERS IS              0

 MAXIMUM ERROR FOR STREAM LEAKAGE RATES IS  1.00E-04

 CONSTANT FOR MANNINGS EQUATION IS  1.2839E+05





   STREAM NETWORK DESCRIPTION: 

   LAYER    ROW    COL   SEGMENT   REACH     LENGTH
                          NUMBER   NUMBER    IN CELL        
   --------------------------------------------------
      1     13      1       1        1    2.0000E+02
      1     13      2       1        2    2.0000E+02
      1     14      3       1        3    2.0000E+02
      1     15      4       1        4    2.0000E+02
      1     16      5       1        5    2.0000E+02
      1     16      6       1        6    2.0000E+02
      1     16      7       1        7    2.0000E+02
      1     16      8       1        8    2.0000E+02
      1     16      9       1        9    2.0000E+02
      1     16     10       1       10    2.0000E+02
      1     16     11       1       11    2.0000E+02
      1     16     12       1       12    2.0000E+02
      1     15     13       1       13    2.0000E+02
      1     14     14       1       14    2.0000E+02
      1     13     15       1       15    2.0000E+02
      1     12     16       1       16    2.0000E+02
      1     12     17       1       17    2.0000E+02
      1     12     18       1       18    2.0000E+02
      1     12     19       1       19    2.0000E+02
      1     13     20       1       20    2.0000E+02
      1     14     21       1       21    2.0000E+02
      1     14     22       1       22    2.0000E+02
      1      9     30       2        1    2.0000E+02
      1      9     29       2        2    2.0000E+02
      1      9     28       2        3    2.0000E+02
      1      9     27       2        4    2.0000E+02
      1     10     26       2        5    2.0000E+02
      1     11     25       2        6    2.0000E+02
      1     12     24       2        7    2.0000E+02
      1     13     23       2        8    2.0000E+02
      1     14     22       2        9    2.0000E+02
      1     14     22       3        1    2.0000E+02
      1     15     23       3        2    2.0000E+02
      1     15     24       3        3    2.0000E+02
      1     15     25       3        4    2.0000E+02
      1     15     26       3        5    2.0000E+02
      1     16     27       3        6    2.0000E+02
      1     17     28       3        7    2.0000E+02
      1     18     29       3        8    2.0000E+02
      1     18     30       3        9    2.0000E+02




 PCG -- CONJUGATE-GRADIENT SOLUTION PACKAGE, VERSION 7, 5/2/2005
 MAXIMUM OF    500 CALLS OF SOLUTION ROUTINE
 MAXIMUM OF      5 INTERNAL ITERATIONS PER CALL TO SOLUTION ROUTINE
 MATRIX PRECONDITIONING TYPE :    1



                                    SOLUTION BY THE CONJUGATE-GRADIENT METHOD
                                   -------------------------------------------
                    MAXIMUM NUMBER OF CALLS TO PCG ROUTINE =      500
                        MAXIMUM ITERATIONS PER CALL TO PCG =        5
                               MATRIX PRECONDITIONING TYPE =        1
        RELAXATION FACTOR (ONLY USED WITH PRECOND. TYPE 1) =    0.10000E+01
 PARAMETER OF POLYNOMIAL PRECOND. = 2 (2) OR IS CALCULATED :        0
                         HEAD CHANGE CRITERION FOR CLOSURE =    0.10000E-05
                     RESIDUAL CHANGE CRITERION FOR CLOSURE =    0.10000E+01
            PCG HEAD AND RESIDUAL CHANGE PRINTOUT INTERVAL =        1
     PRINTING FROM SOLVER IS LIMITED(1) OR SUPPRESSED (>1) =        1
                            STEADY-STATE DAMPING PARAMETER =    0.10000E+01
                               TRANSIENT DAMPING PARAMETER =    0.10000E+01
1
                            STRESS PERIOD NO.    1, LENGTH =   92.00000    
                            -----------------------------------------------

                              NUMBER OF TIME STEPS =     1

                               MULTIPLIER FOR DELT =     1.500

                            INITIAL TIME STEP SIZE =   92.00000    

 WELL NO.  LAYER   ROW   COL   STRESS RATE         
 --------------------------------------------------
      1      1     15      4     -0.1412E+05
      2      1     11     22     -0.1126E+05
      3      1     18     29     -0.4576E+05
      4      1     14     29      -9979.    

      4 WELLS

                 RECHARGE =  5.000000E-04



 CLASSIFICATION & COUNT OF STREAM SEGMENTS BASED ON SOURCE OF INFLOW:

                HEADWATER     DIVERSION     RECEIVES TRIBUTARY FLOW
                ---------     ---------     -----------------------
                     2              0               1



                    INPUT DATA FOR EACH STREAM SEGMENT
 ---------------------------------------------------------------------------------------------

 SEGMENT    SEG.     INFLOW   OVERLAND   STREAM    STREAM   ICALC  OUTFLOW  DIVERSION PRIORITY
    NO.    LENGTH     RATE     RUNOFF      ET       PPT.    METH.  TO SEG.  FROM SEG.    NO.

      1  4.400E+03 1.000E+05 0.000E+00 0.000E+00 0.000E+00    1        3        0        0
      2  1.800E+03 5.000E+04 0.000E+00 0.000E+00 0.000E+00    1        3        0        0
      3  1.800E+03 0.000E+00 0.000E+00 0.000E+00 0.000E+00    1        0        0        0


         STREAMBED PROPERTIES AND STREAM DIMENSIONS

 SEGMENT     BED HYD. COND.      BED THICKNESS     ELEV.-TOP OF BED     WIDTH OF STREAM     DEPTH OF STREAM    STREAM ROUGHNESS
    No.     UPPER     LOWER     UPPER     LOWER     UPPER     LOWER     UPPER     LOWER     UPPER     LOWER   CHANNEL      BANK

     1  5.000E+00 5.000E+00 1.000E+00 1.000E+00 4.850E+01 3.800E+01 2.000E+01 2.000E+01                     5.000E-02
     2  5.000E+00 5.000E+00 1.000E+00 1.000E+00 4.025E+01 3.800E+01 2.000E+01 2.000E+01                     5.000E-02
     3  5.000E+00 5.000E+00 1.000E+00 1.000E+00 3.800E+01 3.000E+01 2.000E+01 2.000E+01                     5.000E-02



 
 SOLVING FOR HEAD 


     9 CALLS TO PCG ROUTINE FOR TIME STEP   1 IN STRESS PERIOD    1
    39 TOTAL ITERATIONS

 OUTPUT CONTROL FOR STRESS PERIOD    1   TIME STEP    1
    SAVE BUDGET
    SAVE HEAD FOR ALL LAYERS
    PRINT HEAD FOR ALL LAYERS
 UBDSV2 SAVING "STREAMFLOW OUT  " ON UNIT  50 AT TIME STEP  1, STRESS PERIOD   1



 STREAM LISTING     PERIOD      1   STEP        1

 LAYER ROW COL. STREAM  RCH.  FLOW INTO     FLOW TO   FLOW OUT OF   OVRLND.     DIRECT     STREAM       STREAM     STREAM     STREAM   STREAMBED  STREAMBED
                SEG.NO.  NO.  STRM. RCH.    AQUIFER    STRM. RCH.    RUNOFF     PRECIP       ET          HEAD       DEPTH      WIDTH   CONDCTNC.   GRADIENT

   1   13    1     1     1    1.0000E+05 -6.1179E+03   1.0612E+05  0.000E+00  0.000E+00  0.000E+00  4.84087E+01  1.473E-01  2.000E+01  2.000E+04 -3.059E-01
   1   13    2     1     2    1.0612E+05 -7.5858E+03   1.1370E+05  0.000E+00  0.000E+00  0.000E+00  4.79372E+01  1.531E-01  2.000E+01  2.000E+04 -3.793E-01
   1   14    3     1     3    1.1370E+05 -2.1807E+03   1.1588E+05  0.000E+00  0.000E+00  0.000E+00  4.74640E+01  1.571E-01  2.000E+01  2.000E+04 -1.090E-01
   1   15    4     1     4    1.1588E+05  1.1696E+04   1.0419E+05  0.000E+00  0.000E+00  0.000E+00  4.69827E+01  1.532E-01  2.000E+01  2.000E+04  5.848E-01
   1   16    5     1     5    1.0419E+05 -7.1414E+03   1.1133E+05  0.000E+00  0.000E+00  0.000E+00  4.65036E+01  1.513E-01  2.000E+01  2.000E+04 -3.571E-01
   1   16    6     1     6    1.1133E+05 -4.2997E+03   1.1563E+05  0.000E+00  0.000E+00  0.000E+00  4.60311E+01  1.561E-01  2.000E+01  2.000E+04 -2.150E-01
   1   16    7     1     7    1.1563E+05 -4.1396E+03   1.1977E+05  0.000E+00  0.000E+00  0.000E+00  4.55572E+01  1.595E-01  2.000E+01  2.000E+04 -2.070E-01
   1   16    8     1     8    1.1977E+05 -4.1007E+03   1.2387E+05  0.000E+00  0.000E+00  0.000E+00  4.50833E+01  1.628E-01  2.000E+01  2.000E+04 -2.050E-01
   1   16    9     1     9    1.2387E+05 -4.0915E+03   1.2796E+05  0.000E+00  0.000E+00  0.000E+00  4.46093E+01  1.661E-01  2.000E+01  2.000E+04 -2.046E-01
   1   16   10     1    10    1.2796E+05 -4.0904E+03   1.3205E+05  0.000E+00  0.000E+00  0.000E+00  4.41352E+01  1.693E-01  2.000E+01  2.000E+04 -2.045E-01
   1   16   11     1    11    1.3205E+05 -4.1282E+03   1.3618E+05  0.000E+00  0.000E+00  0.000E+00  4.36611E+01  1.725E-01  2.000E+01  2.000E+04 -2.064E-01
   1   16   12     1    12    1.3618E+05 -7.0214E+03   1.4320E+05  0.000E+00  0.000E+00  0.000E+00  4.31881E+01  1.768E-01  2.000E+01  2.000E+04 -3.511E-01
   1   15   13     1    13    1.4320E+05 -7.3439E+03   1.5055E+05  0.000E+00  0.000E+00  0.000E+00  4.27163E+01  1.822E-01  2.000E+01  2.000E+04 -3.672E-01
   1   14   14     1    14    1.5055E+05 -7.8430E+03   1.5839E+05  0.000E+00  0.000E+00  0.000E+00  4.22446E+01  1.878E-01  2.000E+01  2.000E+04 -3.921E-01
   1   13   15     1    15    1.5839E+05 -8.1820E+03   1.6657E+05  0.000E+00  0.000E+00  0.000E+00  4.17731E+01  1.936E-01  2.000E+01  2.000E+04 -4.091E-01
   1   12   16     1    16    1.6657E+05 -8.7897E+03   1.7536E+05  0.000E+00  0.000E+00  0.000E+00  4.13018E+01  1.996E-01  2.000E+01  2.000E+04 -4.395E-01
   1   12   17     1    17    1.7536E+05 -6.1927E+03   1.8155E+05  0.000E+00  0.000E+00  0.000E+00  4.08298E+01  2.048E-01  2.000E+01  2.000E+04 -3.096E-01
   1   12   18     1    18    1.8155E+05 -5.9178E+03   1.8747E+05  0.000E+00  0.000E+00  0.000E+00  4.03566E+01  2.089E-01  2.000E+01  2.000E+04 -2.959E-01
   1   12   19     1    19    1.8747E+05 -6.7426E+03   1.9421E+05  0.000E+00  0.000E+00  0.000E+00  3.98836E+01  2.132E-01  2.000E+01  2.000E+04 -3.371E-01
   1   13   20     1    20    1.9421E+05 -5.7744E+03   1.9999E+05  0.000E+00  0.000E+00  0.000E+00  3.94105E+01  2.173E-01  2.000E+01  2.000E+04 -2.887E-01
   1   14   21     1    21    1.9999E+05 -5.9104E+03   2.0590E+05  0.000E+00  0.000E+00  0.000E+00  3.89371E+01  2.212E-01  2.000E+01  2.000E+04 -2.955E-01
   1   14   22     1    22    2.0590E+05  3.9011E+03   2.0200E+05  0.000E+00  0.000E+00  0.000E+00  3.84605E+01  2.218E-01  2.000E+01  2.000E+04  1.951E-01
   1    9   30     2     1    5.0000E+04 -4.1383E+03   5.4138E+04  0.000E+00  0.000E+00  0.000E+00  4.02437E+01  1.187E-01  2.000E+01  2.000E+04 -2.069E-01
   1    9   29     2     2    5.4138E+04 -4.4849E+03   5.8623E+04  0.000E+00  0.000E+00  0.000E+00  3.99995E+01  1.245E-01  2.000E+01  2.000E+04 -2.242E-01
   1    9   28     2     3    5.8623E+04 -4.8812E+03   6.3504E+04  0.000E+00  0.000E+00  0.000E+00  3.97556E+01  1.306E-01  2.000E+01  2.000E+04 -2.441E-01
   1    9   27     2     4    6.3504E+04 -7.7711E+03   7.1276E+04  0.000E+00  0.000E+00  0.000E+00  3.95136E+01  1.386E-01  2.000E+01  2.000E+04 -3.886E-01
   1   10   26     2     5    7.1276E+04 -6.3395E+03   7.7615E+04  0.000E+00  0.000E+00  0.000E+00  3.92721E+01  1.471E-01  2.000E+01  2.000E+04 -3.170E-01
   1   11   25     2     6    7.7615E+04 -5.3406E+03   8.2956E+04  0.000E+00  0.000E+00  0.000E+00  3.90289E+01  1.539E-01  2.000E+01  2.000E+04 -2.670E-01
   1   12   24     2     7    8.2956E+04 -4.1705E+03   8.7126E+04  0.000E+00  0.000E+00  0.000E+00  3.87843E+01  1.593E-01  2.000E+01  2.000E+04 -2.085E-01
   1   13   23     2     8    8.7126E+04 -1.2586E+03   8.8385E+04  0.000E+00  0.000E+00  0.000E+00  3.85374E+01  1.624E-01  2.000E+01  2.000E+04 -6.293E-02
   1   14   22     2     9    8.8385E+04  4.4824E+02   8.7936E+04  0.000E+00  0.000E+00  0.000E+00  3.82878E+01  1.628E-01  2.000E+01  2.000E+04  2.241E-02
   1   14   22     3     1    2.8993E+05 -9.6054E+03   2.9954E+05  0.000E+00  0.000E+00  0.000E+00  3.77851E+01  2.296E-01  2.000E+01  2.000E+04 -4.803E-01
   1   15   23     3     2    2.9954E+05 -1.9815E+03   3.0152E+05  0.000E+00  0.000E+00  0.000E+00  3.68990E+01  2.323E-01  2.000E+01  2.000E+04 -9.907E-02
   1   15   24     3     3    3.0152E+05 -1.5186E+03   3.0304E+05  0.000E+00  0.000E+00  0.000E+00  3.60109E+01  2.331E-01  2.000E+01  2.000E+04 -7.593E-02
   1   15   25     3     4    3.0304E+05 -1.5500E+03   3.0459E+05  0.000E+00  0.000E+00  0.000E+00  3.51227E+01  2.338E-01  2.000E+01  2.000E+04 -7.750E-02
   1   15   26     3     5    3.0459E+05 -1.6563E+03   3.0625E+05  0.000E+00  0.000E+00  0.000E+00  3.42346E+01  2.346E-01  2.000E+01  2.000E+04 -8.281E-02
   1   16   27     3     6    3.0625E+05 -1.6408E+03   3.0789E+05  0.000E+00  0.000E+00  0.000E+00  3.33464E+01  2.353E-01  2.000E+01  2.000E+04 -8.204E-02
   1   17   28     3     7    3.0789E+05 -4.7340E+02   3.0836E+05  0.000E+00  0.000E+00  0.000E+00  3.24580E+01  2.358E-01  2.000E+01  2.000E+04 -2.367E-02
   1   18   29     3     8    3.0836E+05  2.4604E+04   2.8376E+05  0.000E+00  0.000E+00  0.000E+00  3.15635E+01  2.302E-01  2.000E+01  2.000E+04  1.230E+00
   1   18   30     3     9    2.8376E+05  3.1760E+02   2.8344E+05  0.000E+00  0.000E+00  0.000E+00  3.06688E+01  2.243E-01  2.000E+01  2.000E+04  1.588E-02



1
              HEAD IN LAYER   1 AT END OF TIME STEP   1 IN STRESS PERIOD    1
  ---------------------------------------------------------------------------

          1      2      3      4      5      6      7      8      9     10
         11     12     13     14     15     16     17     18     19     20
         21     22     23     24     25     26     27     28     29     30
 .........................................................................
   1  ****** ****** ****** ****** ****** ****** ****** ****** ****** ******
      ****** ****** ****** ****** ****** ****** ****** ****** ****** ******
      ****** ****** ****** ****** ****** ****** ****** ****** ****** ******
   2  ****** ****** ****** ****** ****** ****** ****** ****** ****** ******
      ****** ****** ****** ****** ****** ****** ****** ****** ****** ******
      ****** ****** ****** ****** ****** ****** ****** ****** ****** ******
   3  ****** ****** ****** ****** ****** ****** ****** ****** ****** ******
      ****** ****** ****** ****** ****** ****** ****** ****** ****** ******
      ****** ****** ****** ****** ****** ****** ****** ****** ****** ******
   4  ****** ****** ****** ****** ****** ****** ****** ****** ****** ******
      ****** ****** ****** ****** ****** ****** ****** ****** ****** ******
      ****** ****** ****** ****** ****** ****** ****** ****** ****** ******
   5  ****** ****** ****** ****** ****** ****** ****** ****** ****** ******
      ****** ****** ****** ****** ****** ****** ****** ****** ****** ******
      ****** ****** ****** ****** ****** ****** ****** ****** ****** ******
   6  ****** ****** ****** ****** ****** ****** ****** ****** ****** ******
      ****** ****** ****** ****** ****** ****** ****** ****** ****** ******
      ****** ****** ****** ****** ****** ****** ****** ****** ****** ******
   7  ****** ****** ****** ****** ****** ****** ****** ****** ****** ******
      ****** ****** ****** ****** ****** ****** ****** ****** ****** ******
      ****** ****** ****** ****** ****** ****** ****** ****** ****** ******
   8  ****** ****** ****** ****** ****** ****** ****** ****** ****** ******
      ****** ****** ****** ****** ****** ****** ****** ****** ****** ******
      ****** ****** ****** ****** ****** ****** ****** ****** ****** ******
   9  ****** ****** ****** ****** ****** ****** ****** ****** ****** ******
      ****** ****** ****** ****** ****** ****** ****** ****** ****** ******
      ****** ****** ****** ****** ****** ****** ****** ****** ****** ******
  10  ****** ****** ****** ****** ****** ****** ****** ****** ****** ******
      ****** ****** ****** ****** ****** ****** ****** ****** ****** ******
      ****** ****** ****** ****** ****** ****** ****** ****** ****** ******
  11  ****** ****** ****** ****** ****** ****** ****** ****** ****** ******
      ****** ****** ****** ****** ****** ****** ****** ****** ****** ******
      ****** ****** ****** ****** ****** ****** ****** ****** ****** ******
  12  ****** ****** ****** ****** ****** ****** ****** ****** ****** ******
      ****** ****** ****** ****** ****** ****** ****** ****** ****** ******
      ****** ****** ****** ****** ****** ****** ****** ****** ****** ******
  13  ****** ****** ****** ****** ****** ****** ****** ****** ****** ******
      ****** ****** ****** ****** ****** ****** ****** ****** ****** ******
      ****** ****** ****** ****** ****** ****** ****** ****** ****** ******
  14  ****** ****** ****** ****** ****** ****** ****** ****** ****** ******
      ****** ****** ****** ****** ****** ****** ****** ****** ****** ******
      ****** ****** ****** ****** ****** ****** ****** ****** ****** ******
  15  ****** ****** ****** ****** ****** ****** ****** ****** ****** ******
      ****** ****** ****** ****** ****** ****** ****** ****** ****** ******
      ****** ****** ****** ****** ****** ****** ****** ****** ****** ******
  16  ****** ****** ****** ****** ****** ****** ****** ****** ****** ******
      ****** ****** ****** ****** ****** ****** ****** ****** ****** ******
      ****** ****** ****** ****** ****** ****** ****** ****** ****** ******
  17  ****** ****** ****** ****** ****** ****** ****** ****** ****** ******
      ****** ****** ****** ****** ****** ****** ****** ****** ****** ******
      ****** ****** ****** ****** ****** ****** ****** ****** ****** ******
  18  ****** ****** ****** ****** ****** ****** ****** ****** ****** ******
      ****** ****** ****** ****** ****** ****** ****** ****** ****** ******
      ****** ****** ****** ****** ****** ****** ****** ****** ****** ******
  19  ****** ****** ****** ****** ****** ****** ****** ****** ****** ******
      ****** ****** ****** ****** ****** ****** ****** ****** ****** ******
      ****** ****** ****** ****** ****** ****** ****** ****** ****** ******
  20  ****** ****** ****** ****** ****** ****** ****** ****** ****** ******
      ****** ****** ****** ****** ****** ****** ****** ****** ****** ******
      ****** ****** ****** ****** ****** ****** ****** ****** ****** ******
  21  ****** ****** ****** ****** ****** ****** ****** ****** ****** ******
      ****** ****** ****** ****** ****** ****** ****** ****** ****** ******
      ****** ****** ****** ****** ****** ****** ****** ****** ****** ******
  22  ****** ****** ****** ****** ****** ****** ****** ****** ****** ******
      ****** ****** ****** ****** ****** ****** ****** ****** ****** ******
      ****** ****** ****** ****** ****** ****** ****** ****** ****** ******
  23  ****** ****** ****** ****** ****** ****** ****** ****** ****** ******
      ****** ****** ****** ****** ****** ****** ****** ****** ****** ******
      ****** ****** ****** ****** ****** ****** ****** ****** ****** ******
  24  ****** ****** ****** ****** ****** ****** ****** ****** ****** ******
      ****** ****** ****** ****** ****** ****** ****** ****** ****** ******
      ****** ****** ****** ****** ****** ****** ****** ****** ****** ******
  25  ****** ****** ****** ****** ****** ****** ****** ****** ****** ******
      ****** ****** ****** ****** ****** ****** ****** ****** ****** ******
      ****** ****** ****** ****** ****** ****** ****** ****** ****** ******

 HEAD WILL BE SAVED ON UNIT   51 AT END OF TIME STEP    1, STRESS PERIOD    1
1
  VOLUMETRIC BUDGET FOR ENTIRE MODEL AT END OF TIME STEP    1, STRESS PERIOD   1
  ------------------------------------------------------------------------------

     CUMULATIVE VOLUMES      L**3       RATES FOR THIS TIME STEP      L**3/T
     ------------------                 ------------------------

           IN:                                      IN:
           ---                                      ---
             STORAGE =    17359484.8476               STORAGE =      188690.0527
       CONSTANT HEAD =     1110364.4691         CONSTANT HEAD =       12069.1790
               WELLS =           0.0000                 WELLS =           0.0000
            RECHARGE =     1269600.0000              RECHARGE =       13800.0000
      STREAM LEAKAGE =     3768939.0853        STREAM LEAKAGE =       40966.7292

            TOTAL IN =    23508388.4020              TOTAL IN =      255525.9609

          OUT:                                     OUT:
          ----                                     ----
             STORAGE =           0.0000               STORAGE =           0.0000
       CONSTANT HEAD =           0.0000         CONSTANT HEAD =           0.0000
               WELLS =     7463184.5678                 WELLS =       81121.5714
            RECHARGE =           0.0000              RECHARGE =           0.0000
      STREAM LEAKAGE =    16045204.3757        STREAM LEAKAGE =      174404.3954

           TOTAL OUT =    23508388.9434             TOTAL OUT =      255525.9668

            IN - OUT =          -0.5415              IN - OUT =      -5.8855E-03

 PERCENT DISCREPANCY =          -0.00     PERCENT DISCREPANCY =          -0.00






         TIME SUMMARY AT END OF TIME STEP    1 IN STRESS PERIOD    1
                    SECONDS     MINUTES      HOURS       DAYS        YEARS
                    -----------------------------------------------------------
   TIME STEP LENGTH 7.94880E+06 1.32480E+05  2208.0      92.000     0.25188    
 STRESS PERIOD TIME 7.94880E+06 1.32480E+05  2208.0      92.000     0.25188    
         TOTAL TIME 7.94880E+06 1.32480E+05  2208.0      92.000     0.25188    
1
1
                            STRESS PERIOD NO.    2, LENGTH =   91.00000    
                            -----------------------------------------------

                              NUMBER OF TIME STEPS =     1

                               MULTIPLIER FOR DELT =     1.500

                            INITIAL TIME STEP SIZE =   91.00000    

 WELL NO.  LAYER   ROW   COL   STRESS RATE         
 --------------------------------------------------
      1      1     15      4     -0.1412E+05
      2      1     11     22     -0.1126E+05
      3      1     18     29     -0.4576E+05
      4      1     14     29      -9979.    

      4 WELLS

                 RECHARGE =  2.000000E-03

 REUSING STREAM SEGMENT DATA FROM LAST STRESS PERIOD
 
 SOLVING FOR HEAD 


     8 CALLS TO PCG ROUTINE FOR TIME STEP   1 IN STRESS PERIOD    2
    32 TOTAL ITERATIONS

 OUTPUT CONTROL FOR STRESS PERIOD    2   TIME STEP    1
    SAVE BUDGET
    SAVE HEAD FOR ALL LAYERS
    PRINT HEAD FOR ALL LAYERS
 UBDSV2 SAVING "STREAMFLOW OUT  " ON UNIT  50 AT TIME STEP  1, STRESS PERIOD   2



 STREAM LISTING     PERIOD      2   STEP        1

 LAYER ROW COL. STREAM  RCH.  FLOW INTO     FLOW TO   FLOW OUT OF   OVRLND.     DIRECT     STREAM       STREAM     STREAM     STREAM   STREAMBED  STREAMBED
                SEG.NO.  NO.  STRM. RCH.    AQUIFER    STRM. RCH.    RUNOFF     PRECIP       ET          HEAD       DEPTH      WIDTH   CONDCTNC.   GRADIENT

   1   13    1     1     1    1.0000E+05 -4.0061E+03   1.0401E+05  0.000E+00  0.000E+00  0.000E+00  4.84077E+01  1.464E-01  2.000E+01  2.000E+04 -2.003E-01
   1   13    2     1     2    1.0401E+05 -5.2660E+03   1.0927E+05  0.000E+00  0.000E+00  0.000E+00  4.79344E+01  1.503E-01  2.000E+01  2.000E+04 -2.633E-01
   1   14    3     1     3    1.0927E+05 -1.0955E+03   1.1037E+05  0.000E+00  0.000E+00  0.000E+00  4.74598E+01  1.530E-01  2.000E+01  2.000E+04 -5.478E-02
   1   15    4     1     4    1.1037E+05  1.2840E+04   9.7527E+04  0.000E+00  0.000E+00  0.000E+00  4.69776E+01  1.481E-01  2.000E+01  2.000E+04  6.420E-01
   1   16    5     1     5    9.7527E+04 -4.2071E+03   1.0173E+05  0.000E+00  0.000E+00  0.000E+00  4.64966E+01  1.443E-01  2.000E+01  2.000E+04 -2.104E-01
   1   16    6     1     6    1.0173E+05 -2.5037E+03   1.0424E+05  0.000E+00  0.000E+00  0.000E+00  4.60222E+01  1.472E-01  2.000E+01  2.000E+04 -1.252E-01
   1   16    7     1     7    1.0424E+05 -2.4160E+03   1.0665E+05  0.000E+00  0.000E+00  0.000E+00  4.55471E+01  1.493E-01  2.000E+01  2.000E+04 -1.208E-01
   1   16    8     1     8    1.0665E+05 -2.3900E+03   1.0904E+05  0.000E+00  0.000E+00  0.000E+00  4.50718E+01  1.514E-01  2.000E+01  2.000E+04 -1.195E-01
   1   16    9     1     9    1.0904E+05 -2.3719E+03   1.1142E+05  0.000E+00  0.000E+00  0.000E+00  4.45965E+01  1.534E-01  2.000E+01  2.000E+04 -1.186E-01
   1   16   10     1    10    1.1142E+05 -2.3503E+03   1.1377E+05  0.000E+00  0.000E+00  0.000E+00  4.41212E+01  1.553E-01  2.000E+01  2.000E+04 -1.175E-01
   1   16   11     1    11    1.1377E+05 -2.3602E+03   1.1613E+05  0.000E+00  0.000E+00  0.000E+00  4.36459E+01  1.573E-01  2.000E+01  2.000E+04 -1.180E-01
   1   16   12     1    12    1.1613E+05 -4.1607E+03   1.2029E+05  0.000E+00  0.000E+00  0.000E+00  4.31713E+01  1.599E-01  2.000E+01  2.000E+04 -2.080E-01
   1   15   13     1    13    1.2029E+05 -4.1459E+03   1.2443E+05  0.000E+00  0.000E+00  0.000E+00  4.26974E+01  1.633E-01  2.000E+01  2.000E+04 -2.073E-01
   1   14   14     1    14    1.2443E+05 -4.5350E+03   1.2897E+05  0.000E+00  0.000E+00  0.000E+00  4.22235E+01  1.667E-01  2.000E+01  2.000E+04 -2.268E-01
   1   13   15     1    15    1.2897E+05 -4.8832E+03   1.3385E+05  0.000E+00  0.000E+00  0.000E+00  4.17500E+01  1.704E-01  2.000E+01  2.000E+04 -2.442E-01
   1   12   16     1    16    1.3385E+05 -5.6767E+03   1.3953E+05  0.000E+00  0.000E+00  0.000E+00  4.12768E+01  1.745E-01  2.000E+01  2.000E+04 -2.838E-01
   1   12   17     1    17    1.3953E+05 -3.7050E+03   1.4323E+05  0.000E+00  0.000E+00  0.000E+00  4.08031E+01  1.781E-01  2.000E+01  2.000E+04 -1.853E-01
   1   12   18     1    18    1.4323E+05 -3.4030E+03   1.4664E+05  0.000E+00  0.000E+00  0.000E+00  4.03285E+01  1.807E-01  2.000E+01  2.000E+04 -1.702E-01
   1   12   19     1    19    1.4664E+05 -3.5156E+03   1.5015E+05  0.000E+00  0.000E+00  0.000E+00  3.98538E+01  1.833E-01  2.000E+01  2.000E+04 -1.758E-01
   1   13   20     1    20    1.5015E+05 -2.5663E+03   1.5272E+05  0.000E+00  0.000E+00  0.000E+00  3.93787E+01  1.855E-01  2.000E+01  2.000E+04 -1.283E-01
   1   14   21     1    21    1.5272E+05 -3.1478E+03   1.5587E+05  0.000E+00  0.000E+00  0.000E+00  3.89036E+01  1.876E-01  2.000E+01  2.000E+04 -1.574E-01
   1   14   22     1    22    1.5587E+05  4.6994E+03   1.5117E+05  0.000E+00  0.000E+00  0.000E+00  3.84257E+01  1.871E-01  2.000E+01  2.000E+04  2.350E-01
   1    9   30     2     1    5.0000E+04 -1.1792E+03   5.1179E+04  0.000E+00  0.000E+00  0.000E+00  4.02417E+01  1.167E-01  2.000E+01  2.000E+04 -5.896E-02
   1    9   29     2     2    5.1179E+04 -1.5571E+03   5.2736E+04  0.000E+00  0.000E+00  0.000E+00  3.99936E+01  1.186E-01  2.000E+01  2.000E+04 -7.785E-02
   1    9   28     2     3    5.2736E+04 -2.0066E+03   5.4743E+04  0.000E+00  0.000E+00  0.000E+00  3.97460E+01  1.210E-01  2.000E+01  2.000E+04 -1.003E-01
   1    9   27     2     4    5.4743E+04 -4.1516E+03   5.8894E+04  0.000E+00  0.000E+00  0.000E+00  3.95001E+01  1.251E-01  2.000E+01  2.000E+04 -2.076E-01
   1   10   26     2     5    5.8894E+04 -2.4605E+03   6.1355E+04  0.000E+00  0.000E+00  0.000E+00  3.92544E+01  1.294E-01  2.000E+01  2.000E+04 -1.230E-01
   1   11   25     2     6    6.1355E+04 -1.6036E+03   6.2959E+04  0.000E+00  0.000E+00  0.000E+00  3.90070E+01  1.320E-01  2.000E+01  2.000E+04 -8.018E-02
   1   12   24     2     7    6.2959E+04 -8.1582E+02   6.3774E+04  0.000E+00  0.000E+00  0.000E+00  3.87586E+01  1.336E-01  2.000E+01  2.000E+04 -4.079E-02
   1   13   23     2     8    6.3774E+04 -1.7465E+02   6.3949E+04  0.000E+00  0.000E+00  0.000E+00  3.85092E+01  1.342E-01  2.000E+01  2.000E+04 -8.733E-03
   1   14   22     2     9    6.3949E+04  1.3541E+03   6.2595E+04  0.000E+00  0.000E+00  0.000E+00  3.82584E+01  1.334E-01  2.000E+01  2.000E+04  6.770E-02
   1   14   22     3     1    2.1376E+05 -8.8698E+03   2.2263E+05  0.000E+00  0.000E+00  0.000E+00  3.77472E+01  1.917E-01  2.000E+01  2.000E+04 -4.435E-01
   1   15   23     3     2    2.2263E+05 -1.0378E+03   2.2367E+05  0.000E+00  0.000E+00  0.000E+00  3.68610E+01  1.943E-01  2.000E+01  2.000E+04 -5.189E-02
   1   15   24     3     3    2.2367E+05 -6.4208E+02   2.2431E+05  0.000E+00  0.000E+00  0.000E+00  3.59725E+01  1.947E-01  2.000E+01  2.000E+04 -3.210E-02
   1   15   25     3     4    2.2431E+05 -6.1857E+02   2.2493E+05  0.000E+00  0.000E+00  0.000E+00  3.50839E+01  1.951E-01  2.000E+01  2.000E+04 -3.093E-02
   1   15   26     3     5    2.2493E+05 -4.4840E+02   2.2538E+05  0.000E+00  0.000E+00  0.000E+00  3.41953E+01  1.953E-01  2.000E+01  2.000E+04 -2.242E-02
   1   16   27     3     6    2.2538E+05 -1.9702E+02   2.2558E+05  0.000E+00  0.000E+00  0.000E+00  3.33066E+01  1.955E-01  2.000E+01  2.000E+04 -9.851E-03
   1   17   28     3     7    2.2558E+05  4.9149E+03   2.2066E+05  0.000E+00  0.000E+00  0.000E+00  3.24165E+01  1.943E-01  2.000E+01  2.000E+04  2.457E-01
   1   18   29     3     8    2.2066E+05  2.3734E+04   1.9693E+05  0.000E+00  0.000E+00  0.000E+00  3.15200E+01  1.867E-01  2.000E+01  2.000E+04  1.187E+00
   1   18   30     3     9    1.9693E+05  5.4685E+03   1.9146E+05  0.000E+00  0.000E+00  0.000E+00  3.06232E+01  1.787E-01  2.000E+01  2.000E+04  2.734E-01



1
              HEAD IN LAYER   1 AT END OF TIME STEP   1 IN STRESS PERIOD    2
  ---------------------------------------------------------------------------

          1      2      3      4      5      6      7      8      9     10
         11     12     13     14     15     16     17     18     19     20
         21     22     23     24     25     26     27     28     29     30
 .........................................................................
   1  ****** ****** ****** ****** ****** ****** ****** ****** ****** ******
      ****** ****** ****** ****** ****** ****** ****** ****** ****** ******
      ****** ****** ****** ****** ****** ****** ****** ****** ****** ******
   2  ****** ****** ****** ****** ****** ****** ****** ****** ****** ******
      ****** ****** ****** ****** ****** ****** ****** ****** ****** ******
      ****** ****** ****** ****** ****** ****** ****** ****** ****** ******
   3  ****** ****** ****** ****** ****** ****** ****** ****** ****** ******
      ****** ****** ****** ****** ****** ****** ****** ****** ****** ******
      ****** ****** ****** ****** ****** ****** ****** ****** ****** ******
   4  ****** ****** ****** ****** ****** ****** ****** ****** ****** ******
      ****** ****** ****** ****** ****** ****** ****** ****** ****** ******
      ****** ****** ****** ****** ****** ****** ****** ****** ****** ******
   5  ****** ****** ****** ****** ****** ****** ****** ****** ****** ******
      ****** ****** ****** ****** ****** ****** ****** ****** ****** ******
      ****** ****** ****** ****** ****** ****** ****** ****** ****** ******
   6  ****** ****** ****** ****** ****** ****** ****** ****** ****** ******
      ****** ****** ****** ****** ****** ****** ****** ****** ****** ******
      ****** ****** ****** ****** ****** ****** ****** ****** ****** ******
   7  ****** ****** ****** ****** ****** ****** ****** ****** ****** ******
      ****** ****** ****** ****** ****** ****** ****** ****** ****** ******
      ****** ****** ****** ****** ****** ****** ****** ****** ****** ******
   8  ****** ****** ****** ****** ****** ****** ****** ****** ****** ******
      ****** ****** ****** ****** ****** ****** ****** ****** ****** ******
      ****** ****** ****** ****** ****** ****** ****** ****** ****** ******
   9  ****** ****** ****** ****** ****** ****** ****** ****** ****** ******
      ****** ****** ****** ****** ****** ****** ****** ****** ****** ******
      ****** ****** ****** ****** ****** ****** ****** ****** ****** ******
  10  ****** ****** ****** ****** ****** ****** ****** ****** ****** ******
      ****** ****** ****** ****** ****** ****** ****** ****** ****** ******
      ****** ****** ****** ****** ****** ****** ****** ****** ****** ******
  11  ****** ****** ****** ****** ****** ****** ****** ****** ****** ******
      ****** ****** ****** ****** ****** ****** ****** ****** ****** ******
      ****** ****** ****** ****** ****** ****** ****** ****** ****** ******
  12  ****** ****** ****** ****** ****** ****** ****** ****** ****** ******
      ****** ****** ****** ****** ****** ****** ****** ****** ****** ******
      ****** ****** ****** ****** ****** ****** ****** ****** ****** ******
  13  ****** ****** ****** ****** ****** ****** ****** ****** ****** ******
      ****** ****** ****** ****** ****** ****** ****** ****** ****** ******
      ****** ****** ****** ****** ****** ****** ****** ****** ****** ******
  14  ****** ****** ****** ****** ****** ****** ****** ****** ****** ******
      ****** ****** ****** ****** ****** ****** ****** ****** ****** ******
      ****** ****** ****** ****** ****** ****** ****** ****** ****** ******
  15  ****** ****** ****** ****** ****** ****** ****** ****** ****** ******
      ****** ****** ****** ****** ****** ****** ****** ****** ****** ******
      ****** ****** ****** ****** ****** ****** ****** ****** ****** ******
  16  ****** ****** ****** ****** ****** ****** ****** ****** ****** ******
      ****** ****** ****** ****** ****** ****** ****** ****** ****** ******
      ****** ****** ****** ****** ****** ****** ****** ****** ****** ******
  17  ****** ****** ****** ****** ****** ****** ****** ****** ****** ******
      ****** ****** ****** ****** ****** ****** ****** ****** ****** ******
      ****** ****** ****** ****** ****** ****** ****** ****** ****** ******
  18  ****** ****** ****** ****** ****** ****** ****** ****** ****** ******
      ****** ****** ****** ****** ****** ****** ****** ****** ****** ******
      ****** ****** ****** ****** ****** ****** ****** ****** ****** ******
  19  ****** ****** ****** ****** ****** ****** ****** ****** ****** ******
      ****** ****** ****** ****** ****** ****** ****** ****** ****** ******
      ****** ****** ****** ****** ****** ****** ****** ****** ****** ******
  20  ****** ****** ****** ****** ****** ****** ****** ****** ****** ******
      ****** ****** ****** ****** ****** ****** ****** ****** ****** ******
      ****** ****** ****** ****** ****** ****** ****** ****** ****** ******
  21  ****** ****** ****** ****** ****** ****** ****** ****** ****** ******
      ****** ****** ****** ****** ****** ****** ****** ****** ****** ******
      ****** ****** ****** ****** ****** ****** ****** ****** ****** ******
  22  ****** ****** ****** ****** ****** ****** ****** ****** ****** ******
      ****** ****** ****** ****** ****** ****** ****** ****** ****** ******
      ****** ****** ****** ****** ****** ****** ****** ****** ****** ******
  23  ****** ****** ****** ****** ****** ****** ****** ****** ****** ******
      ****** ****** ****** ****** ****** ****** ****** ****** ****** ******
      ****** ****** ****** ****** ****** ****** ****** ****** ****** ******
  24  ****** ****** ****** ****** ****** ****** ****** ****** ****** ******
      ****** ****** ****** ****** ****** ****** ****** ****** ****** ******
      ****** ****** ****** ****** ****** ****** ****** ****** ****** ******
  25  ****** ****** ****** ****** ****** ****** ****** ****** ****** ******
      ****** ****** ****** ****** ****** ****** ****** ****** ****** ******
      ****** ****** ****** ****** ****** ****** ****** ****** ****** ******

 HEAD WILL BE SAVED ON UNIT   51 AT END OF TIME STEP    1, STRESS PERIOD    2
1
  VOLUMETRIC BUDGET FOR ENTIRE MODEL AT END OF TIME STEP    1, STRESS PERIOD   2
  ------------------------------------------------------------------------------

     CUMULATIVE VOLUMES      L**3       RATES FOR THIS TIME STEP      L**3/T
     ------------------                 ------------------------

           IN:                                      IN:
           ---                                      ---
             STORAGE =    22018637.3049               STORAGE =       51199.4776
       CONSTANT HEAD =     2582727.0760         CONSTANT HEAD =       16179.8089
               WELLS =           0.0000                 WELLS =           0.0000
            RECHARGE =     6292800.0000              RECHARGE =       55200.0000
      STREAM LEAKAGE =     8592948.3091        STREAM LEAKAGE =       53011.0904

            TOTAL IN =    39487112.6900              TOTAL IN =      175590.3768

          OUT:                                     OUT:
          ----                                     ----
             STORAGE =           0.0000               STORAGE =           0.0000
       CONSTANT HEAD =           0.0000         CONSTANT HEAD =           0.0000
               WELLS =    14845247.5641                 WELLS =       81121.5714
            RECHARGE =           0.0000              RECHARGE =           0.0000
      STREAM LEAKAGE =    24641866.2560        STREAM LEAKAGE =       94468.8119

           TOTAL OUT =    39487113.8202             TOTAL OUT =      175590.3833

            IN - OUT =          -1.1302              IN - OUT =      -6.4696E-03

 PERCENT DISCREPANCY =          -0.00     PERCENT DISCREPANCY =          -0.00






         TIME SUMMARY AT END OF TIME STEP    1 IN STRESS PERIOD    2
                    SECONDS     MINUTES      HOURS       DAYS        YEARS
                    -----------------------------------------------------------
   TIME STEP LENGTH 7.86240E+06 1.31040E+05  2184.0      91.000     0.24914    
 STRESS PERIOD TIME 7.86240E+06 1.31040E+05  2184.0      91.000     0.24914    
         TOTAL TIME 1.58112E+07 2.63520E+05  4392.0      183.00     0.50103    
1
1
                            STRESS PERIOD NO.    3, LENGTH =   91.00000    
                            -----------------------------------------------

                              NUMBER OF TIME STEPS =     1

                               MULTIPLIER FOR DELT =     1.500

                            INITIAL TIME STEP SIZE =   91.00000    

 WELL NO.  LAYER   ROW   COL   STRESS RATE         
 --------------------------------------------------
      1      1     15      4     -0.1412E+05
      2      1     11     22     -0.1126E+05
      3      1     18     29     -0.4576E+05
      4      1     14     29      -9979.    

      4 WELLS

                 RECHARGE =   0.00000    

 REUSING STREAM SEGMENT DATA FROM LAST STRESS PERIOD
 
 SOLVING FOR HEAD 


     8 CALLS TO PCG ROUTINE FOR TIME STEP   1 IN STRESS PERIOD    3
    32 TOTAL ITERATIONS

 OUTPUT CONTROL FOR STRESS PERIOD    3   TIME STEP    1
    SAVE BUDGET
    SAVE HEAD FOR ALL LAYERS
    PRINT HEAD FOR ALL LAYERS
 UBDSV2 SAVING "STREAMFLOW OUT  " ON UNIT  50 AT TIME STEP  1, STRESS PERIOD   3



 STREAM LISTING     PERIOD      3   STEP        1

 LAYER ROW COL. STREAM  RCH.  FLOW INTO     FLOW TO   FLOW OUT OF   OVRLND.     DIRECT     STREAM       STREAM     STREAM     STREAM   STREAMBED  STREAMBED
                SEG.NO.  NO.  STRM. RCH.    AQUIFER    STRM. RCH.    RUNOFF     PRECIP       ET          HEAD       DEPTH      WIDTH   CONDCTNC.   GRADIENT

   1   13    1     1     1    1.0000E+05 -2.7659E+03   1.0277E+05  0.000E+00  0.000E+00  0.000E+00  4.84072E+01  1.458E-01  2.000E+01  2.000E+04 -1.383E-01
   1   13    2     1     2    1.0277E+05 -3.8728E+03   1.0664E+05  0.000E+00  0.000E+00  0.000E+00  4.79328E+01  1.487E-01  2.000E+01  2.000E+04 -1.936E-01
   1   14    3     1     3    1.0664E+05 -6.3528E+02   1.0727E+05  0.000E+00  0.000E+00  0.000E+00  4.74574E+01  1.506E-01  2.000E+01  2.000E+04 -3.176E-02
   1   15    4     1     4    1.0727E+05  1.3345E+04   9.3929E+04  0.000E+00  0.000E+00  0.000E+00  4.69747E+01  1.452E-01  2.000E+01  2.000E+04  6.672E-01
   1   16    5     1     5    9.3929E+04 -2.4161E+03   9.6345E+04  0.000E+00  0.000E+00  0.000E+00  4.64927E+01  1.404E-01  2.000E+01  2.000E+04 -1.208E-01
   1   16    6     1     6    9.6345E+04 -1.5036E+03   9.7849E+04  0.000E+00  0.000E+00  0.000E+00  4.60171E+01  1.421E-01  2.000E+01  2.000E+04 -7.518E-02
   1   16    7     1     7    9.7849E+04 -1.4745E+03   9.9323E+04  0.000E+00  0.000E+00  0.000E+00  4.55411E+01  1.434E-01  2.000E+01  2.000E+04 -7.372E-02
   1   16    8     1     8    9.9323E+04 -1.4670E+03   1.0079E+05  0.000E+00  0.000E+00  0.000E+00  4.50652E+01  1.447E-01  2.000E+01  2.000E+04 -7.335E-02
   1   16    9     1     9    1.0079E+05 -1.4539E+03   1.0224E+05  0.000E+00  0.000E+00  0.000E+00  4.45891E+01  1.460E-01  2.000E+01  2.000E+04 -7.269E-02
   1   16   10     1    10    1.0224E+05 -1.4332E+03   1.0368E+05  0.000E+00  0.000E+00  0.000E+00  4.41131E+01  1.472E-01  2.000E+01  2.000E+04 -7.166E-02
   1   16   11     1    11    1.0368E+05 -1.4378E+03   1.0512E+05  0.000E+00  0.000E+00  0.000E+00  4.36371E+01  1.484E-01  2.000E+01  2.000E+04 -7.189E-02
   1   16   12     1    12    1.0512E+05 -2.5606E+03   1.0768E+05  0.000E+00  0.000E+00  0.000E+00  4.31615E+01  1.501E-01  2.000E+01  2.000E+04 -1.280E-01
   1   15   13     1    13    1.0768E+05 -2.5106E+03   1.1019E+05  0.000E+00  0.000E+00  0.000E+00  4.26864E+01  1.523E-01  2.000E+01  2.000E+04 -1.255E-01
   1   14   14     1    14    1.1019E+05 -2.8566E+03   1.1304E+05  0.000E+00  0.000E+00  0.000E+00  4.22113E+01  1.545E-01  2.000E+01  2.000E+04 -1.428E-01
   1   13   15     1    15    1.1304E+05 -3.2028E+03   1.1625E+05  0.000E+00  0.000E+00  0.000E+00  4.17366E+01  1.570E-01  2.000E+01  2.000E+04 -1.601E-01
   1   12   16     1    16    1.1625E+05 -3.9371E+03   1.2018E+05  0.000E+00  0.000E+00  0.000E+00  4.12622E+01  1.599E-01  2.000E+01  2.000E+04 -1.969E-01
   1   12   17     1    17    1.2018E+05 -2.4412E+03   1.2262E+05  0.000E+00  0.000E+00  0.000E+00  4.07875E+01  1.625E-01  2.000E+01  2.000E+04 -1.221E-01
   1   12   18     1    18    1.2262E+05 -2.1531E+03   1.2478E+05  0.000E+00  0.000E+00  0.000E+00  4.03121E+01  1.643E-01  2.000E+01  2.000E+04 -1.077E-01
   1   12   19     1    19    1.2478E+05 -1.9334E+03   1.2671E+05  0.000E+00  0.000E+00  0.000E+00  3.98364E+01  1.660E-01  2.000E+01  2.000E+04 -9.667E-02
   1   13   20     1    20    1.2671E+05 -1.1136E+03   1.2782E+05  0.000E+00  0.000E+00  0.000E+00  3.93604E+01  1.672E-01  2.000E+01  2.000E+04 -5.568E-02
   1   14   21     1    21    1.2782E+05 -1.6733E+03   1.2950E+05  0.000E+00  0.000E+00  0.000E+00  3.88842E+01  1.683E-01  2.000E+01  2.000E+04 -8.367E-02
   1   14   22     1    22    1.2950E+05  5.0625E+03   1.2443E+05  0.000E+00  0.000E+00  0.000E+00  3.84056E+01  1.669E-01  2.000E+01  2.000E+04  2.531E-01
   1    9   30     2     1    5.0000E+04  8.7881E+01   4.9912E+04  0.000E+00  0.000E+00  0.000E+00  4.02408E+01  1.158E-01  2.000E+01  2.000E+04  4.394E-03
   1    9   29     2     2    4.9912E+04 -2.9679E+02   5.0209E+04  0.000E+00  0.000E+00  0.000E+00  3.99909E+01  1.159E-01  2.000E+01  2.000E+04 -1.484E-02
   1    9   28     2     3    5.0209E+04 -7.4371E+02   5.0953E+04  0.000E+00  0.000E+00  0.000E+00  3.97417E+01  1.167E-01  2.000E+01  2.000E+04 -3.719E-02
   1    9   27     2     4    5.0953E+04 -2.3701E+03   5.3323E+04  0.000E+00  0.000E+00  0.000E+00  3.94938E+01  1.188E-01  2.000E+01  2.000E+04 -1.185E-01
   1   10   26     2     5    5.3323E+04 -7.6401E+02   5.4087E+04  0.000E+00  0.000E+00  0.000E+00  3.92459E+01  1.209E-01  2.000E+01  2.000E+04 -3.820E-02
   1   11   25     2     6    5.4087E+04 -2.3385E+01   5.4110E+04  0.000E+00  0.000E+00  0.000E+00  3.89965E+01  1.215E-01  2.000E+01  2.000E+04 -1.169E-03
   1   12   24     2     7    5.4110E+04  5.7992E+02   5.3530E+04  0.000E+00  0.000E+00  0.000E+00  3.87461E+01  1.211E-01  2.000E+01  2.000E+04  2.900E-02
   1   13   23     2     8    5.3530E+04  1.6642E+02   5.3364E+04  0.000E+00  0.000E+00  0.000E+00  3.84956E+01  1.206E-01  2.000E+01  2.000E+04  8.321E-03
   1   14   22     2     9    5.3364E+04  1.8358E+03   5.1528E+04  0.000E+00  0.000E+00  0.000E+00  3.82442E+01  1.192E-01  2.000E+01  2.000E+04  9.179E-02
   1   14   22     3     1    1.7596E+05 -8.5194E+03   1.8448E+05  0.000E+00  0.000E+00  0.000E+00  3.77265E+01  1.709E-01  2.000E+01  2.000E+04 -4.260E-01
   1   15   23     3     2    1.8448E+05 -6.4322E+02   1.8513E+05  0.000E+00  0.000E+00  0.000E+00  3.68402E+01  1.735E-01  2.000E+01  2.000E+04 -3.216E-02
   1   15   24     3     3    1.8513E+05 -3.1337E+02   1.8544E+05  0.000E+00  0.000E+00  0.000E+00  3.59516E+01  1.738E-01  2.000E+01  2.000E+04 -1.567E-02
   1   15   25     3     4    1.8544E+05 -2.6776E+02   1.8571E+05  0.000E+00  0.000E+00  0.000E+00  3.50628E+01  1.739E-01  2.000E+01  2.000E+04 -1.339E-02
   1   15   26     3     5    1.8571E+05 -8.9111E+00   1.8572E+05  0.000E+00  0.000E+00  0.000E+00  3.41740E+01  1.740E-01  2.000E+01  2.000E+04 -4.456E-04
   1   16   27     3     6    1.8572E+05  3.3320E+02   1.8538E+05  0.000E+00  0.000E+00  0.000E+00  3.32850E+01  1.739E-01  2.000E+01  2.000E+04  1.666E-02
   1   17   28     3     7    1.8538E+05  7.2353E+03   1.7815E+05  0.000E+00  0.000E+00  0.000E+00  3.23940E+01  1.718E-01  2.000E+01  2.000E+04  3.618E-01
   1   18   29     3     8    1.7815E+05  2.3260E+04   1.5489E+05  0.000E+00  0.000E+00  0.000E+00  3.14963E+01  1.630E-01  2.000E+01  2.000E+04  1.163E+00
   1   18   30     3     9    1.5489E+05  7.8961E+03   1.4699E+05  0.000E+00  0.000E+00  0.000E+00  3.05981E+01  1.537E-01  2.000E+01  2.000E+04  3.948E-01



1
              HEAD IN LAYER   1 AT END OF TIME STEP   1 IN STRESS PERIOD    3
  ---------------------------------------------------------------------------

          1      2      3      4      5      6      7      8      9     10
         11     12     13     14     15     16     17     18     19     20
         21     22     23     24     25     26     27     28     29     30
 .........................................................................
   1  ****** ****** ****** ****** ****** ****** ****** ****** ****** ******
      ****** ****** ****** ****** ****** ****** ****** ****** ****** ******
      ****** ****** ****** ****** ****** ****** ****** ****** ****** ******
   2  ****** ****** ****** ****** ****** ****** ****** ****** ****** ******
      ****** ****** ****** ****** ****** ****** ****** ****** ****** ******
      ****** ****** ****** ****** ****** ****** ****** ****** ****** ******
   3  ****** ****** ****** ****** ****** ****** ****** ****** ****** ******
      ****** ****** ****** ****** ****** ****** ****** ****** ****** ******
      ****** ****** ****** ****** ****** ****** ****** ****** ****** ******
   4  ****** ****** ****** ****** ****** ****** ****** ****** ****** ******
      ****** ****** ****** ****** ****** ****** ****** ****** ****** ******
      ****** ****** ****** ****** ****** ****** ****** ****** ****** ******
   5  ****** ****** ****** ****** ****** ****** ****** ****** ****** ******
      ****** ****** ****** ****** ****** ****** ****** ****** ****** ******
      ****** ****** ****** ****** ****** ****** ****** ****** ****** ******
   6  ****** ****** ****** ****** ****** ****** ****** ****** ****** ******
      ****** ****** ****** ****** ****** ****** ****** ****** ****** ******
      ****** ****** ****** ****** ****** ****** ****** ****** ****** ******
   7  ****** ****** ****** ****** ****** ****** ****** ****** ****** ******
      ****** ****** ****** ****** ****** ****** ****** ****** ****** ******
      ****** ****** ****** ****** ****** ****** ****** ****** ****** ******
   8  ****** ****** ****** ****** ****** ****** ****** ****** ****** ******
      ****** ****** ****** ****** ****** ****** ****** ****** ****** ******
      ****** ****** ****** ****** ****** ****** ****** ****** ****** ******
   9  ****** ****** ****** ****** ****** ****** ****** ****** ****** ******
      ****** ****** ****** ****** ****** ****** ****** ****** ****** ******
      ****** ****** ****** ****** ****** ****** ****** ****** ****** ******
  10  ****** ****** ****** ****** ****** ****** ****** ****** ****** ******
      ****** ****** ****** ****** ****** ****** ****** ****** ****** ******
      ****** ****** ****** ****** ****** ****** ****** ****** ****** ******
  11  ****** ****** ****** ****** ****** ****** ****** ****** ****** ******
      ****** ****** ****** ****** ****** ****** ****** ****** ****** ******
      ****** ****** ****** ****** ****** ****** ****** ****** ****** ******
  12  ****** ****** ****** ****** ****** ****** ****** ****** ****** ******
      ****** ****** ****** ****** ****** ****** ****** ****** ****** ******
      ****** ****** ****** ****** ****** ****** ****** ****** ****** ******
  13  ****** ****** ****** ****** ****** ****** ****** ****** ****** ******
      ****** ****** ****** ****** ****** ****** ****** ****** ****** ******
      ****** ****** ****** ****** ****** ****** ****** ****** ****** ******
  14  ****** ****** ****** ****** ****** ****** ****** ****** ****** ******
      ****** ****** ****** ****** ****** ****** ****** ****** ****** ******
      ****** ****** ****** ****** ****** ****** ****** ****** ****** ******
  15  ****** ****** ****** ****** ****** ****** ****** ****** ****** ******
      ****** ****** ****** ****** ****** ****** ****** ****** ****** ******
      ****** ****** ****** ****** ****** ****** ****** ****** ****** ******
  16  ****** ****** ****** ****** ****** ****** ****** ****** ****** ******
      ****** ****** ****** ****** ****** ****** ****** ****** ****** ******
      ****** ****** ****** ****** ****** ****** ****** ****** ****** ******
  17  ****** ****** ****** ****** ****** ****** ****** ****** ****** ******
      ****** ****** ****** ****** ****** ****** ****** ****** ****** ******
      ****** ****** ****** ****** ****** ****** ****** ****** ****** ******
  18  ****** ****** ****** ****** ****** ****** ****** ****** ****** ******
      ****** ****** ****** ****** ****** ****** ****** ****** ****** ******
      ****** ****** ****** ****** ****** ****** ****** ****** ****** ******
  19  ****** ****** ****** ****** ****** ****** ****** ****** ****** ******
      ****** ****** ****** ****** ****** ****** ****** ****** ****** ******
      ****** ****** ****** ****** ****** ****** ****** ****** ****** ******
  20  ****** ****** ****** ****** ****** ****** ****** ****** ****** ******
      ****** ****** ****** ****** ****** ****** ****** ****** ****** ******
      ****** ****** ****** ****** ****** ****** ****** ****** ****** ******
  21  ****** ****** ****** ****** ****** ****** ****** ****** ****** ******
      ****** ****** ****** ****** ****** ****** ****** ****** ****** ******
      ****** ****** ****** ****** ****** ****** ****** ****** ****** ******
  22  ****** ****** ****** ****** ****** ****** ****** ****** ****** ******
      ****** ****** ****** ****** ****** ****** ****** ****** ****** ******
      ****** ****** ****** ****** ****** ****** ****** ****** ****** ******
  23  ****** ****** ****** ****** ****** ****** ****** ****** ****** ******
      ****** ****** ****** ****** ****** ****** ****** ****** ****** ******
      ****** ****** ****** ****** ****** ****** ****** ****** ****** ******
  24  ****** ****** ****** ****** ****** ****** ****** ****** ****** ******
      ****** ****** ****** ****** ****** ****** ****** ****** ****** ******
      ****** ****** ****** ****** ****** ****** ****** ****** ****** ******
  25  ****** ****** ****** ****** ****** ****** ****** ****** ****** ******
      ****** ****** ****** ****** ****** ****** ****** ****** ****** ******
      ****** ****** ****** ****** ****** ****** ****** ****** ****** ******

 HEAD WILL BE SAVED ON UNIT   51 AT END OF TIME STEP    1, STRESS PERIOD    3
1
  VOLUMETRIC BUDGET FOR ENTIRE MODEL AT END OF TIME STEP    1, STRESS PERIOD   3
  ------------------------------------------------------------------------------

     CUMULATIVE VOLUMES      L**3       RATES FOR THIS TIME STEP      L**3/T
     ------------------                 ------------------------

           IN:                                      IN:
           ---                                      ---
             STORAGE =    26898331.1447               STORAGE =       53623.0092
       CONSTANT HEAD =     4811285.3268         CONSTANT HEAD =       24489.6511
               WELLS =           0.0000                 WELLS =           0.0000
            RECHARGE =     6292800.0000              RECHARGE =           0.0000
      STREAM LEAKAGE =    14034925.8746        STREAM LEAKAGE =       59801.9513

            TOTAL IN =    52037342.3460              TOTAL IN =      137914.6116

          OUT:                                     OUT:
          ----                                     ----
             STORAGE =           0.0000               STORAGE =           0.0000
       CONSTANT HEAD =           0.0000         CONSTANT HEAD =           0.0000
               WELLS =    22227310.5605                 WELLS =       81121.5714
            RECHARGE =           0.0000              RECHARGE =           0.0000
      STREAM LEAKAGE =    29810033.3052        STREAM LEAKAGE =       56793.0445

           TOTAL OUT =    52037343.8657             TOTAL OUT =      137914.6159

            IN - OUT =          -1.5197              IN - OUT =      -4.2803E-03

 PERCENT DISCREPANCY =          -0.00     PERCENT DISCREPANCY =          -0.00






         TIME SUMMARY AT END OF TIME STEP    1 IN STRESS PERIOD    3
                    SECONDS     MINUTES      HOURS       DAYS        YEARS
                    -----------------------------------------------------------
   TIME STEP LENGTH 7.86240E+06 1.31040E+05  2184.0      91.000     0.24914    
 STRESS PERIOD TIME 7.86240E+06 1.31040E+05  2184.0      91.000     0.24914    
         TOTAL TIME 2.36736E+07 3.94560E+05  6576.0      274.00     0.75017    
1
1
                            STRESS PERIOD NO.    4, LENGTH =   91.00000    
                            -----------------------------------------------

                              NUMBER OF TIME STEPS =     1

                               MULTIPLIER FOR DELT =     1.500

                            INITIAL TIME STEP SIZE =   91.00000    

 WELL NO.  LAYER   ROW   COL   STRESS RATE         
 --------------------------------------------------
      1      1     15      4     -0.1412E+05
      2      1     11     22     -0.1126E+05
      3      1     18     29     -0.4576E+05
      4      1     14     29      -9979.    

      4 WELLS

                 RECHARGE =  1.000000E-03

 REUSING STREAM SEGMENT DATA FROM LAST STRESS PERIOD
 
 SOLVING FOR HEAD 


     7 CALLS TO PCG ROUTINE FOR TIME STEP   1 IN STRESS PERIOD    4
    29 TOTAL ITERATIONS

 OUTPUT CONTROL FOR STRESS PERIOD    4   TIME STEP    1
    SAVE BUDGET
    SAVE HEAD FOR ALL LAYERS
    PRINT HEAD FOR ALL LAYERS
 UBDSV2 SAVING "STREAMFLOW OUT  " ON UNIT  50 AT TIME STEP  1, STRESS PERIOD   4



 STREAM LISTING     PERIOD      4   STEP        1

 LAYER ROW COL. STREAM  RCH.  FLOW INTO     FLOW TO   FLOW OUT OF   OVRLND.     DIRECT     STREAM       STREAM     STREAM     STREAM   STREAMBED  STREAMBED
                SEG.NO.  NO.  STRM. RCH.    AQUIFER    STRM. RCH.    RUNOFF     PRECIP       ET          HEAD       DEPTH      WIDTH   CONDCTNC.   GRADIENT

   1   13    1     1     1    1.0000E+05 -2.5420E+03   1.0254E+05  0.000E+00  0.000E+00  0.000E+00  4.84071E+01  1.458E-01  2.000E+01  2.000E+04 -1.271E-01
   1   13    2     1     2    1.0254E+05 -3.6118E+03   1.0615E+05  0.000E+00  0.000E+00  0.000E+00  4.79325E+01  1.484E-01  2.000E+01  2.000E+04 -1.806E-01
   1   14    3     1     3    1.0615E+05 -6.0821E+02   1.0676E+05  0.000E+00  0.000E+00  0.000E+00  4.74570E+01  1.502E-01  2.000E+01  2.000E+04 -3.041E-02
   1   15    4     1     4    1.0676E+05  1.3382E+04   9.3380E+04  0.000E+00  0.000E+00  0.000E+00  4.69743E+01  1.447E-01  2.000E+01  2.000E+04  6.691E-01
   1   16    5     1     5    9.3380E+04 -2.1196E+03   9.5500E+04  0.000E+00  0.000E+00  0.000E+00  4.64920E+01  1.398E-01  2.000E+01  2.000E+04 -1.060E-01
   1   16    6     1     6    9.5500E+04 -1.3588E+03   9.6858E+04  0.000E+00  0.000E+00  0.000E+00  4.60163E+01  1.413E-01  2.000E+01  2.000E+04 -6.794E-02
   1   16    7     1     7    9.6858E+04 -1.3413E+03   9.8200E+04  0.000E+00  0.000E+00  0.000E+00  4.55402E+01  1.425E-01  2.000E+01  2.000E+04 -6.707E-02
   1   16    8     1     8    9.8200E+04 -1.3386E+03   9.9538E+04  0.000E+00  0.000E+00  0.000E+00  4.50641E+01  1.437E-01  2.000E+01  2.000E+04 -6.693E-02
   1   16    9     1     9    9.9538E+04 -1.3287E+03   1.0087E+05  0.000E+00  0.000E+00  0.000E+00  4.45880E+01  1.448E-01  2.000E+01  2.000E+04 -6.644E-02
   1   16   10     1    10    1.0087E+05 -1.3119E+03   1.0218E+05  0.000E+00  0.000E+00  0.000E+00  4.41119E+01  1.460E-01  2.000E+01  2.000E+04 -6.559E-02
   1   16   11     1    11    1.0218E+05 -1.3170E+03   1.0350E+05  0.000E+00  0.000E+00  0.000E+00  4.36357E+01  1.471E-01  2.000E+01  2.000E+04 -6.585E-02
   1   16   12     1    12    1.0350E+05 -2.3067E+03   1.0580E+05  0.000E+00  0.000E+00  0.000E+00  4.31600E+01  1.487E-01  2.000E+01  2.000E+04 -1.153E-01
   1   15   13     1    13    1.0580E+05 -2.2784E+03   1.0808E+05  0.000E+00  0.000E+00  0.000E+00  4.26847E+01  1.506E-01  2.000E+01  2.000E+04 -1.139E-01
   1   14   14     1    14    1.0808E+05 -2.6054E+03   1.1069E+05  0.000E+00  0.000E+00  0.000E+00  4.22095E+01  1.526E-01  2.000E+01  2.000E+04 -1.303E-01
   1   13   15     1    15    1.1069E+05 -2.9293E+03   1.1362E+05  0.000E+00  0.000E+00  0.000E+00  4.17345E+01  1.550E-01  2.000E+01  2.000E+04 -1.465E-01
   1   12   16     1    16    1.1362E+05 -3.5721E+03   1.1719E+05  0.000E+00  0.000E+00  0.000E+00  4.12599E+01  1.576E-01  2.000E+01  2.000E+04 -1.786E-01
   1   12   17     1    17    1.1719E+05 -2.2228E+03   1.1941E+05  0.000E+00  0.000E+00  0.000E+00  4.07850E+01  1.600E-01  2.000E+01  2.000E+04 -1.111E-01
   1   12   18     1    18    1.1941E+05 -1.9493E+03   1.2136E+05  0.000E+00  0.000E+00  0.000E+00  4.03094E+01  1.617E-01  2.000E+01  2.000E+04 -9.747E-02
   1   12   19     1    19    1.2136E+05 -1.6781E+03   1.2304E+05  0.000E+00  0.000E+00  0.000E+00  3.98336E+01  1.631E-01  2.000E+01  2.000E+04 -8.390E-02
   1   13   20     1    20    1.2304E+05 -9.4973E+02   1.2399E+05  0.000E+00  0.000E+00  0.000E+00  3.93574E+01  1.642E-01  2.000E+01  2.000E+04 -4.749E-02
   1   14   21     1    21    1.2399E+05 -1.4456E+03   1.2543E+05  0.000E+00  0.000E+00  0.000E+00  3.88811E+01  1.651E-01  2.000E+01  2.000E+04 -7.228E-02
   1   14   22     1    22    1.2543E+05  5.0991E+03   1.2033E+05  0.000E+00  0.000E+00  0.000E+00  3.84023E+01  1.637E-01  2.000E+01  2.000E+04  2.550E-01
   1    9   30     2     1    5.0000E+04  1.9258E+02   4.9807E+04  0.000E+00  0.000E+00  0.000E+00  4.02407E+01  1.157E-01  2.000E+01  2.000E+04  9.629E-03
   1    9   29     2     2    4.9807E+04 -1.8657E+02   4.9994E+04  0.000E+00  0.000E+00  0.000E+00  3.99907E+01  1.157E-01  2.000E+01  2.000E+04 -9.329E-03
   1    9   28     2     3    4.9994E+04 -6.1645E+02   5.0610E+04  0.000E+00  0.000E+00  0.000E+00  3.97413E+01  1.163E-01  2.000E+01  2.000E+04 -3.082E-02
   1    9   27     2     4    5.0610E+04 -2.0987E+03   5.2709E+04  0.000E+00  0.000E+00  0.000E+00  3.94932E+01  1.182E-01  2.000E+01  2.000E+04 -1.049E-01
   1   10   26     2     5    5.2709E+04 -5.9455E+02   5.3304E+04  0.000E+00  0.000E+00  0.000E+00  3.92450E+01  1.200E-01  2.000E+01  2.000E+04 -2.973E-02
   1   11   25     2     6    5.3304E+04  1.0461E+02   5.3199E+04  0.000E+00  0.000E+00  0.000E+00  3.89953E+01  1.203E-01  2.000E+01  2.000E+04  5.231E-03
   1   12   24     2     7    5.3199E+04  6.8351E+02   5.2516E+04  0.000E+00  0.000E+00  0.000E+00  3.87448E+01  1.198E-01  2.000E+01  2.000E+04  3.418E-02
   1   13   23     2     8    5.2516E+04  1.4143E+02   5.2374E+04  0.000E+00  0.000E+00  0.000E+00  3.84942E+01  1.192E-01  2.000E+01  2.000E+04  7.072E-03
   1   14   22     2     9    5.2374E+04  1.9092E+03   5.0465E+04  0.000E+00  0.000E+00  0.000E+00  3.82428E+01  1.178E-01  2.000E+01  2.000E+04  9.546E-02
   1   14   22     3     1    1.7080E+05 -8.4773E+03   1.7928E+05  0.000E+00  0.000E+00  0.000E+00  3.77235E+01  1.679E-01  2.000E+01  2.000E+04 -4.239E-01
   1   15   23     3     2    1.7928E+05 -6.1804E+02   1.7989E+05  0.000E+00  0.000E+00  0.000E+00  3.68372E+01  1.706E-01  2.000E+01  2.000E+04 -3.090E-02
   1   15   24     3     3    1.7989E+05 -3.0935E+02   1.8020E+05  0.000E+00  0.000E+00  0.000E+00  3.59486E+01  1.708E-01  2.000E+01  2.000E+04 -1.547E-02
   1   15   25     3     4    1.8020E+05 -2.6140E+02   1.8047E+05  0.000E+00  0.000E+00  0.000E+00  3.50599E+01  1.710E-01  2.000E+01  2.000E+04 -1.307E-02
   1   15   26     3     5    1.8047E+05 -5.7029E+00   1.8047E+05  0.000E+00  0.000E+00  0.000E+00  3.41711E+01  1.711E-01  2.000E+01  2.000E+04 -2.851E-04
   1   16   27     3     6    1.8047E+05  3.5388E+02   1.8012E+05  0.000E+00  0.000E+00  0.000E+00  3.32821E+01  1.710E-01  2.000E+01  2.000E+04  1.769E-02
   1   17   28     3     7    1.8012E+05  7.5216E+03   1.7260E+05  0.000E+00  0.000E+00  0.000E+00  3.23909E+01  1.687E-01  2.000E+01  2.000E+04  3.761E-01
   1   18   29     3     8    1.7260E+05  2.3195E+04   1.4940E+05  0.000E+00  0.000E+00  0.000E+00  3.14931E+01  1.597E-01  2.000E+01  2.000E+04  1.160E+00
   1   18   30     3     9    1.4940E+05  8.3033E+03   1.4110E+05  0.000E+00  0.000E+00  0.000E+00  3.05946E+01  1.502E-01  2.000E+01  2.000E+04  4.152E-01



1
              HEAD IN LAYER   1 AT END OF TIME STEP   1 IN STRESS PERIOD    4
  ---------------------------------------------------------------------------

          1      2      3      4      5      6      7      8      9     10
         11     12     13     14     15     16     17     18     19     20
         21     22     23     24     25     26     27     28     29     30
 .........................................................................
   1  ****** ****** ****** ****** ****** ****** ****** ****** ****** ******
      ****** ****** ****** ****** ****** ****** ****** ****** ****** ******
      ****** ****** ****** ****** ****** ****** ****** ****** ****** ******
   2  ****** ****** ****** ****** ****** ****** ****** ****** ****** ******
      ****** ****** ****** ****** ****** ****** ****** ****** ****** ******
      ****** ****** ****** ****** ****** ****** ****** ****** ****** ******
   3  ****** ****** ****** ****** ****** ****** ****** ****** ****** ******
      ****** ****** ****** ****** ****** ****** ****** ****** ****** ******
      ****** ****** ****** ****** ****** ****** ****** ****** ****** ******
   4  ****** ****** ****** ****** ****** ****** ****** ****** ****** ******
      ****** ****** ****** ****** ****** ****** ****** ****** ****** ******
      ****** ****** ****** ****** ****** ****** ****** ****** ****** ******
   5  ****** ****** ****** ****** ****** ****** ****** ****** ****** ******
      ****** ****** ****** ****** ****** ****** ****** ****** ****** ******
      ****** ****** ****** ****** ****** ****** ****** ****** ****** ******
   6  ****** ****** ****** ****** ****** ****** ****** ****** ****** ******
      ****** ****** ****** ****** ****** ****** ****** ****** ****** ******
      ****** ****** ****** ****** ****** ****** ****** ****** ****** ******
   7  ****** ****** ****** ****** ****** ****** ****** ****** ****** ******
      ****** ****** ****** ****** ****** ****** ****** ****** ****** ******
      ****** ****** ****** ****** ****** ****** ****** ****** ****** ******
   8  ****** ****** ****** ****** ****** ****** ****** ****** ****** ******
      ****** ****** ****** ****** ****** ****** ****** ****** ****** ******
      ****** ****** ****** ****** ****** ****** ****** ****** ****** ******
   9  ****** ****** ****** ****** ****** ****** ****** ****** ****** ******
      ****** ****** ****** ****** ****** ****** ****** ****** ****** ******
      ****** ****** ****** ****** ****** ****** ****** ****** ****** ******
  10  ****** ****** ****** ****** ****** ****** ****** ****** ****** ******
      ****** ****** ****** ****** ****** ****** ****** ****** ****** ******
      ****** ****** ****** ****** ****** ****** ****** ****** ****** ******
  11  ****** ****** ****** ****** ****** ****** ****** ****** ****** ******
      ****** ****** ****** ****** ****** ****** ****** ****** ****** ******
      ****** ****** ****** ****** ****** ****** ****** ****** ****** ******
  12  ****** ****** ****** ****** ****** ****** ****** ****** ****** ******
      ****** ****** ****** ****** ****** ****** ****** ****** ****** ******
      ****** ****** ****** ****** ****** ****** ****** ****** ****** ******
  13  ****** ****** ****** ****** ****** ****** ****** ****** ****** ******
      ****** ****** ****** ****** ****** ****** ****** ****** ****** ******
      ****** ****** ****** ****** ****** ****** ****** ****** ****** ******
  14  ****** ****** ****** ****** ****** ****** ****** ****** ****** ******
      ****** ****** ****** ****** ****** ****** ****** ****** ****** ******
      ****** ****** ****** ****** ****** ****** ****** ****** ****** ******
  15  ****** ****** ****** ****** ****** ****** ****** ****** ****** ******
      ****** ****** ****** ****** ****** ****** ****** ****** ****** ******
      ****** ****** ****** ****** ****** ****** ****** ****** ****** ******
  16  ****** ****** ****** ****** ****** ****** ****** ****** ****** ******
      ****** ****** ****** ****** ****** ****** ****** ****** ****** ******
      ****** ****** ****** ****** ****** ****** ****** ****** ****** ******
  17  ****** ****** ****** ****** ****** ****** ****** ****** ****** ******
      ****** ****** ****** ****** ****** ****** ****** ****** ****** ******
      ****** ****** ****** ****** ****** ****** ****** ****** ****** ******
  18  ****** ****** ****** ****** ****** ****** ****** ****** ****** ******
      ****** ****** ****** ****** ****** ****** ****** ****** ****** ******
      ****** ****** ****** ****** ****** ****** ****** ****** ****** ******
  19  ****** ****** ****** ****** ****** ****** ****** ****** ****** ******
      ****** ****** ****** ****** ****** ****** ****** ****** ****** ******
      ****** ****** ****** ****** ****** ****** ****** ****** ****** ******
  20  ****** ****** ****** ****** ****** ****** ****** ****** ****** ******
      ****** ****** ****** ****** ****** ****** ****** ****** ****** ******
      ****** ****** ****** ****** ****** ****** ****** ****** ****** ******
  21  ****** ****** ****** ****** ****** ****** ****** ****** ****** ******
      ****** ****** ****** ****** ****** ****** ****** ****** ****** ******
      ****** ****** ****** ****** ****** ****** ****** ****** ****** ******
  22  ****** ****** ****** ****** ****** ****** ****** ****** ****** ******
      ****** ****** ****** ****** ****** ****** ****** ****** ****** ******
      ****** ****** ****** ****** ****** ****** ****** ****** ****** ******
  23  ****** ****** ****** ****** ****** ****** ****** ****** ****** ******
      ****** ****** ****** ****** ****** ****** ****** ****** ****** ******
      ****** ****** ****** ****** ****** ****** ****** ****** ****** ******
  24  ****** ****** ****** ****** ****** ****** ****** ****** ****** ******
      ****** ****** ****** ****** ****** ****** ****** ****** ****** ******
      ****** ****** ****** ****** ****** ****** ****** ****** ****** ******
  25  ****** ****** ****** ****** ****** ****** ****** ****** ****** ******
      ****** ****** ****** ****** ****** ****** ****** ****** ****** ******
      ****** ****** ****** ****** ****** ****** ****** ****** ****** ******

 HEAD WILL BE SAVED ON UNIT   51 AT END OF TIME STEP    1, STRESS PERIOD    4
1
  VOLUMETRIC BUDGET FOR ENTIRE MODEL AT END OF TIME STEP    1, STRESS PERIOD   4
  ------------------------------------------------------------------------------

     CUMULATIVE VOLUMES      L**3       RATES FOR THIS TIME STEP      L**3/T
     ------------------                 ------------------------

           IN:                                      IN:
           ---                                      ---
             STORAGE =    28505676.4504               STORAGE =       17663.1352
       CONSTANT HEAD =     7264544.9311         CONSTANT HEAD =       26958.8968
               WELLS =           0.0000                 WELLS =           0.0000
            RECHARGE =     8804400.0000              RECHARGE =       27600.0000
      STREAM LEAKAGE =    19575538.4097        STREAM LEAKAGE =       60885.8520

            TOTAL IN =    64150159.7912              TOTAL IN =      133107.8840

          OUT:                                     OUT:
          ----                                     ----
             STORAGE =         253.3689               STORAGE =           2.7843
       CONSTANT HEAD =           0.0000         CONSTANT HEAD =           0.0000
               WELLS =    29609373.5569                 WELLS =       81121.5714
            RECHARGE =           0.0000              RECHARGE =           0.0000
      STREAM LEAKAGE =    34540534.6317        STREAM LEAKAGE =       51983.5311

           TOTAL OUT =    64150161.5574             TOTAL OUT =      133107.8867

            IN - OUT =          -1.7662              IN - OUT =      -2.7082E-03

 PERCENT DISCREPANCY =          -0.00     PERCENT DISCREPANCY =          -0.00






         TIME SUMMARY AT END OF TIME STEP    1 IN STRESS PERIOD    4
                    SECONDS     MINUTES      HOURS       DAYS        YEARS
                    -----------------------------------------------------------
   TIME STEP LENGTH 7.86240E+06 1.31040E+05  2184.0      91.000     0.24914    
 STRESS PERIOD TIME 7.86240E+06 1.31040E+05  2184.0      91.000     0.24914    
         TOTAL TIME 3.15360E+07 5.25600E+05  8760.0      365.00     0.99932    
1
1
                            STRESS PERIOD NO.    5, LENGTH =   92.00000    
                            -----------------------------------------------

                              NUMBER OF TIME STEPS =     1

                               MULTIPLIER FOR DELT =     1.500

                            INITIAL TIME STEP SIZE =   92.00000    

 WELL NO.  LAYER   ROW   COL   STRESS RATE         
 --------------------------------------------------
      1      1     15      4     -0.1412E+05
      2      1     11     22     -0.1126E+05
      3      1     18     29     -0.4576E+05
      4      1     14     29      -9979.    

      4 WELLS

                 RECHARGE =  5.000000E-04

 REUSING STREAM SEGMENT DATA FROM LAST STRESS PERIOD
 
 SOLVING FOR HEAD 


     8 CALLS TO PCG ROUTINE FOR TIME STEP   1 IN STRESS PERIOD    5
    31 TOTAL ITERATIONS

 OUTPUT CONTROL FOR STRESS PERIOD    5   TIME STEP    1
    SAVE BUDGET
    SAVE HEAD FOR ALL LAYERS
    PRINT HEAD FOR ALL LAYERS
 UBDSV2 SAVING "STREAMFLOW OUT  " ON UNIT  50 AT TIME STEP  1, STRESS PERIOD   5



 STREAM LISTING     PERIOD      5   STEP        1

 LAYER ROW COL. STREAM  RCH.  FLOW INTO     FLOW TO   FLOW OUT OF   OVRLND.     DIRECT     STREAM       STREAM     STREAM     STREAM   STREAMBED  STREAMBED
                SEG.NO.  NO.  STRM. RCH.    AQUIFER    STRM. RCH.    RUNOFF     PRECIP       ET          HEAD       DEPTH      WIDTH   CONDCTNC.   GRADIENT

   1   13    1     1     1    1.0000E+05 -2.1371E+03   1.0214E+05  0.000E+00  0.000E+00  0.000E+00  4.84069E+01  1.456E-01  2.000E+01  2.000E+04 -1.069E-01
   1   13    2     1     2    1.0214E+05 -3.1541E+03   1.0529E+05  0.000E+00  0.000E+00  0.000E+00  4.79319E+01  1.479E-01  2.000E+01  2.000E+04 -1.577E-01
   1   14    3     1     3    1.0529E+05 -4.8747E+02   1.0578E+05  0.000E+00  0.000E+00  0.000E+00  4.74562E+01  1.494E-01  2.000E+01  2.000E+04 -2.437E-02
   1   15    4     1     4    1.0578E+05  1.3509E+04   9.2269E+04  0.000E+00  0.000E+00  0.000E+00  4.69733E+01  1.438E-01  2.000E+01  2.000E+04  6.755E-01
   1   16    5     1     5    9.2269E+04 -1.6931E+03   9.3962E+04  0.000E+00  0.000E+00  0.000E+00  4.64909E+01  1.386E-01  2.000E+01  2.000E+04 -8.466E-02
   1   16    6     1     6    9.3962E+04 -1.1096E+03   9.5072E+04  0.000E+00  0.000E+00  0.000E+00  4.60148E+01  1.398E-01  2.000E+01  2.000E+04 -5.548E-02
   1   16    7     1     7    9.5072E+04 -1.1026E+03   9.6174E+04  0.000E+00  0.000E+00  0.000E+00  4.55385E+01  1.408E-01  2.000E+01  2.000E+04 -5.513E-02
   1   16    8     1     8    9.6174E+04 -1.1037E+03   9.7278E+04  0.000E+00  0.000E+00  0.000E+00  4.50622E+01  1.418E-01  2.000E+01  2.000E+04 -5.518E-02
   1   16    9     1     9    9.7278E+04 -1.0969E+03   9.8375E+04  0.000E+00  0.000E+00  0.000E+00  4.45859E+01  1.428E-01  2.000E+01  2.000E+04 -5.485E-02
   1   16   10     1    10    9.8375E+04 -1.0836E+03   9.9459E+04  0.000E+00  0.000E+00  0.000E+00  4.41096E+01  1.437E-01  2.000E+01  2.000E+04 -5.418E-02
   1   16   11     1    11    9.9459E+04 -1.0883E+03   1.0055E+05  0.000E+00  0.000E+00  0.000E+00  4.36333E+01  1.447E-01  2.000E+01  2.000E+04 -5.441E-02
   1   16   12     1    12    1.0055E+05 -1.8976E+03   1.0244E+05  0.000E+00  0.000E+00  0.000E+00  4.31573E+01  1.459E-01  2.000E+01  2.000E+04 -9.488E-02
   1   15   13     1    13    1.0244E+05 -1.8495E+03   1.0429E+05  0.000E+00  0.000E+00  0.000E+00  4.26816E+01  1.476E-01  2.000E+01  2.000E+04 -9.247E-02
   1   14   14     1    14    1.0429E+05 -2.1509E+03   1.0644E+05  0.000E+00  0.000E+00  0.000E+00  4.22061E+01  1.493E-01  2.000E+01  2.000E+04 -1.075E-01
   1   13   15     1    15    1.0644E+05 -2.4594E+03   1.0890E+05  0.000E+00  0.000E+00  0.000E+00  4.17308E+01  1.512E-01  2.000E+01  2.000E+04 -1.230E-01
   1   12   16     1    16    1.0890E+05 -3.0602E+03   1.1196E+05  0.000E+00  0.000E+00  0.000E+00  4.12558E+01  1.535E-01  2.000E+01  2.000E+04 -1.530E-01
   1   12   17     1    17    1.1196E+05 -1.8774E+03   1.1384E+05  0.000E+00  0.000E+00  0.000E+00  4.07806E+01  1.556E-01  2.000E+01  2.000E+04 -9.387E-02
   1   12   18     1    18    1.1384E+05 -1.6198E+03   1.1546E+05  0.000E+00  0.000E+00  0.000E+00  4.03047E+01  1.570E-01  2.000E+01  2.000E+04 -8.099E-02
   1   12   19     1    19    1.1546E+05 -1.2785E+03   1.1674E+05  0.000E+00  0.000E+00  0.000E+00  3.98287E+01  1.582E-01  2.000E+01  2.000E+04 -6.393E-02
   1   13   20     1    20    1.1674E+05 -5.9797E+02   1.1734E+05  0.000E+00  0.000E+00  0.000E+00  3.93522E+01  1.590E-01  2.000E+01  2.000E+04 -2.990E-02
   1   14   21     1    21    1.1734E+05 -1.0656E+03   1.1840E+05  0.000E+00  0.000E+00  0.000E+00  3.88756E+01  1.596E-01  2.000E+01  2.000E+04 -5.328E-02
   1   14   22     1    22    1.1840E+05  5.1795E+03   1.1322E+05  0.000E+00  0.000E+00  0.000E+00  3.83966E+01  1.580E-01  2.000E+01  2.000E+04  2.590E-01
   1    9   30     2     1    5.0000E+04  4.2833E+02   4.9572E+04  0.000E+00  0.000E+00  0.000E+00  4.02406E+01  1.156E-01  2.000E+01  2.000E+04  2.142E-02
   1    9   29     2     2    4.9572E+04  5.2046E+01   4.9520E+04  0.000E+00  0.000E+00  0.000E+00  3.99902E+01  1.152E-01  2.000E+01  2.000E+04  2.602E-03
   1    9   28     2     3    4.9520E+04 -3.6748E+02   4.9887E+04  0.000E+00  0.000E+00  0.000E+00  3.97405E+01  1.155E-01  2.000E+01  2.000E+04 -1.837E-02
   1    9   27     2     4    4.9887E+04 -1.7121E+03   5.1599E+04  0.000E+00  0.000E+00  0.000E+00  3.94919E+01  1.169E-01  2.000E+01  2.000E+04 -8.561E-02
   1   10   26     2     5    5.1599E+04 -2.5354E+02   5.1853E+04  0.000E+00  0.000E+00  0.000E+00  3.92432E+01  1.182E-01  2.000E+01  2.000E+04 -1.268E-02
   1   11   25     2     6    5.1853E+04  4.1742E+02   5.1435E+04  0.000E+00  0.000E+00  0.000E+00  3.89931E+01  1.181E-01  2.000E+01  2.000E+04  2.087E-02
   1   12   24     2     7    5.1435E+04  9.6686E+02   5.0468E+04  0.000E+00  0.000E+00  0.000E+00  3.87422E+01  1.172E-01  2.000E+01  2.000E+04  4.834E-02
   1   13   23     2     8    5.0468E+04  2.0966E+02   5.0259E+04  0.000E+00  0.000E+00  0.000E+00  3.84914E+01  1.164E-01  2.000E+01  2.000E+04  1.048E-02
   1   14   22     2     9    5.0259E+04  2.0434E+03   4.8215E+04  0.000E+00  0.000E+00  0.000E+00  3.82398E+01  1.148E-01  2.000E+01  2.000E+04  1.022E-01
   1   14   22     3     1    1.6144E+05 -8.3920E+03   1.6983E+05  0.000E+00  0.000E+00  0.000E+00  3.77180E+01  1.625E-01  2.000E+01  2.000E+04 -4.196E-01
   1   15   23     3     2    1.6983E+05 -5.1748E+02   1.7035E+05  0.000E+00  0.000E+00  0.000E+00  3.68318E+01  1.651E-01  2.000E+01  2.000E+04 -2.587E-02
   1   15   24     3     3    1.7035E+05 -2.3487E+02   1.7058E+05  0.000E+00  0.000E+00  0.000E+00  3.59431E+01  1.653E-01  2.000E+01  2.000E+04 -1.174E-02
   1   15   25     3     4    1.7058E+05 -1.8670E+02   1.7077E+05  0.000E+00  0.000E+00  0.000E+00  3.50543E+01  1.654E-01  2.000E+01  2.000E+04 -9.335E-03
   1   15   26     3     5    1.7077E+05  7.1988E+01   1.7070E+05  0.000E+00  0.000E+00  0.000E+00  3.41655E+01  1.655E-01  2.000E+01  2.000E+04  3.599E-03
   1   16   27     3     6    1.7070E+05  4.5638E+02   1.7024E+05  0.000E+00  0.000E+00  0.000E+00  3.32764E+01  1.653E-01  2.000E+01  2.000E+04  2.282E-02
   1   17   28     3     7    1.7024E+05  7.9869E+03   1.6226E+05  0.000E+00  0.000E+00  0.000E+00  3.23851E+01  1.628E-01  2.000E+01  2.000E+04  3.993E-01
   1   18   29     3     8    1.6226E+05  2.3071E+04   1.3918E+05  0.000E+00  0.000E+00  0.000E+00  3.14869E+01  1.535E-01  2.000E+01  2.000E+04  1.154E+00
   1   18   30     3     9    1.3918E+05  8.8636E+03   1.3032E+05  0.000E+00  0.000E+00  0.000E+00  3.05880E+01  1.436E-01  2.000E+01  2.000E+04  4.432E-01



1
              HEAD IN LAYER   1 AT END OF TIME STEP   1 IN STRESS PERIOD    5
  ---------------------------------------------------------------------------

          1      2      3      4      5      6      7      8      9     10
         11     12     13     14     15     16     17     18     19     20
         21     22     23     24     25     26     27     28     29     30
 .........................................................................
   1  ****** ****** ****** ****** ****** ****** ****** ****** ****** ******
      ****** ****** ****** ****** ****** ****** ****** ****** ****** ******
      ****** ****** ****** ****** ****** ****** ****** ****** ****** ******
   2  ****** ****** ****** ****** ****** ****** ****** ****** ****** ******
      ****** ****** ****** ****** ****** ****** ****** ****** ****** ******
      ****** ****** ****** ****** ****** ****** ****** ****** ****** ******
   3  ****** ****** ****** ****** ****** ****** ****** ****** ****** ******
      ****** ****** ****** ****** ****** ****** ****** ****** ****** ******
      ****** ****** ****** ****** ****** ****** ****** ****** ****** ******
   4  ****** ****** ****** ****** ****** ****** ****** ****** ****** ******
      ****** ****** ****** ****** ****** ****** ****** ****** ****** ******
      ****** ****** ****** ****** ****** ****** ****** ****** ****** ******
   5  ****** ****** ****** ****** ****** ****** ****** ****** ****** ******
      ****** ****** ****** ****** ****** ****** ****** ****** ****** ******
      ****** ****** ****** ****** ****** ****** ****** ****** ****** ******
   6  ****** ****** ****** ****** ****** ****** ****** ****** ****** ******
      ****** ****** ****** ****** ****** ****** ****** ****** ****** ******
      ****** ****** ****** ****** ****** ****** ****** ****** ****** ******
   7  ****** ****** ****** ****** ****** ****** ****** ****** ****** ******
      ****** ****** ****** ****** ****** ****** ****** ****** ****** ******
      ****** ****** ****** ****** ****** ****** ****** ****** ****** ******
   8  ****** ****** ****** ****** ****** ****** ****** ****** ****** ******
      ****** ****** ****** ****** ****** ****** ****** ****** ****** ******
      ****** ****** ****** ****** ****** ****** ****** ****** ****** ******
   9  ****** ****** ****** ****** ****** ****** ****** ****** ****** ******
      ****** ****** ****** ****** ****** ****** ****** ****** ****** ******
      ****** ****** ****** ****** ****** ****** ****** ****** ****** ******
  10  ****** ****** ****** ****** ****** ****** ****** ****** ****** ******
      ****** ****** ****** ****** ****** ****** ****** ****** ****** ******
      ****** ****** ****** ****** ****** ****** ****** ****** ****** ******
  11  ****** ****** ****** ****** ****** ****** ****** ****** ****** ******
      ****** ****** ****** ****** ****** ****** ****** ****** ****** ******
      ****** ****** ****** ****** ****** ****** ****** ****** ****** ******
  12  ****** ****** ****** ****** ****** ****** ****** ****** ****** ******
      ****** ****** ****** ****** ****** ****** ****** ****** ****** ******
      ****** ****** ****** ****** ****** ****** ****** ****** ****** ******
  13  ****** ****** ****** ****** ****** ****** ****** ****** ****** ******
      ****** ****** ****** ****** ****** ****** ****** ****** ****** ******
      ****** ****** ****** ****** ****** ****** ****** ****** ****** ******
  14  ****** ****** ****** ****** ****** ****** ****** ****** ****** ******
      ****** ****** ****** ****** ****** ****** ****** ****** ****** ******
      ****** ****** ****** ****** ****** ****** ****** ****** ****** ******
  15  ****** ****** ****** ****** ****** ****** ****** ****** ****** ******
      ****** ****** ****** ****** ****** ****** ****** ****** ****** ******
      ****** ****** ****** ****** ****** ****** ****** ****** ****** ******
  16  ****** ****** ****** ****** ****** ****** ****** ****** ****** ******
      ****** ****** ****** ****** ****** ****** ****** ****** ****** ******
      ****** ****** ****** ****** ****** ****** ****** ****** ****** ******
  17  ****** ****** ****** ****** ****** ****** ****** ****** ****** ******
      ****** ****** ****** ****** ****** ****** ****** ****** ****** ******
      ****** ****** ****** ****** ****** ****** ****** ****** ****** ******
  18  ****** ****** ****** ****** ****** ****** ****** ****** ****** ******
      ****** ****** ****** ****** ****** ****** ****** ****** ****** ******
      ****** ****** ****** ****** ****** ****** ****** ****** ****** ******
  19  ****** ****** ****** ****** ****** ****** ****** ****** ****** ******
      ****** ****** ****** ****** ****** ****** ****** ****** ****** ******
      ****** ****** ****** ****** ****** ****** ****** ****** ****** ******
  20  ****** ****** ****** ****** ****** ****** ****** ****** ****** ******
      ****** ****** ****** ****** ****** ****** ****** ****** ****** ******
      ****** ****** ****** ****** ****** ****** ****** ****** ****** ******
  21  ****** ****** ****** ****** ****** ****** ****** ****** ****** ******
      ****** ****** ****** ****** ****** ****** ****** ****** ****** ******
      ****** ****** ****** ****** ****** ****** ****** ****** ****** ******
  22  ****** ****** ****** ****** ****** ****** ****** ****** ****** ******
      ****** ****** ****** ****** ****** ****** ****** ****** ****** ******
      ****** ****** ****** ****** ****** ****** ****** ****** ****** ******
  23  ****** ****** ****** ****** ****** ****** ****** ****** ****** ******
      ****** ****** ****** ****** ****** ****** ****** ****** ****** ******
      ****** ****** ****** ****** ****** ****** ****** ****** ****** ******
  24  ****** ****** ****** ****** ****** ****** ****** ****** ****** ******
      ****** ****** ****** ****** ****** ****** ****** ****** ****** ******
      ****** ****** ****** ****** ****** ****** ****** ****** ****** ******
  25  ****** ****** ****** ****** ****** ****** ****** ****** ****** ******
      ****** ****** ****** ****** ****** ****** ****** ****** ****** ******
      ****** ****** ****** ****** ****** ****** ****** ****** ****** ******

 HEAD WILL BE SAVED ON UNIT   51 AT END OF TIME STEP    1, STRESS PERIOD    5
1
  VOLUMETRIC BUDGET FOR ENTIRE MODEL AT END OF TIME STEP    1, STRESS PERIOD   5
  ------------------------------------------------------------------------------

     CUMULATIVE VOLUMES      L**3       RATES FOR THIS TIME STEP      L**3/T
     ------------------                 ------------------------

           IN:                                      IN:
           ---                                      ---
             STORAGE =    30146402.0911               STORAGE =       17833.9744
       CONSTANT HEAD =    10006953.4681         CONSTANT HEAD =       29808.7884
               WELLS =           0.0000                 WELLS =           0.0000
            RECHARGE =    10074000.0000              RECHARGE =       13800.0000
      STREAM LEAKAGE =    25395101.9468        STREAM LEAKAGE =       63256.1254

            TOTAL IN =    75622457.5060              TOTAL IN =      124698.8882

          OUT:                                     OUT:
          ----                                     ----
             STORAGE =         253.3689               STORAGE =           0.0000
       CONSTANT HEAD =           0.0000         CONSTANT HEAD =           0.0000
               WELLS =    37072558.1246                 WELLS =       81121.5714
            RECHARGE =           0.0000              RECHARGE =           0.0000
      STREAM LEAKAGE =    38549647.9430        STREAM LEAKAGE =       43577.3186

           TOTAL OUT =    75622459.4365             TOTAL OUT =      124698.8900

            IN - OUT =          -1.9305              IN - OUT =      -1.7865E-03

 PERCENT DISCREPANCY =          -0.00     PERCENT DISCREPANCY =          -0.00






         TIME SUMMARY AT END OF TIME STEP    1 IN STRESS PERIOD    5
                    SECONDS     MINUTES      HOURS       DAYS        YEARS
                    -----------------------------------------------------------
   TIME STEP LENGTH 7.94880E+06 1.32480E+05  2208.0      92.000     0.25188    
 STRESS PERIOD TIME 7.94880E+06 1.32480E+05  2208.0      92.000     0.25188    
         TOTAL TIME 3.94848E+07 6.58080E+05  10968.      457.00      1.2512    
1
1
                            STRESS PERIOD NO.    6, LENGTH =   91.00000    
                            -----------------------------------------------

                              NUMBER OF TIME STEPS =     1

                               MULTIPLIER FOR DELT =     1.500

                            INITIAL TIME STEP SIZE =   91.00000    

 WELL NO.  LAYER   ROW   COL   STRESS RATE         
 --------------------------------------------------
      1      1     15      4     -0.1412E+05
      2      1     11     22     -0.1126E+05
      3      1     18     29     -0.4576E+05
      4      1     14     29      -9979.    

      4 WELLS

                 RECHARGE =  2.000000E-03

 REUSING STREAM SEGMENT DATA FROM LAST STRESS PERIOD
 
 SOLVING FOR HEAD 


     8 CALLS TO PCG ROUTINE FOR TIME STEP   1 IN STRESS PERIOD    6
    31 TOTAL ITERATIONS

 OUTPUT CONTROL FOR STRESS PERIOD    6   TIME STEP    1
    SAVE BUDGET
    SAVE HEAD FOR ALL LAYERS
    PRINT HEAD FOR ALL LAYERS
 UBDSV2 SAVING "STREAMFLOW OUT  " ON UNIT  50 AT TIME STEP  1, STRESS PERIOD   6



 STREAM LISTING     PERIOD      6   STEP        1

 LAYER ROW COL. STREAM  RCH.  FLOW INTO     FLOW TO   FLOW OUT OF   OVRLND.     DIRECT     STREAM       STREAM     STREAM     STREAM   STREAMBED  STREAMBED
                SEG.NO.  NO.  STRM. RCH.    AQUIFER    STRM. RCH.    RUNOFF     PRECIP       ET          HEAD       DEPTH      WIDTH   CONDCTNC.   GRADIENT

   1   13    1     1     1    1.0000E+05 -2.4604E+03   1.0246E+05  0.000E+00  0.000E+00  0.000E+00  4.84071E+01  1.457E-01  2.000E+01  2.000E+04 -1.230E-01
   1   13    2     1     2    1.0246E+05 -3.5084E+03   1.0597E+05  0.000E+00  0.000E+00  0.000E+00  4.79324E+01  1.483E-01  2.000E+01  2.000E+04 -1.754E-01
   1   14    3     1     3    1.0597E+05 -6.4369E+02   1.0661E+05  0.000E+00  0.000E+00  0.000E+00  4.74569E+01  1.500E-01  2.000E+01  2.000E+04 -3.218E-02
   1   15    4     1     4    1.0661E+05  1.3342E+04   9.3271E+04  0.000E+00  0.000E+00  0.000E+00  4.69741E+01  1.446E-01  2.000E+01  2.000E+04  6.671E-01
   1   16    5     1     5    9.3271E+04 -2.1924E+03   9.5463E+04  0.000E+00  0.000E+00  0.000E+00  4.64920E+01  1.397E-01  2.000E+01  2.000E+04 -1.096E-01
   1   16    6     1     6    9.5463E+04 -1.4028E+03   9.6866E+04  0.000E+00  0.000E+00  0.000E+00  4.60163E+01  1.413E-01  2.000E+01  2.000E+04 -7.014E-02
   1   16    7     1     7    9.6866E+04 -1.3806E+03   9.8246E+04  0.000E+00  0.000E+00  0.000E+00  4.55402E+01  1.425E-01  2.000E+01  2.000E+04 -6.903E-02
   1   16    8     1     8    9.8246E+04 -1.3771E+03   9.9623E+04  0.000E+00  0.000E+00  0.000E+00  4.50642E+01  1.437E-01  2.000E+01  2.000E+04 -6.886E-02
   1   16    9     1     9    9.9623E+04 -1.3699E+03   1.0099E+05  0.000E+00  0.000E+00  0.000E+00  4.45881E+01  1.449E-01  2.000E+01  2.000E+04 -6.849E-02
   1   16   10     1    10    1.0099E+05 -1.3580E+03   1.0235E+05  0.000E+00  0.000E+00  0.000E+00  4.41120E+01  1.461E-01  2.000E+01  2.000E+04 -6.790E-02
   1   16   11     1    11    1.0235E+05 -1.3659E+03   1.0372E+05  0.000E+00  0.000E+00  0.000E+00  4.36359E+01  1.473E-01  2.000E+01  2.000E+04 -6.829E-02
   1   16   12     1    12    1.0372E+05 -2.3464E+03   1.0606E+05  0.000E+00  0.000E+00  0.000E+00  4.31602E+01  1.489E-01  2.000E+01  2.000E+04 -1.173E-01
   1   15   13     1    13    1.0606E+05 -2.3099E+03   1.0837E+05  0.000E+00  0.000E+00  0.000E+00  4.26849E+01  1.508E-01  2.000E+01  2.000E+04 -1.155E-01
   1   14   14     1    14    1.0837E+05 -2.6078E+03   1.1098E+05  0.000E+00  0.000E+00  0.000E+00  4.22097E+01  1.529E-01  2.000E+01  2.000E+04 -1.304E-01
   1   13   15     1    15    1.1098E+05 -2.8984E+03   1.1388E+05  0.000E+00  0.000E+00  0.000E+00  4.17347E+01  1.552E-01  2.000E+01  2.000E+04 -1.449E-01
   1   12   16     1    16    1.1388E+05 -3.4560E+03   1.1734E+05  0.000E+00  0.000E+00  0.000E+00  4.12601E+01  1.578E-01  2.000E+01  2.000E+04 -1.728E-01
   1   12   17     1    17    1.1734E+05 -2.1970E+03   1.1953E+05  0.000E+00  0.000E+00  0.000E+00  4.07851E+01  1.601E-01  2.000E+01  2.000E+04 -1.099E-01
   1   12   18     1    18    1.1953E+05 -1.9424E+03   1.2148E+05  0.000E+00  0.000E+00  0.000E+00  4.03095E+01  1.618E-01  2.000E+01  2.000E+04 -9.712E-02
   1   12   19     1    19    1.2148E+05 -1.6793E+03   1.2315E+05  0.000E+00  0.000E+00  0.000E+00  3.98337E+01  1.632E-01  2.000E+01  2.000E+04 -8.397E-02
   1   13   20     1    20    1.2315E+05 -1.0225E+03   1.2418E+05  0.000E+00  0.000E+00  0.000E+00  3.93575E+01  1.643E-01  2.000E+01  2.000E+04 -5.113E-02
   1   14   21     1    21    1.2418E+05 -1.4770E+03   1.2565E+05  0.000E+00  0.000E+00  0.000E+00  3.88812E+01  1.653E-01  2.000E+01  2.000E+04 -7.385E-02
   1   14   22     1    22    1.2565E+05  5.0722E+03   1.2058E+05  0.000E+00  0.000E+00  0.000E+00  3.84025E+01  1.639E-01  2.000E+01  2.000E+04  2.536E-01
   1    9   30     2     1    5.0000E+04  6.2705E+01   4.9937E+04  0.000E+00  0.000E+00  0.000E+00  4.02408E+01  1.158E-01  2.000E+01  2.000E+04  3.135E-03
   1    9   29     2     2    4.9937E+04 -3.0930E+02   5.0247E+04  0.000E+00  0.000E+00  0.000E+00  3.99910E+01  1.160E-01  2.000E+01  2.000E+04 -1.546E-02
   1    9   28     2     3    5.0247E+04 -7.2233E+02   5.0969E+04  0.000E+00  0.000E+00  0.000E+00  3.97417E+01  1.167E-01  2.000E+01  2.000E+04 -3.612E-02
   1    9   27     2     4    5.0969E+04 -2.1625E+03   5.3131E+04  0.000E+00  0.000E+00  0.000E+00  3.94937E+01  1.187E-01  2.000E+01  2.000E+04 -1.081E-01
   1   10   26     2     5    5.3131E+04 -7.2715E+02   5.3859E+04  0.000E+00  0.000E+00  0.000E+00  3.92457E+01  1.207E-01  2.000E+01  2.000E+04 -3.636E-02
   1   11   25     2     6    5.3859E+04 -4.1094E+01   5.3900E+04  0.000E+00  0.000E+00  0.000E+00  3.89962E+01  1.212E-01  2.000E+01  2.000E+04 -2.055E-03
   1   12   24     2     7    5.3900E+04  5.5334E+02   5.3346E+04  0.000E+00  0.000E+00  0.000E+00  3.87458E+01  1.208E-01  2.000E+01  2.000E+04  2.767E-02
   1   13   23     2     8    5.3346E+04  7.1308E+01   5.3275E+04  0.000E+00  0.000E+00  0.000E+00  3.84954E+01  1.204E-01  2.000E+01  2.000E+04  3.565E-03
   1   14   22     2     9    5.3275E+04  1.9033E+03   5.1372E+04  0.000E+00  0.000E+00  0.000E+00  3.82441E+01  1.191E-01  2.000E+01  2.000E+04  9.516E-02
   1   14   22     3     1    1.7195E+05 -8.4946E+03   1.8045E+05  0.000E+00  0.000E+00  0.000E+00  3.77242E+01  1.686E-01  2.000E+01  2.000E+04 -4.247E-01
   1   15   23     3     2    1.8045E+05 -6.5399E+02   1.8110E+05  0.000E+00  0.000E+00  0.000E+00  3.68379E+01  1.712E-01  2.000E+01  2.000E+04 -3.270E-02
   1   15   24     3     3    1.8110E+05 -3.5590E+02   1.8146E+05  0.000E+00  0.000E+00  0.000E+00  3.59493E+01  1.715E-01  2.000E+01  2.000E+04 -1.780E-02
   1   15   25     3     4    1.8146E+05 -3.1201E+02   1.8177E+05  0.000E+00  0.000E+00  0.000E+00  3.50606E+01  1.717E-01  2.000E+01  2.000E+04 -1.560E-02
   1   15   26     3     5    1.8177E+05 -7.8648E+01   1.8185E+05  0.000E+00  0.000E+00  0.000E+00  3.41718E+01  1.718E-01  2.000E+01  2.000E+04 -3.932E-03
   1   16   27     3     6    1.8185E+05  2.8599E+02   1.8156E+05  0.000E+00  0.000E+00  0.000E+00  3.32829E+01  1.718E-01  2.000E+01  2.000E+04  1.430E-02
   1   17   28     3     7    1.8156E+05  7.3819E+03   1.7418E+05  0.000E+00  0.000E+00  0.000E+00  3.23918E+01  1.696E-01  2.000E+01  2.000E+04  3.691E-01
   1   18   29     3     8    1.7418E+05  2.3213E+04   1.5097E+05  0.000E+00  0.000E+00  0.000E+00  3.14940E+01  1.607E-01  2.000E+01  2.000E+04  1.161E+00
   1   18   30     3     9    1.5097E+05  8.2655E+03   1.4270E+05  0.000E+00  0.000E+00  0.000E+00  3.05956E+01  1.511E-01  2.000E+01  2.000E+04  4.133E-01



1
              HEAD IN LAYER   1 AT END OF TIME STEP   1 IN STRESS PERIOD    6
  ---------------------------------------------------------------------------

          1      2      3      4      5      6      7      8      9     10
         11     12     13     14     15     16     17     18     19     20
         21     22     23     24     25     26     27     28     29     30
 .........................................................................
   1  ****** ****** ****** ****** ****** ****** ****** ****** ****** ******
      ****** ****** ****** ****** ****** ****** ****** ****** ****** ******
      ****** ****** ****** ****** ****** ****** ****** ****** ****** ******
   2  ****** ****** ****** ****** ****** ****** ****** ****** ****** ******
      ****** ****** ****** ****** ****** ****** ****** ****** ****** ******
      ****** ****** ****** ****** ****** ****** ****** ****** ****** ******
   3  ****** ****** ****** ****** ****** ****** ****** ****** ****** ******
      ****** ****** ****** ****** ****** ****** ****** ****** ****** ******
      ****** ****** ****** ****** ****** ****** ****** ****** ****** ******
   4  ****** ****** ****** ****** ****** ****** ****** ****** ****** ******
      ****** ****** ****** ****** ****** ****** ****** ****** ****** ******
      ****** ****** ****** ****** ****** ****** ****** ****** ****** ******
   5  ****** ****** ****** ****** ****** ****** ****** ****** ****** ******
      ****** ****** ****** ****** ****** ****** ****** ****** ****** ******
      ****** ****** ****** ****** ****** ****** ****** ****** ****** ******
   6  ****** ****** ****** ****** ****** ****** ****** ****** ****** ******
      ****** ****** ****** ****** ****** ****** ****** ****** ****** ******
      ****** ****** ****** ****** ****** ****** ****** ****** ****** ******
   7  ****** ****** ****** ****** ****** ****** ****** ****** ****** ******
      ****** ****** ****** ****** ****** ****** ****** ****** ****** ******
      ****** ****** ****** ****** ****** ****** ****** ****** ****** ******
   8  ****** ****** ****** ****** ****** ****** ****** ****** ****** ******
      ****** ****** ****** ****** ****** ****** ****** ****** ****** ******
      ****** ****** ****** ****** ****** ****** ****** ****** ****** ******
   9  ****** ****** ****** ****** ****** ****** ****** ****** ****** ******
      ****** ****** ****** ****** ****** ****** ****** ****** ****** ******
      ****** ****** ****** ****** ****** ****** ****** ****** ****** ******
  10  ****** ****** ****** ****** ****** ****** ****** ****** ****** ******
      ****** ****** ****** ****** ****** ****** ****** ****** ****** ******
      ****** ****** ****** ****** ****** ****** ****** ****** ****** ******
  11  ****** ****** ****** ****** ****** ****** ****** ****** ****** ******
      ****** ****** ****** ****** ****** ****** ****** ****** ****** ******
      ****** ****** ****** ****** ****** ****** ****** ****** ****** ******
  12  ****** ****** ****** ****** ****** ****** ****** ****** ****** ******
      ****** ****** ****** ****** ****** ****** ****** ****** ****** ******
      ****** ****** ****** ****** ****** ****** ****** ****** ****** ******
  13  ****** ****** ****** ****** ****** ****** ****** ****** ****** ******
      ****** ****** ****** ****** ****** ****** ****** ****** ****** ******
      ****** ****** ****** ****** ****** ****** ****** ****** ****** ******
  14  ****** ****** ****** ****** ****** ****** ****** ****** ****** ******
      ****** ****** ****** ****** ****** ****** ****** ****** ****** ******
      ****** ****** ****** ****** ****** ****** ****** ****** ****** ******
  15  ****** ****** ****** ****** ****** ****** ****** ****** ****** ******
      ****** ****** ****** ****** ****** ****** ****** ****** ****** ******
      ****** ****** ****** ****** ****** ****** ****** ****** ****** ******
  16  ****** ****** ****** ****** ****** ****** ****** ****** ****** ******
      ****** ****** ****** ****** ****** ****** ****** ****** ****** ******
      ****** ****** ****** ****** ****** ****** ****** ****** ****** ******
  17  ****** ****** ****** ****** ****** ****** ****** ****** ****** ******
      ****** ****** ****** ****** ****** ****** ****** ****** ****** ******
      ****** ****** ****** ****** ****** ****** ****** ****** ****** ******
  18  ****** ****** ****** ****** ****** ****** ****** ****** ****** ******
      ****** ****** ****** ****** ****** ****** ****** ****** ****** ******
      ****** ****** ****** ****** ****** ****** ****** ****** ****** ******
  19  ****** ****** ****** ****** ****** ****** ****** ****** ****** ******
      ****** ****** ****** ****** ****** ****** ****** ****** ****** ******
      ****** ****** ****** ****** ****** ****** ****** ****** ****** ******
  20  ****** ****** ****** ****** ****** ****** ****** ****** ****** ******
      ****** ****** ****** ****** ****** ****** ****** ****** ****** ******
      ****** ****** ****** ****** ****** ****** ****** ****** ****** ******
  21  ****** ****** ****** ****** ****** ****** ****** ****** ****** ******
      ****** ****** ****** ****** ****** ****** ****** ****** ****** ******
      ****** ****** ****** ****** ****** ****** ****** ****** ****** ******
  22  ****** ****** ****** ****** ****** ****** ****** ****** ****** ******
      ****** ****** ****** ****** ****** ****** ****** ****** ****** ******
      ****** ****** ****** ****** ****** ****** ****** ****** ****** ******
  23  ****** ****** ****** ****** ****** ****** ****** ****** ****** ******
      ****** ****** ****** ****** ****** ****** ****** ****** ****** ******
      ****** ****** ****** ****** ****** ****** ****** ****** ****** ******
  24  ****** ****** ****** ****** ****** ****** ****** ****** ****** ******
      ****** ****** ****** ****** ****** ****** ****** ****** ****** ******
      ****** ****** ****** ****** ****** ****** ****** ****** ****** ******
  25  ****** ****** ****** ****** ****** ****** ****** ****** ****** ******
      ****** ****** ****** ****** ****** ****** ****** ****** ****** ******
      ****** ****** ****** ****** ****** ****** ****** ****** ****** ******

 HEAD WILL BE SAVED ON UNIT   51 AT END OF TIME STEP    1, STRESS PERIOD    6
1
  VOLUMETRIC BUDGET FOR ENTIRE MODEL AT END OF TIME STEP    1, STRESS PERIOD   6
  ------------------------------------------------------------------------------

     CUMULATIVE VOLUMES      L**3       RATES FOR THIS TIME STEP      L**3/T
     ------------------                 ------------------------

           IN:                                      IN:
           ---                                      ---
             STORAGE =    30146402.0911               STORAGE =           0.0000
       CONSTANT HEAD =    12541437.6375         CONSTANT HEAD =       27851.4744
               WELLS =           0.0000                 WELLS =           0.0000
            RECHARGE =    15097200.0000              RECHARGE =       55200.0000
      STREAM LEAKAGE =    30868886.5470        STREAM LEAKAGE =       60151.4791

            TOTAL IN =    88653926.2756              TOTAL IN =      143202.9535

          OUT:                                     OUT:
          ----                                     ----
             STORAGE =      840002.1036               STORAGE =        9228.0081
       CONSTANT HEAD =           0.0000         CONSTANT HEAD =           0.0000
               WELLS =    44454621.1210                 WELLS =       81121.5714
            RECHARGE =           0.0000              RECHARGE =           0.0000
      STREAM LEAKAGE =    43359304.8353        STREAM LEAKAGE =       52853.3724

           TOTAL OUT =    88653928.0600             TOTAL OUT =      143202.9519

            IN - OUT =          -1.7844              IN - OUT =       1.6059E-03

 PERCENT DISCREPANCY =          -0.00     PERCENT DISCREPANCY =           0.00






         TIME SUMMARY AT END OF TIME STEP    1 IN STRESS PERIOD    6
                    SECONDS     MINUTES      HOURS       DAYS        YEARS
                    -----------------------------------------------------------
   TIME STEP LENGTH 7.86240E+06 1.31040E+05  2184.0      91.000     0.24914    
 STRESS PERIOD TIME 7.86240E+06 1.31040E+05  2184.0      91.000     0.24914    
         TOTAL TIME 4.73472E+07 7.89120E+05  13152.      548.00      1.5003    
1
1
                            STRESS PERIOD NO.    7, LENGTH =   91.00000    
                            -----------------------------------------------

                              NUMBER OF TIME STEPS =     1

                               MULTIPLIER FOR DELT =     1.500

                            INITIAL TIME STEP SIZE =   91.00000    

 WELL NO.  LAYER   ROW   COL   STRESS RATE         
 --------------------------------------------------
      1      1     15      4     -0.1412E+05
      2      1     11     22     -0.1126E+05
      3      1     18     29     -0.4576E+05
      4      1     14     29      -9979.    

      4 WELLS

                 RECHARGE =   0.00000    

 REUSING STREAM SEGMENT DATA FROM LAST STRESS PERIOD
 
 SOLVING FOR HEAD 


     8 CALLS TO PCG ROUTINE FOR TIME STEP   1 IN STRESS PERIOD    7
    32 TOTAL ITERATIONS

 OUTPUT CONTROL FOR STRESS PERIOD    7   TIME STEP    1
    SAVE BUDGET
    SAVE HEAD FOR ALL LAYERS
    PRINT HEAD FOR ALL LAYERS
 UBDSV2 SAVING "STREAMFLOW OUT  " ON UNIT  50 AT TIME STEP  1, STRESS PERIOD   7



 STREAM LISTING     PERIOD      7   STEP        1

 LAYER ROW COL. STREAM  RCH.  FLOW INTO     FLOW TO   FLOW OUT OF   OVRLND.     DIRECT     STREAM       STREAM     STREAM     STREAM   STREAMBED  STREAMBED
                SEG.NO.  NO.  STRM. RCH.    AQUIFER    STRM. RCH.    RUNOFF     PRECIP       ET          HEAD       DEPTH      WIDTH   CONDCTNC.   GRADIENT

   1   13    1     1     1    1.0000E+05 -1.8014E+03   1.0180E+05  0.000E+00  0.000E+00  0.000E+00  4.84068E+01  1.454E-01  2.000E+01  2.000E+04 -9.007E-02
   1   13    2     1     2    1.0180E+05 -2.7712E+03   1.0457E+05  0.000E+00  0.000E+00  0.000E+00  4.79315E+01  1.474E-01  2.000E+01  2.000E+04 -1.386E-01
   1   14    3     1     3    1.0457E+05 -3.9288E+02   1.0497E+05  0.000E+00  0.000E+00  0.000E+00  4.74556E+01  1.488E-01  2.000E+01  2.000E+04 -1.964E-02
   1   15    4     1     4    1.0497E+05  1.3604E+04   9.1362E+04  0.000E+00  0.000E+00  0.000E+00  4.69726E+01  1.431E-01  2.000E+01  2.000E+04  6.802E-01
   1   16    5     1     5    9.1362E+04 -1.4409E+03   9.2803E+04  0.000E+00  0.000E+00  0.000E+00  4.64899E+01  1.377E-01  2.000E+01  2.000E+04 -7.204E-02
   1   16    6     1     6    9.2803E+04 -9.4970E+02   9.3752E+04  0.000E+00  0.000E+00  0.000E+00  4.60137E+01  1.387E-01  2.000E+01  2.000E+04 -4.748E-02
   1   16    7     1     7    9.3752E+04 -9.4593E+02   9.4698E+04  0.000E+00  0.000E+00  0.000E+00  4.55373E+01  1.396E-01  2.000E+01  2.000E+04 -4.730E-02
   1   16    8     1     8    9.4698E+04 -9.4841E+02   9.5647E+04  0.000E+00  0.000E+00  0.000E+00  4.50609E+01  1.404E-01  2.000E+01  2.000E+04 -4.742E-02
   1   16    9     1     9    9.5647E+04 -9.4419E+02   9.6591E+04  0.000E+00  0.000E+00  0.000E+00  4.45844E+01  1.413E-01  2.000E+01  2.000E+04 -4.721E-02
   1   16   10     1    10    9.6591E+04 -9.3460E+02   9.7525E+04  0.000E+00  0.000E+00  0.000E+00  4.41080E+01  1.421E-01  2.000E+01  2.000E+04 -4.673E-02
   1   16   11     1    11    9.7525E+04 -9.4096E+02   9.8466E+04  0.000E+00  0.000E+00  0.000E+00  4.36315E+01  1.429E-01  2.000E+01  2.000E+04 -4.705E-02
   1   16   12     1    12    9.8466E+04 -1.6324E+03   1.0010E+05  0.000E+00  0.000E+00  0.000E+00  4.31554E+01  1.440E-01  2.000E+01  2.000E+04 -8.162E-02
   1   15   13     1    13    1.0010E+05 -1.5454E+03   1.0164E+05  0.000E+00  0.000E+00  0.000E+00  4.26795E+01  1.454E-01  2.000E+01  2.000E+04 -7.727E-02
   1   14   14     1    14    1.0164E+05 -1.8169E+03   1.0346E+05  0.000E+00  0.000E+00  0.000E+00  4.22037E+01  1.469E-01  2.000E+01  2.000E+04 -9.084E-02
   1   13   15     1    15    1.0346E+05 -2.1067E+03   1.0557E+05  0.000E+00  0.000E+00  0.000E+00  4.17281E+01  1.485E-01  2.000E+01  2.000E+04 -1.053E-01
   1   12   16     1    16    1.0557E+05 -2.6728E+03   1.0824E+05  0.000E+00  0.000E+00  0.000E+00  4.12528E+01  1.506E-01  2.000E+01  2.000E+04 -1.336E-01
   1   12   17     1    17    1.0824E+05 -1.6256E+03   1.0987E+05  0.000E+00  0.000E+00  0.000E+00  4.07774E+01  1.524E-01  2.000E+01  2.000E+04 -8.128E-02
   1   12   18     1    18    1.0987E+05 -1.3842E+03   1.1125E+05  0.000E+00  0.000E+00  0.000E+00  4.03014E+01  1.536E-01  2.000E+01  2.000E+04 -6.921E-02
   1   12   19     1    19    1.1125E+05 -9.9744E+02   1.1225E+05  0.000E+00  0.000E+00  0.000E+00  3.98251E+01  1.546E-01  2.000E+01  2.000E+04 -4.987E-02
   1   13   20     1    20    1.1225E+05 -3.5506E+02   1.1260E+05  0.000E+00  0.000E+00  0.000E+00  3.93484E+01  1.552E-01  2.000E+01  2.000E+04 -1.775E-02
   1   14   21     1    21    1.1260E+05 -8.1563E+02   1.1342E+05  0.000E+00  0.000E+00  0.000E+00  3.88716E+01  1.557E-01  2.000E+01  2.000E+04 -4.078E-02
   1   14   22     1    22    1.1342E+05  5.2310E+03   1.0819E+05  0.000E+00  0.000E+00  0.000E+00  3.83925E+01  1.538E-01  2.000E+01  2.000E+04  2.616E-01
   1    9   30     2     1    5.0000E+04  5.7793E+02   4.9422E+04  0.000E+00  0.000E+00  0.000E+00  4.02405E+01  1.155E-01  2.000E+01  2.000E+04  2.890E-02
   1    9   29     2     2    4.9422E+04  2.0378E+02   4.9218E+04  0.000E+00  0.000E+00  0.000E+00  3.99899E+01  1.149E-01  2.000E+01  2.000E+04  1.019E-02
   1    9   28     2     3    4.9218E+04 -2.0871E+02   4.9427E+04  0.000E+00  0.000E+00  0.000E+00  3.97399E+01  1.149E-01  2.000E+01  2.000E+04 -1.044E-02
   1    9   27     2     4    4.9427E+04 -1.4673E+03   5.0894E+04  0.000E+00  0.000E+00  0.000E+00  3.94911E+01  1.161E-01  2.000E+01  2.000E+04 -7.336E-02
   1   10   26     2     5    5.0894E+04 -2.8403E+01   5.0923E+04  0.000E+00  0.000E+00  0.000E+00  3.92421E+01  1.171E-01  2.000E+01  2.000E+04 -1.420E-03
   1   11   25     2     6    5.0923E+04  6.2871E+02   5.0294E+04  0.000E+00  0.000E+00  0.000E+00  3.89917E+01  1.167E-01  2.000E+01  2.000E+04  3.144E-02
   1   12   24     2     7    5.0294E+04  1.1628E+03   4.9131E+04  0.000E+00  0.000E+00  0.000E+00  3.87405E+01  1.155E-01  2.000E+01  2.000E+04  5.814E-02
   1   13   23     2     8    4.9131E+04  2.6278E+02   4.8868E+04  0.000E+00  0.000E+00  0.000E+00  3.84895E+01  1.145E-01  2.000E+01  2.000E+04  1.314E-02
   1   14   22     2     9    4.8868E+04  2.1372E+03   4.6731E+04  0.000E+00  0.000E+00  0.000E+00  3.82378E+01  1.128E-01  2.000E+01  2.000E+04  1.069E-01
   1   14   22     3     1    1.5492E+05 -8.3355E+03   1.6325E+05  0.000E+00  0.000E+00  0.000E+00  3.77141E+01  1.586E-01  2.000E+01  2.000E+04 -4.168E-01
   1   15   23     3     2    1.6325E+05 -4.4727E+02   1.6370E+05  0.000E+00  0.000E+00  0.000E+00  3.68279E+01  1.612E-01  2.000E+01  2.000E+04 -2.236E-02
   1   15   24     3     3    1.6370E+05 -1.8186E+02   1.6388E+05  0.000E+00  0.000E+00  0.000E+00  3.59392E+01  1.614E-01  2.000E+01  2.000E+04 -9.093E-03
   1   15   25     3     4    1.6388E+05 -1.3464E+02   1.6402E+05  0.000E+00  0.000E+00  0.000E+00  3.50504E+01  1.615E-01  2.000E+01  2.000E+04 -6.732E-03
   1   15   26     3     5    1.6402E+05  1.2445E+02   1.6389E+05  0.000E+00  0.000E+00  0.000E+00  3.41615E+01  1.615E-01  2.000E+01  2.000E+04  6.223E-03
   1   16   27     3     6    1.6389E+05  5.2629E+02   1.6337E+05  0.000E+00  0.000E+00  0.000E+00  3.32724E+01  1.613E-01  2.000E+01  2.000E+04  2.631E-02
   1   17   28     3     7    1.6337E+05  8.2836E+03   1.5508E+05  0.000E+00  0.000E+00  0.000E+00  3.23809E+01  1.587E-01  2.000E+01  2.000E+04  4.142E-01
   1   18   29     3     8    1.5508E+05  2.2983E+04   1.3210E+05  0.000E+00  0.000E+00  0.000E+00  3.14825E+01  1.491E-01  2.000E+01  2.000E+04  1.149E+00
   1   18   30     3     9    1.3210E+05  9.2221E+03   1.2288E+05  0.000E+00  0.000E+00  0.000E+00  3.05833E+01  1.389E-01  2.000E+01  2.000E+04  4.611E-01



1
              HEAD IN LAYER   1 AT END OF TIME STEP   1 IN STRESS PERIOD    7
  ---------------------------------------------------------------------------

          1      2      3      4      5      6      7      8      9     10
         11     12     13     14     15     16     17     18     19     20
         21     22     23     24     25     26     27     28     29     30
 .........................................................................
   1  ****** ****** ****** ****** ****** ****** ****** ****** ****** ******
      ****** ****** ****** ****** ****** ****** ****** ****** ****** ******
      ****** ****** ****** ****** ****** ****** ****** ****** ****** ******
   2  ****** ****** ****** ****** ****** ****** ****** ****** ****** ******
      ****** ****** ****** ****** ****** ****** ****** ****** ****** ******
      ****** ****** ****** ****** ****** ****** ****** ****** ****** ******
   3  ****** ****** ****** ****** ****** ****** ****** ****** ****** ******
      ****** ****** ****** ****** ****** ****** ****** ****** ****** ******
      ****** ****** ****** ****** ****** ****** ****** ****** ****** ******
   4  ****** ****** ****** ****** ****** ****** ****** ****** ****** ******
      ****** ****** ****** ****** ****** ****** ****** ****** ****** ******
      ****** ****** ****** ****** ****** ****** ****** ****** ****** ******
   5  ****** ****** ****** ****** ****** ****** ****** ****** ****** ******
      ****** ****** ****** ****** ****** ****** ****** ****** ****** ******
      ****** ****** ****** ****** ****** ****** ****** ****** ****** ******
   6  ****** ****** ****** ****** ****** ****** ****** ****** ****** ******
      ****** ****** ****** ****** ****** ****** ****** ****** ****** ******
      ****** ****** ****** ****** ****** ****** ****** ****** ****** ******
   7  ****** ****** ****** ****** ****** ****** ****** ****** ****** ******
      ****** ****** ****** ****** ****** ****** ****** ****** ****** ******
      ****** ****** ****** ****** ****** ****** ****** ****** ****** ******
   8  ****** ****** ****** ****** ****** ****** ****** ****** ****** ******
      ****** ****** ****** ****** ****** ****** ****** ****** ****** ******
      ****** ****** ****** ****** ****** ****** ****** ****** ****** ******
   9  ****** ****** ****** ****** ****** ****** ****** ****** ****** ******
      ****** ****** ****** ****** ****** ****** ****** ****** ****** ******
      ****** ****** ****** ****** ****** ****** ****** ****** ****** ******
  10  ****** ****** ****** ****** ****** ****** ****** ****** ****** ******
      ****** ****** ****** ****** ****** ****** ****** ****** ****** ******
      ****** ****** ****** ****** ****** ****** ****** ****** ****** ******
  11  ****** ****** ****** ****** ****** ****** ****** ****** ****** ******
      ****** ****** ****** ****** ****** ****** ****** ****** ****** ******
      ****** ****** ****** ****** ****** ****** ****** ****** ****** ******
  12  ****** ****** ****** ****** ****** ****** ****** ****** ****** ******
      ****** ****** ****** ****** ****** ****** ****** ****** ****** ******
      ****** ****** ****** ****** ****** ****** ****** ****** ****** ******
  13  ****** ****** ****** ****** ****** ****** ****** ****** ****** ******
      ****** ****** ****** ****** ****** ****** ****** ****** ****** ******
      ****** ****** ****** ****** ****** ****** ****** ****** ****** ******
  14  ****** ****** ****** ****** ****** ****** ****** ****** ****** ******
      ****** ****** ****** ****** ****** ****** ****** ****** ****** ******
      ****** ****** ****** ****** ****** ****** ****** ****** ****** ******
  15  ****** ****** ****** ****** ****** ****** ****** ****** ****** ******
      ****** ****** ****** ****** ****** ****** ****** ****** ****** ******
      ****** ****** ****** ****** ****** ****** ****** ****** ****** ******
  16  ****** ****** ****** ****** ****** ****** ****** ****** ****** ******
      ****** ****** ****** ****** ****** ****** ****** ****** ****** ******
      ****** ****** ****** ****** ****** ****** ****** ****** ****** ******
  17  ****** ****** ****** ****** ****** ****** ****** ****** ****** ******
      ****** ****** ****** ****** ****** ****** ****** ****** ****** ******
      ****** ****** ****** ****** ****** ****** ****** ****** ****** ******
  18  ****** ****** ****** ****** ****** ****** ****** ****** ****** ******
      ****** ****** ****** ****** ****** ****** ****** ****** ****** ******
      ****** ****** ****** ****** ****** ****** ****** ****** ****** ******
  19  ****** ****** ****** ****** ****** ****** ****** ****** ****** ******
      ****** ****** ****** ****** ****** ****** ****** ****** ****** ******
      ****** ****** ****** ****** ****** ****** ****** ****** ****** ******
  20  ****** ****** ****** ****** ****** ****** ****** ****** ****** ******
      ****** ****** ****** ****** ****** ****** ****** ****** ****** ******
      ****** ****** ****** ****** ****** ****** ****** ****** ****** ******
  21  ****** ****** ****** ****** ****** ****** ****** ****** ****** ******
      ****** ****** ****** ****** ****** ****** ****** ****** ****** ******
      ****** ****** ****** ****** ****** ****** ****** ****** ****** ******
  22  ****** ****** ****** ****** ****** ****** ****** ****** ****** ******
      ****** ****** ****** ****** ****** ****** ****** ****** ****** ******
      ****** ****** ****** ****** ****** ****** ****** ****** ****** ******
  23  ****** ****** ****** ****** ****** ****** ****** ****** ****** ******
      ****** ****** ****** ****** ****** ****** ****** ****** ****** ******
      ****** ****** ****** ****** ****** ****** ****** ****** ****** ******
  24  ****** ****** ****** ****** ****** ****** ****** ****** ****** ******
      ****** ****** ****** ****** ****** ****** ****** ****** ****** ******
      ****** ****** ****** ****** ****** ****** ****** ****** ****** ******
  25  ****** ****** ****** ****** ****** ****** ****** ****** ****** ******
      ****** ****** ****** ****** ****** ****** ****** ****** ****** ******
      ****** ****** ****** ****** ****** ****** ****** ****** ****** ******

 HEAD WILL BE SAVED ON UNIT   51 AT END OF TIME STEP    1, STRESS PERIOD    7
1
  VOLUMETRIC BUDGET FOR ENTIRE MODEL AT END OF TIME STEP    1, STRESS PERIOD   7
  ------------------------------------------------------------------------------

     CUMULATIVE VOLUMES      L**3       RATES FOR THIS TIME STEP      L**3/T
     ------------------                 ------------------------

           IN:                                      IN:
           ---                                      ---
             STORAGE =    32170915.0792               STORAGE =       22247.3955
       CONSTANT HEAD =    15430961.8543         CONSTANT HEAD =       31753.0134
               WELLS =           0.0000                 WELLS =           0.0000
            RECHARGE =    15097200.0000              RECHARGE =           0.0000
      STREAM LEAKAGE =    36779065.5083        STREAM LEAKAGE =       64947.0216

            TOTAL IN =    99478142.4418              TOTAL IN =      118947.4304

          OUT:                                     OUT:
          ----                                     ----
             STORAGE =      840002.1036               STORAGE =           0.0000
       CONSTANT HEAD =           0.0000         CONSTANT HEAD =           0.0000
               WELLS =    51836684.1174                 WELLS =       81121.5714
            RECHARGE =           0.0000              RECHARGE =           0.0000
      STREAM LEAKAGE =    46801458.2724        STREAM LEAKAGE =       37825.8619

           TOTAL OUT =    99478144.4934             TOTAL OUT =      118947.4333

            IN - OUT =          -2.0516              IN - OUT =      -2.9360E-03

 PERCENT DISCREPANCY =          -0.00     PERCENT DISCREPANCY =          -0.00






         TIME SUMMARY AT END OF TIME STEP    1 IN STRESS PERIOD    7
                    SECONDS     MINUTES      HOURS       DAYS        YEARS
                    -----------------------------------------------------------
   TIME STEP LENGTH 7.86240E+06 1.31040E+05  2184.0      91.000     0.24914    
 STRESS PERIOD TIME 7.86240E+06 1.31040E+05  2184.0      91.000     0.24914    
         TOTAL TIME 5.52096E+07 9.20160E+05  15336.      639.00      1.7495    
1
1
                            STRESS PERIOD NO.    8, LENGTH =   91.00000    
                            -----------------------------------------------

                              NUMBER OF TIME STEPS =     1

                               MULTIPLIER FOR DELT =     1.500

                            INITIAL TIME STEP SIZE =   91.00000    

 WELL NO.  LAYER   ROW   COL   STRESS RATE         
 --------------------------------------------------
      1      1     15      4     -0.1412E+05
      2      1     11     22     -0.1126E+05
      3      1     18     29     -0.4576E+05
      4      1     14     29      -9979.    

      4 WELLS

                 RECHARGE =  1.000000E-03

 REUSING STREAM SEGMENT DATA FROM LAST STRESS PERIOD
 
 SOLVING FOR HEAD 


     7 CALLS TO PCG ROUTINE FOR TIME STEP   1 IN STRESS PERIOD    8
    29 TOTAL ITERATIONS

 OUTPUT CONTROL FOR STRESS PERIOD    8   TIME STEP    1
    SAVE BUDGET
    SAVE HEAD FOR ALL LAYERS
    PRINT HEAD FOR ALL LAYERS
 UBDSV2 SAVING "STREAMFLOW OUT  " ON UNIT  50 AT TIME STEP  1, STRESS PERIOD   8



 STREAM LISTING     PERIOD      8   STEP        1

 LAYER ROW COL. STREAM  RCH.  FLOW INTO     FLOW TO   FLOW OUT OF   OVRLND.     DIRECT     STREAM       STREAM     STREAM     STREAM   STREAMBED  STREAMBED
                SEG.NO.  NO.  STRM. RCH.    AQUIFER    STRM. RCH.    RUNOFF     PRECIP       ET          HEAD       DEPTH      WIDTH   CONDCTNC.   GRADIENT

   1   13    1     1     1    1.0000E+05 -1.8802E+03   1.0188E+05  0.000E+00  0.000E+00  0.000E+00  4.84068E+01  1.455E-01  2.000E+01  2.000E+04 -9.401E-02
   1   13    2     1     2    1.0188E+05 -2.8504E+03   1.0473E+05  0.000E+00  0.000E+00  0.000E+00  4.79316E+01  1.475E-01  2.000E+01  2.000E+04 -1.425E-01
   1   14    3     1     3    1.0473E+05 -4.5781E+02   1.0519E+05  0.000E+00  0.000E+00  0.000E+00  4.74557E+01  1.489E-01  2.000E+01  2.000E+04 -2.289E-02
   1   15    4     1     4    1.0519E+05  1.3534E+04   9.1654E+04  0.000E+00  0.000E+00  0.000E+00  4.69728E+01  1.433E-01  2.000E+01  2.000E+04  6.767E-01
   1   16    5     1     5    9.1654E+04 -1.6158E+03   9.3270E+04  0.000E+00  0.000E+00  0.000E+00  4.64903E+01  1.380E-01  2.000E+01  2.000E+04 -8.079E-02
   1   16    6     1     6    9.3270E+04 -1.0575E+03   9.4327E+04  0.000E+00  0.000E+00  0.000E+00  4.60142E+01  1.392E-01  2.000E+01  2.000E+04 -5.287E-02
   1   16    7     1     7    9.4327E+04 -1.0487E+03   9.5376E+04  0.000E+00  0.000E+00  0.000E+00  4.55379E+01  1.401E-01  2.000E+01  2.000E+04 -5.244E-02
   1   16    8     1     8    9.5376E+04 -1.0504E+03   9.6427E+04  0.000E+00  0.000E+00  0.000E+00  4.50615E+01  1.411E-01  2.000E+01  2.000E+04 -5.252E-02
   1   16    9     1     9    9.6427E+04 -1.0472E+03   9.7474E+04  0.000E+00  0.000E+00  0.000E+00  4.45852E+01  1.420E-01  2.000E+01  2.000E+04 -5.236E-02
   1   16   10     1    10    9.7474E+04 -1.0400E+03   9.8514E+04  0.000E+00  0.000E+00  0.000E+00  4.41088E+01  1.429E-01  2.000E+01  2.000E+04 -5.200E-02
   1   16   11     1    11    9.8514E+04 -1.0492E+03   9.9563E+04  0.000E+00  0.000E+00  0.000E+00  4.36325E+01  1.438E-01  2.000E+01  2.000E+04 -5.246E-02
   1   16   12     1    12    9.9563E+04 -1.7944E+03   1.0136E+05  0.000E+00  0.000E+00  0.000E+00  4.31564E+01  1.451E-01  2.000E+01  2.000E+04 -8.972E-02
   1   15   13     1    13    1.0136E+05 -1.7152E+03   1.0307E+05  0.000E+00  0.000E+00  0.000E+00  4.26807E+01  1.466E-01  2.000E+01  2.000E+04 -8.576E-02
   1   14   14     1    14    1.0307E+05 -1.9804E+03   1.0505E+05  0.000E+00  0.000E+00  0.000E+00  4.22050E+01  1.481E-01  2.000E+01  2.000E+04 -9.902E-02
   1   13   15     1    15    1.0505E+05 -2.2579E+03   1.0731E+05  0.000E+00  0.000E+00  0.000E+00  4.17295E+01  1.500E-01  2.000E+01  2.000E+04 -1.129E-01
   1   12   16     1    16    1.0731E+05 -2.7872E+03   1.1010E+05  0.000E+00  0.000E+00  0.000E+00  4.12544E+01  1.521E-01  2.000E+01  2.000E+04 -1.394E-01
   1   12   17     1    17    1.1010E+05 -1.7384E+03   1.1184E+05  0.000E+00  0.000E+00  0.000E+00  4.07790E+01  1.540E-01  2.000E+01  2.000E+04 -8.692E-02
   1   12   18     1    18    1.1184E+05 -1.5034E+03   1.1334E+05  0.000E+00  0.000E+00  0.000E+00  4.03030E+01  1.553E-01  2.000E+01  2.000E+04 -7.517E-02
   1   12   19     1    19    1.1334E+05 -1.1477E+03   1.1449E+05  0.000E+00  0.000E+00  0.000E+00  3.98269E+01  1.564E-01  2.000E+01  2.000E+04 -5.739E-02
   1   13   20     1    20    1.1449E+05 -5.3329E+02   1.1502E+05  0.000E+00  0.000E+00  0.000E+00  3.93503E+01  1.571E-01  2.000E+01  2.000E+04 -2.666E-02
   1   14   21     1    21    1.1502E+05 -9.7303E+02   1.1599E+05  0.000E+00  0.000E+00  0.000E+00  3.88736E+01  1.577E-01  2.000E+01  2.000E+04 -4.865E-02
   1   14   22     1    22    1.1599E+05  5.1833E+03   1.1081E+05  0.000E+00  0.000E+00  0.000E+00  3.83946E+01  1.560E-01  2.000E+01  2.000E+04  2.592E-01
   1    9   30     2     1    5.0000E+04  4.1488E+02   4.9585E+04  0.000E+00  0.000E+00  0.000E+00  4.02406E+01  1.156E-01  2.000E+01  2.000E+04  2.074E-02
   1    9   29     2     2    4.9585E+04  4.3450E+01   4.9542E+04  0.000E+00  0.000E+00  0.000E+00  3.99903E+01  1.153E-01  2.000E+01  2.000E+04  2.173E-03
   1    9   28     2     3    4.9542E+04 -3.6363E+02   4.9905E+04  0.000E+00  0.000E+00  0.000E+00  3.97405E+01  1.155E-01  2.000E+01  2.000E+04 -1.818E-02
   1    9   27     2     4    4.9905E+04 -1.6460E+03   5.1551E+04  0.000E+00  0.000E+00  0.000E+00  3.94919E+01  1.169E-01  2.000E+01  2.000E+04 -8.230E-02
   1   10   26     2     5    5.1551E+04 -2.3386E+02   5.1785E+04  0.000E+00  0.000E+00  0.000E+00  3.92432E+01  1.182E-01  2.000E+01  2.000E+04 -1.169E-02
   1   11   25     2     6    5.1785E+04  4.2478E+02   5.1360E+04  0.000E+00  0.000E+00  0.000E+00  3.89930E+01  1.180E-01  2.000E+01  2.000E+04  2.124E-02
   1   12   24     2     7    5.1360E+04  9.7752E+02   5.0383E+04  0.000E+00  0.000E+00  0.000E+00  3.87421E+01  1.171E-01  2.000E+01  2.000E+04  4.888E-02
   1   13   23     2     8    5.0383E+04  1.8845E+02   5.0194E+04  0.000E+00  0.000E+00  0.000E+00  3.84913E+01  1.163E-01  2.000E+01  2.000E+04  9.423E-03
   1   14   22     2     9    5.0194E+04  2.0844E+03   4.8110E+04  0.000E+00  0.000E+00  0.000E+00  3.82397E+01  1.147E-01  2.000E+01  2.000E+04  1.042E-01
   1   14   22     3     1    1.5892E+05 -8.3784E+03   1.6730E+05  0.000E+00  0.000E+00  0.000E+00  3.77165E+01  1.610E-01  2.000E+01  2.000E+04 -4.189E-01
   1   15   23     3     2    1.6730E+05 -5.1099E+02   1.6781E+05  0.000E+00  0.000E+00  0.000E+00  3.68303E+01  1.636E-01  2.000E+01  2.000E+04 -2.555E-02
   1   15   24     3     3    1.6781E+05 -2.4194E+02   1.6805E+05  0.000E+00  0.000E+00  0.000E+00  3.59416E+01  1.638E-01  2.000E+01  2.000E+04 -1.210E-02
   1   15   25     3     4    1.6805E+05 -1.9637E+02   1.6825E+05  0.000E+00  0.000E+00  0.000E+00  3.50528E+01  1.640E-01  2.000E+01  2.000E+04 -9.818E-03
   1   15   26     3     5    1.6825E+05  5.0389E+01   1.6820E+05  0.000E+00  0.000E+00  0.000E+00  3.41640E+01  1.640E-01  2.000E+01  2.000E+04  2.519E-03
   1   16   27     3     6    1.6820E+05  4.4497E+02   1.6775E+05  0.000E+00  0.000E+00  0.000E+00  3.32750E+01  1.639E-01  2.000E+01  2.000E+04  2.225E-02
   1   17   28     3     7    1.6775E+05  8.0422E+03   1.5971E+05  0.000E+00  0.000E+00  0.000E+00  3.23836E+01  1.614E-01  2.000E+01  2.000E+04  4.021E-01
   1   18   29     3     8    1.5971E+05  2.3040E+04   1.3667E+05  0.000E+00  0.000E+00  0.000E+00  3.14853E+01  1.520E-01  2.000E+01  2.000E+04  1.152E+00
   1   18   30     3     9    1.3667E+05  9.0040E+03   1.2767E+05  0.000E+00  0.000E+00  0.000E+00  3.05863E+01  1.419E-01  2.000E+01  2.000E+04  4.502E-01



1
              HEAD IN LAYER   1 AT END OF TIME STEP   1 IN STRESS PERIOD    8
  ---------------------------------------------------------------------------

          1      2      3      4      5      6      7      8      9     10
         11     12     13     14     15     16     17     18     19     20
         21     22     23     24     25     26     27     28     29     30
 .........................................................................
   1  ****** ****** ****** ****** ****** ****** ****** ****** ****** ******
      ****** ****** ****** ****** ****** ****** ****** ****** ****** ******
      ****** ****** ****** ****** ****** ****** ****** ****** ****** ******
   2  ****** ****** ****** ****** ****** ****** ****** ****** ****** ******
      ****** ****** ****** ****** ****** ****** ****** ****** ****** ******
      ****** ****** ****** ****** ****** ****** ****** ****** ****** ******
   3  ****** ****** ****** ****** ****** ****** ****** ****** ****** ******
      ****** ****** ****** ****** ****** ****** ****** ****** ****** ******
      ****** ****** ****** ****** ****** ****** ****** ****** ****** ******
   4  ****** ****** ****** ****** ****** ****** ****** ****** ****** ******
      ****** ****** ****** ****** ****** ****** ****** ****** ****** ******
      ****** ****** ****** ****** ****** ****** ****** ****** ****** ******
   5  ****** ****** ****** ****** ****** ****** ****** ****** ****** ******
      ****** ****** ****** ****** ****** ****** ****** ****** ****** ******
      ****** ****** ****** ****** ****** ****** ****** ****** ****** ******
   6  ****** ****** ****** ****** ****** ****** ****** ****** ****** ******
      ****** ****** ****** ****** ****** ****** ****** ****** ****** ******
      ****** ****** ****** ****** ****** ****** ****** ****** ****** ******
   7  ****** ****** ****** ****** ****** ****** ****** ****** ****** ******
      ****** ****** ****** ****** ****** ****** ****** ****** ****** ******
      ****** ****** ****** ****** ****** ****** ****** ****** ****** ******
   8  ****** ****** ****** ****** ****** ****** ****** ****** ****** ******
      ****** ****** ****** ****** ****** ****** ****** ****** ****** ******
      ****** ****** ****** ****** ****** ****** ****** ****** ****** ******
   9  ****** ****** ****** ****** ****** ****** ****** ****** ****** ******
      ****** ****** ****** ****** ****** ****** ****** ****** ****** ******
      ****** ****** ****** ****** ****** ****** ****** ****** ****** ******
  10  ****** ****** ****** ****** ****** ****** ****** ****** ****** ******
      ****** ****** ****** ****** ****** ****** ****** ****** ****** ******
      ****** ****** ****** ****** ****** ****** ****** ****** ****** ******
  11  ****** ****** ****** ****** ****** ****** ****** ****** ****** ******
      ****** ****** ****** ****** ****** ****** ****** ****** ****** ******
      ****** ****** ****** ****** ****** ****** ****** ****** ****** ******
  12  ****** ****** ****** ****** ****** ****** ****** ****** ****** ******
      ****** ****** ****** ****** ****** ****** ****** ****** ****** ******
      ****** ****** ****** ****** ****** ****** ****** ****** ****** ******
  13  ****** ****** ****** ****** ****** ****** ****** ****** ****** ******
      ****** ****** ****** ****** ****** ****** ****** ****** ****** ******
      ****** ****** ****** ****** ****** ****** ****** ****** ****** ******
  14  ****** ****** ****** ****** ****** ****** ****** ****** ****** ******
      ****** ****** ****** ****** ****** ****** ****** ****** ****** ******
      ****** ****** ****** ****** ****** ****** ****** ****** ****** ******
  15  ****** ****** ****** ****** ****** ****** ****** ****** ****** ******
      ****** ****** ****** ****** ****** ****** ****** ****** ****** ******
      ****** ****** ****** ****** ****** ****** ****** ****** ****** ******
  16  ****** ****** ****** ****** ****** ****** ****** ****** ****** ******
      ****** ****** ****** ****** ****** ****** ****** ****** ****** ******
      ****** ****** ****** ****** ****** ****** ****** ****** ****** ******
  17  ****** ****** ****** ****** ****** ****** ****** ****** ****** ******
      ****** ****** ****** ****** ****** ****** ****** ****** ****** ******
      ****** ****** ****** ****** ****** ****** ****** ****** ****** ******
  18  ****** ****** ****** ****** ****** ****** ****** ****** ****** ******
      ****** ****** ****** ****** ****** ****** ****** ****** ****** ******
      ****** ****** ****** ****** ****** ****** ****** ****** ****** ******
  19  ****** ****** ****** ****** ****** ****** ****** ****** ****** ******
      ****** ****** ****** ****** ****** ****** ****** ****** ****** ******
      ****** ****** ****** ****** ****** ****** ****** ****** ****** ******
  20  ****** ****** ****** ****** ****** ****** ****** ****** ****** ******
      ****** ****** ****** ****** ****** ****** ****** ****** ****** ******
      ****** ****** ****** ****** ****** ****** ****** ****** ****** ******
  21  ****** ****** ****** ****** ****** ****** ****** ****** ****** ******
      ****** ****** ****** ****** ****** ****** ****** ****** ****** ******
      ****** ****** ****** ****** ****** ****** ****** ****** ****** ******
  22  ****** ****** ****** ****** ****** ****** ****** ****** ****** ******
      ****** ****** ****** ****** ****** ****** ****** ****** ****** ******
      ****** ****** ****** ****** ****** ****** ****** ****** ****** ******
  23  ****** ****** ****** ****** ****** ****** ****** ****** ****** ******
      ****** ****** ****** ****** ****** ****** ****** ****** ****** ******
      ****** ****** ****** ****** ****** ****** ****** ****** ****** ******
  24  ****** ****** ****** ****** ****** ****** ****** ****** ****** ******
      ****** ****** ****** ****** ****** ****** ****** ****** ****** ******
      ****** ****** ****** ****** ****** ****** ****** ****** ****** ******
  25  ****** ****** ****** ****** ****** ****** ****** ****** ****** ******
      ****** ****** ****** ****** ****** ****** ****** ****** ****** ******
      ****** ****** ****** ****** ****** ****** ****** ****** ****** ******

 HEAD WILL BE SAVED ON UNIT   51 AT END OF TIME STEP    1, STRESS PERIOD    8
1
  VOLUMETRIC BUDGET FOR ENTIRE MODEL AT END OF TIME STEP    1, STRESS PERIOD   8
  ------------------------------------------------------------------------------

     CUMULATIVE VOLUMES      L**3       RATES FOR THIS TIME STEP      L**3/T
     ------------------                 ------------------------

           IN:                                      IN:
           ---                                      ---
             STORAGE =    32291141.6254               STORAGE =        1321.1708
       CONSTANT HEAD =    18292116.3101         CONSTANT HEAD =       31441.2578
               WELLS =           0.0000                 WELLS =           0.0000
            RECHARGE =    17608800.0000              RECHARGE =       27600.0000
      STREAM LEAKAGE =    42551398.3482        STREAM LEAKAGE =       63432.2290

            TOTAL IN =   110743456.2837              TOTAL IN =      123794.6576

          OUT:                                     OUT:
          ----                                     ----
             STORAGE =      983218.8426               STORAGE =        1573.8103
       CONSTANT HEAD =           0.0000         CONSTANT HEAD =           0.0000
               WELLS =    59218747.1137                 WELLS =       81121.5714
            RECHARGE =           0.0000              RECHARGE =           0.0000
      STREAM LEAKAGE =    50541492.2296        STREAM LEAKAGE =       41099.2743

           TOTAL OUT =   110743458.1859             TOTAL OUT =      123794.6560

            IN - OUT =          -1.9023              IN - OUT =       1.6402E-03

 PERCENT DISCREPANCY =          -0.00     PERCENT DISCREPANCY =           0.00






         TIME SUMMARY AT END OF TIME STEP    1 IN STRESS PERIOD    8
                    SECONDS     MINUTES      HOURS       DAYS        YEARS
                    -----------------------------------------------------------
   TIME STEP LENGTH 7.86240E+06 1.31040E+05  2184.0      91.000     0.24914    
 STRESS PERIOD TIME 7.86240E+06 1.31040E+05  2184.0      91.000     0.24914    
         TOTAL TIME 6.30720E+07 1.05120E+06  17520.      730.00      1.9986    
1
1
                            STRESS PERIOD NO.    9, LENGTH =   92.00000    
                            -----------------------------------------------

                              NUMBER OF TIME STEPS =     1

                               MULTIPLIER FOR DELT =     1.500

                            INITIAL TIME STEP SIZE =   92.00000    

 WELL NO.  LAYER   ROW   COL   STRESS RATE         
 --------------------------------------------------
      1      1     15      4     -0.1412E+05
      2      1     11     22     -0.1126E+05
      3      1     18     29     -0.4576E+05
      4      1     14     29      -9979.    

      4 WELLS

                 RECHARGE =  5.000000E-04

 REUSING STREAM SEGMENT DATA FROM LAST STRESS PERIOD
 
 SOLVING FOR HEAD 


     7 CALLS TO PCG ROUTINE FOR TIME STEP   1 IN STRESS PERIOD    9
    29 TOTAL ITERATIONS

 OUTPUT CONTROL FOR STRESS PERIOD    9   TIME STEP    1
    SAVE BUDGET
    SAVE HEAD FOR ALL LAYERS
    PRINT HEAD FOR ALL LAYERS
 UBDSV2 SAVING "STREAMFLOW OUT  " ON UNIT  50 AT TIME STEP  1, STRESS PERIOD   9



 STREAM LISTING     PERIOD      9   STEP        1

 LAYER ROW COL. STREAM  RCH.  FLOW INTO     FLOW TO   FLOW OUT OF   OVRLND.     DIRECT     STREAM       STREAM     STREAM     STREAM   STREAMBED  STREAMBED
                SEG.NO.  NO.  STRM. RCH.    AQUIFER    STRM. RCH.    RUNOFF     PRECIP       ET          HEAD       DEPTH      WIDTH   CONDCTNC.   GRADIENT

   1   13    1     1     1    1.0000E+05 -1.6698E+03   1.0167E+05  0.000E+00  0.000E+00  0.000E+00  4.84067E+01  1.454E-01  2.000E+01  2.000E+04 -8.349E-02
   1   13    2     1     2    1.0167E+05 -2.6123E+03   1.0428E+05  0.000E+00  0.000E+00  0.000E+00  4.79313E+01  1.472E-01  2.000E+01  2.000E+04 -1.306E-01
   1   14    3     1     3    1.0428E+05 -3.8768E+02   1.0467E+05  0.000E+00  0.000E+00  0.000E+00  4.74553E+01  1.485E-01  2.000E+01  2.000E+04 -1.938E-02
   1   15    4     1     4    1.0467E+05  1.3606E+04   9.1064E+04  0.000E+00  0.000E+00  0.000E+00  4.69723E+01  1.428E-01  2.000E+01  2.000E+04  6.803E-01
   1   16    5     1     5    9.1064E+04 -1.4241E+03   9.2488E+04  0.000E+00  0.000E+00  0.000E+00  4.64897E+01  1.374E-01  2.000E+01  2.000E+04 -7.121E-02
   1   16    6     1     6    9.2488E+04 -9.3816E+02   9.3427E+04  0.000E+00  0.000E+00  0.000E+00  4.60135E+01  1.385E-01  2.000E+01  2.000E+04 -4.691E-02
   1   16    7     1     7    9.3427E+04 -9.3314E+02   9.4360E+04  0.000E+00  0.000E+00  0.000E+00  4.55370E+01  1.393E-01  2.000E+01  2.000E+04 -4.666E-02
   1   16    8     1     8    9.4360E+04 -9.3626E+02   9.5296E+04  0.000E+00  0.000E+00  0.000E+00  4.50606E+01  1.401E-01  2.000E+01  2.000E+04 -4.681E-02
   1   16    9     1     9    9.5296E+04 -9.3465E+02   9.6231E+04  0.000E+00  0.000E+00  0.000E+00  4.45841E+01  1.409E-01  2.000E+01  2.000E+04 -4.673E-02
   1   16   10     1    10    9.6231E+04 -9.2931E+02   9.7160E+04  0.000E+00  0.000E+00  0.000E+00  4.41077E+01  1.418E-01  2.000E+01  2.000E+04 -4.647E-02
   1   16   11     1    11    9.7160E+04 -9.3936E+02   9.8099E+04  0.000E+00  0.000E+00  0.000E+00  4.36312E+01  1.426E-01  2.000E+01  2.000E+04 -4.697E-02
   1   16   12     1    12    9.8099E+04 -1.6064E+03   9.9706E+04  0.000E+00  0.000E+00  0.000E+00  4.31551E+01  1.437E-01  2.000E+01  2.000E+04 -8.032E-02
   1   15   13     1    13    9.9706E+04 -1.5069E+03   1.0121E+05  0.000E+00  0.000E+00  0.000E+00  4.26791E+01  1.451E-01  2.000E+01  2.000E+04 -7.534E-02
   1   14   14     1    14    1.0121E+05 -1.7592E+03   1.0297E+05  0.000E+00  0.000E+00  0.000E+00  4.22033E+01  1.465E-01  2.000E+01  2.000E+04 -8.796E-02
   1   13   15     1    15    1.0297E+05 -2.0315E+03   1.0500E+05  0.000E+00  0.000E+00  0.000E+00  4.17276E+01  1.481E-01  2.000E+01  2.000E+04 -1.016E-01
   1   12   16     1    16    1.0500E+05 -2.5537E+03   1.0756E+05  0.000E+00  0.000E+00  0.000E+00  4.12523E+01  1.500E-01  2.000E+01  2.000E+04 -1.277E-01
   1   12   17     1    17    1.0756E+05 -1.5773E+03   1.0913E+05  0.000E+00  0.000E+00  0.000E+00  4.07768E+01  1.518E-01  2.000E+01  2.000E+04 -7.886E-02
   1   12   18     1    18    1.0913E+05 -1.3495E+03   1.1048E+05  0.000E+00  0.000E+00  0.000E+00  4.03007E+01  1.530E-01  2.000E+01  2.000E+04 -6.748E-02
   1   12   19     1    19    1.1048E+05 -9.6252E+02   1.1145E+05  0.000E+00  0.000E+00  0.000E+00  3.98244E+01  1.540E-01  2.000E+01  2.000E+04 -4.813E-02
   1   13   20     1    20    1.1145E+05 -3.6011E+02   1.1181E+05  0.000E+00  0.000E+00  0.000E+00  3.93477E+01  1.545E-01  2.000E+01  2.000E+04 -1.801E-02
   1   14   21     1    21    1.1181E+05 -8.0069E+02   1.1261E+05  0.000E+00  0.000E+00  0.000E+00  3.88709E+01  1.550E-01  2.000E+01  2.000E+04 -4.003E-02
   1   14   22     1    22    1.1261E+05  5.2220E+03   1.0739E+05  0.000E+00  0.000E+00  0.000E+00  3.83918E+01  1.532E-01  2.000E+01  2.000E+04  2.611E-01
   1    9   30     2     1    5.0000E+04  5.3869E+02   4.9461E+04  0.000E+00  0.000E+00  0.000E+00  4.02405E+01  1.155E-01  2.000E+01  2.000E+04  2.693E-02
   1    9   29     2     2    4.9461E+04  1.6736E+02   4.9294E+04  0.000E+00  0.000E+00  0.000E+00  3.99900E+01  1.150E-01  2.000E+01  2.000E+04  8.368E-03
   1    9   28     2     3    4.9294E+04 -2.3807E+02   4.9532E+04  0.000E+00  0.000E+00  0.000E+00  3.97400E+01  1.150E-01  2.000E+01  2.000E+04 -1.190E-02
   1    9   27     2     4    4.9532E+04 -1.4702E+03   5.1002E+04  0.000E+00  0.000E+00  0.000E+00  3.94912E+01  1.162E-01  2.000E+01  2.000E+04 -7.351E-02
   1   10   26     2     5    5.1002E+04 -6.0395E+01   5.1063E+04  0.000E+00  0.000E+00  0.000E+00  3.92423E+01  1.173E-01  2.000E+01  2.000E+04 -3.020E-03
   1   11   25     2     6    5.1063E+04  5.9068E+02   5.0472E+04  0.000E+00  0.000E+00  0.000E+00  3.89919E+01  1.169E-01  2.000E+01  2.000E+04  2.953E-02
   1   12   24     2     7    5.0472E+04  1.1297E+03   4.9342E+04  0.000E+00  0.000E+00  0.000E+00  3.87407E+01  1.157E-01  2.000E+01  2.000E+04  5.648E-02
   1   13   23     2     8    4.9342E+04  2.3543E+02   4.9107E+04  0.000E+00  0.000E+00  0.000E+00  3.84898E+01  1.148E-01  2.000E+01  2.000E+04  1.177E-02
   1   14   22     2     9    4.9107E+04  2.1482E+03   4.6959E+04  0.000E+00  0.000E+00  0.000E+00  3.82381E+01  1.131E-01  2.000E+01  2.000E+04  1.074E-01
   1   14   22     3     1    1.5434E+05 -8.3379E+03   1.6268E+05  0.000E+00  0.000E+00  0.000E+00  3.77138E+01  1.582E-01  2.000E+01  2.000E+04 -4.169E-01
   1   15   23     3     2    1.6268E+05 -4.5810E+02   1.6314E+05  0.000E+00  0.000E+00  0.000E+00  3.68275E+01  1.609E-01  2.000E+01  2.000E+04 -2.291E-02
   1   15   24     3     3    1.6314E+05 -1.9866E+02   1.6334E+05  0.000E+00  0.000E+00  0.000E+00  3.59388E+01  1.611E-01  2.000E+01  2.000E+04 -9.933E-03
   1   15   25     3     4    1.6334E+05 -1.5275E+02   1.6349E+05  0.000E+00  0.000E+00  0.000E+00  3.50501E+01  1.612E-01  2.000E+01  2.000E+04 -7.638E-03
   1   15   26     3     5    1.6349E+05  9.8668E+01   1.6339E+05  0.000E+00  0.000E+00  0.000E+00  3.41612E+01  1.612E-01  2.000E+01  2.000E+04  4.933E-03
   1   16   27     3     6    1.6339E+05  5.0342E+02   1.6289E+05  0.000E+00  0.000E+00  0.000E+00  3.32721E+01  1.610E-01  2.000E+01  2.000E+04  2.517E-02
   1   17   28     3     7    1.6289E+05  8.2656E+03   1.5462E+05  0.000E+00  0.000E+00  0.000E+00  3.23806E+01  1.584E-01  2.000E+01  2.000E+04  4.133E-01
   1   18   29     3     8    1.5462E+05  2.2977E+04   1.3165E+05  0.000E+00  0.000E+00  0.000E+00  3.14822E+01  1.488E-01  2.000E+01  2.000E+04  1.149E+00
   1   18   30     3     9    1.3165E+05  9.2506E+03   1.2240E+05  0.000E+00  0.000E+00  0.000E+00  3.05830E+01  1.386E-01  2.000E+01  2.000E+04  4.625E-01



1
              HEAD IN LAYER   1 AT END OF TIME STEP   1 IN STRESS PERIOD    9
  ---------------------------------------------------------------------------

          1      2      3      4      5      6      7      8      9     10
         11     12     13     14     15     16     17     18     19     20
         21     22     23     24     25     26     27     28     29     30
 .........................................................................
   1  ****** ****** ****** ****** ****** ****** ****** ****** ****** ******
      ****** ****** ****** ****** ****** ****** ****** ****** ****** ******
      ****** ****** ****** ****** ****** ****** ****** ****** ****** ******
   2  ****** ****** ****** ****** ****** ****** ****** ****** ****** ******
      ****** ****** ****** ****** ****** ****** ****** ****** ****** ******
      ****** ****** ****** ****** ****** ****** ****** ****** ****** ******
   3  ****** ****** ****** ****** ****** ****** ****** ****** ****** ******
      ****** ****** ****** ****** ****** ****** ****** ****** ****** ******
      ****** ****** ****** ****** ****** ****** ****** ****** ****** ******
   4  ****** ****** ****** ****** ****** ****** ****** ****** ****** ******
      ****** ****** ****** ****** ****** ****** ****** ****** ****** ******
      ****** ****** ****** ****** ****** ****** ****** ****** ****** ******
   5  ****** ****** ****** ****** ****** ****** ****** ****** ****** ******
      ****** ****** ****** ****** ****** ****** ****** ****** ****** ******
      ****** ****** ****** ****** ****** ****** ****** ****** ****** ******
   6  ****** ****** ****** ****** ****** ****** ****** ****** ****** ******
      ****** ****** ****** ****** ****** ****** ****** ****** ****** ******
      ****** ****** ****** ****** ****** ****** ****** ****** ****** ******
   7  ****** ****** ****** ****** ****** ****** ****** ****** ****** ******
      ****** ****** ****** ****** ****** ****** ****** ****** ****** ******
      ****** ****** ****** ****** ****** ****** ****** ****** ****** ******
   8  ****** ****** ****** ****** ****** ****** ****** ****** ****** ******
      ****** ****** ****** ****** ****** ****** ****** ****** ****** ******
      ****** ****** ****** ****** ****** ****** ****** ****** ****** ******
   9  ****** ****** ****** ****** ****** ****** ****** ****** ****** ******
      ****** ****** ****** ****** ****** ****** ****** ****** ****** ******
      ****** ****** ****** ****** ****** ****** ****** ****** ****** ******
  10  ****** ****** ****** ****** ****** ****** ****** ****** ****** ******
      ****** ****** ****** ****** ****** ****** ****** ****** ****** ******
      ****** ****** ****** ****** ****** ****** ****** ****** ****** ******
  11  ****** ****** ****** ****** ****** ****** ****** ****** ****** ******
      ****** ****** ****** ****** ****** ****** ****** ****** ****** ******
      ****** ****** ****** ****** ****** ****** ****** ****** ****** ******
  12  ****** ****** ****** ****** ****** ****** ****** ****** ****** ******
      ****** ****** ****** ****** ****** ****** ****** ****** ****** ******
      ****** ****** ****** ****** ****** ****** ****** ****** ****** ******
  13  ****** ****** ****** ****** ****** ****** ****** ****** ****** ******
      ****** ****** ****** ****** ****** ****** ****** ****** ****** ******
      ****** ****** ****** ****** ****** ****** ****** ****** ****** ******
  14  ****** ****** ****** ****** ****** ****** ****** ****** ****** ******
      ****** ****** ****** ****** ****** ****** ****** ****** ****** ******
      ****** ****** ****** ****** ****** ****** ****** ****** ****** ******
  15  ****** ****** ****** ****** ****** ****** ****** ****** ****** ******
      ****** ****** ****** ****** ****** ****** ****** ****** ****** ******
      ****** ****** ****** ****** ****** ****** ****** ****** ****** ******
  16  ****** ****** ****** ****** ****** ****** ****** ****** ****** ******
      ****** ****** ****** ****** ****** ****** ****** ****** ****** ******
      ****** ****** ****** ****** ****** ****** ****** ****** ****** ******
  17  ****** ****** ****** ****** ****** ****** ****** ****** ****** ******
      ****** ****** ****** ****** ****** ****** ****** ****** ****** ******
      ****** ****** ****** ****** ****** ****** ****** ****** ****** ******
  18  ****** ****** ****** ****** ****** ****** ****** ****** ****** ******
      ****** ****** ****** ****** ****** ****** ****** ****** ****** ******
      ****** ****** ****** ****** ****** ****** ****** ****** ****** ******
  19  ****** ****** ****** ****** ****** ****** ****** ****** ****** ******
      ****** ****** ****** ****** ****** ****** ****** ****** ****** ******
      ****** ****** ****** ****** ****** ****** ****** ****** ****** ******
  20  ****** ****** ****** ****** ****** ****** ****** ****** ****** ******
      ****** ****** ****** ****** ****** ****** ****** ****** ****** ******
      ****** ****** ****** ****** ****** ****** ****** ****** ****** ******
  21  ****** ****** ****** ****** ****** ****** ****** ****** ****** ******
      ****** ****** ****** ****** ****** ****** ****** ****** ****** ******
      ****** ****** ****** ****** ****** ****** ****** ****** ****** ******
  22  ****** ****** ****** ****** ****** ****** ****** ****** ****** ******
      ****** ****** ****** ****** ****** ****** ****** ****** ****** ******
      ****** ****** ****** ****** ****** ****** ****** ****** ****** ******
  23  ****** ****** ****** ****** ****** ****** ****** ****** ****** ******
      ****** ****** ****** ****** ****** ****** ****** ****** ****** ******
      ****** ****** ****** ****** ****** ****** ****** ****** ****** ******
  24  ****** ****** ****** ****** ****** ****** ****** ****** ****** ******
      ****** ****** ****** ****** ****** ****** ****** ****** ****** ******
      ****** ****** ****** ****** ****** ****** ****** ****** ****** ******
  25  ****** ****** ****** ****** ****** ****** ****** ****** ****** ******
      ****** ****** ****** ****** ****** ****** ****** ****** ****** ******
      ****** ****** ****** ****** ****** ****** ****** ****** ****** ******

 HEAD WILL BE SAVED ON UNIT   51 AT END OF TIME STEP    1, STRESS PERIOD    9
1
  VOLUMETRIC BUDGET FOR ENTIRE MODEL AT END OF TIME STEP    1, STRESS PERIOD   9
  ------------------------------------------------------------------------------

     CUMULATIVE VOLUMES      L**3       RATES FOR THIS TIME STEP      L**3/T
     ------------------                 ------------------------

           IN:                                      IN:
           ---                                      ---
             STORAGE =    32946225.1314               STORAGE =        7120.4729
       CONSTANT HEAD =    21291048.4690         CONSTANT HEAD =       32597.0887
               WELLS =           0.0000                 WELLS =           0.0000
            RECHARGE =    18878400.0000              RECHARGE =       13800.0000
      STREAM LEAKAGE =    48506815.6690        STREAM LEAKAGE =       64732.7970

            TOTAL IN =   121622489.2694              TOTAL IN =      118250.3585

          OUT:                                     OUT:
          ----                                     ----
             STORAGE =      983218.8426               STORAGE =           0.0000
       CONSTANT HEAD =           0.0000         CONSTANT HEAD =           0.0000
               WELLS =    66681931.6815                 WELLS =       81121.5714
            RECHARGE =           0.0000              RECHARGE =           0.0000
      STREAM LEAKAGE =    53957340.8973        STREAM LEAKAGE =       37128.7899

           TOTAL OUT =   121622491.4214             TOTAL OUT =      118250.3613

            IN - OUT =          -2.1520              IN - OUT =      -2.7139E-03

 PERCENT DISCREPANCY =          -0.00     PERCENT DISCREPANCY =          -0.00






         TIME SUMMARY AT END OF TIME STEP    1 IN STRESS PERIOD    9
                    SECONDS     MINUTES      HOURS       DAYS        YEARS
                    -----------------------------------------------------------
   TIME STEP LENGTH 7.94880E+06 1.32480E+05  2208.0      92.000     0.25188    
 STRESS PERIOD TIME 7.94880E+06 1.32480E+05  2208.0      92.000     0.25188    
         TOTAL TIME 7.10208E+07 1.18368E+06  19728.      822.00      2.2505    
1
1
                            STRESS PERIOD NO.   10, LENGTH =   91.00000    
                            -----------------------------------------------

                              NUMBER OF TIME STEPS =     1

                               MULTIPLIER FOR DELT =     1.500

                            INITIAL TIME STEP SIZE =   91.00000    

 WELL NO.  LAYER   ROW   COL   STRESS RATE         
 --------------------------------------------------
      1      1     15      4     -0.1412E+05
      2      1     11     22     -0.1126E+05
      3      1     18     29     -0.4576E+05
      4      1     14     29      -9979.    

      4 WELLS

                 RECHARGE =  2.000000E-03

 REUSING STREAM SEGMENT DATA FROM LAST STRESS PERIOD
 
 SOLVING FOR HEAD 


     8 CALLS TO PCG ROUTINE FOR TIME STEP   1 IN STRESS PERIOD   10
    31 TOTAL ITERATIONS

 OUTPUT CONTROL FOR STRESS PERIOD   10   TIME STEP    1
    SAVE BUDGET
    SAVE HEAD FOR ALL LAYERS
    PRINT HEAD FOR ALL LAYERS
 UBDSV2 SAVING "STREAMFLOW OUT  " ON UNIT  50 AT TIME STEP  1, STRESS PERIOD  10



 STREAM LISTING     PERIOD     10   STEP        1

 LAYER ROW COL. STREAM  RCH.  FLOW INTO     FLOW TO   FLOW OUT OF   OVRLND.     DIRECT     STREAM       STREAM     STREAM     STREAM   STREAMBED  STREAMBED
                SEG.NO.  NO.  STRM. RCH.    AQUIFER    STRM. RCH.    RUNOFF     PRECIP       ET          HEAD       DEPTH      WIDTH   CONDCTNC.   GRADIENT

   1   13    1     1     1    1.0000E+05 -2.1252E+03   1.0213E+05  0.000E+00  0.000E+00  0.000E+00  4.84069E+01  1.456E-01  2.000E+01  2.000E+04 -1.063E-01
   1   13    2     1     2    1.0213E+05 -3.1172E+03   1.0524E+05  0.000E+00  0.000E+00  0.000E+00  4.79319E+01  1.478E-01  2.000E+01  2.000E+04 -1.559E-01
   1   14    3     1     3    1.0524E+05 -5.7472E+02   1.0582E+05  0.000E+00  0.000E+00  0.000E+00  4.74562E+01  1.494E-01  2.000E+01  2.000E+04 -2.874E-02
   1   15    4     1     4    1.0582E+05  1.3406E+04   9.2411E+04  0.000E+00  0.000E+00  0.000E+00  4.69734E+01  1.439E-01  2.000E+01  2.000E+04  6.703E-01
   1   16    5     1     5    9.2411E+04 -2.0436E+03   9.4455E+04  0.000E+00  0.000E+00  0.000E+00  4.64911E+01  1.389E-01  2.000E+01  2.000E+04 -1.022E-01
   1   16    6     1     6    9.4455E+04 -1.3008E+03   9.5756E+04  0.000E+00  0.000E+00  0.000E+00  4.60154E+01  1.404E-01  2.000E+01  2.000E+04 -6.504E-02
   1   16    7     1     7    9.5756E+04 -1.2780E+03   9.7034E+04  0.000E+00  0.000E+00  0.000E+00  4.55392E+01  1.415E-01  2.000E+01  2.000E+04 -6.390E-02
   1   16    8     1     8    9.7034E+04 -1.2757E+03   9.8310E+04  0.000E+00  0.000E+00  0.000E+00  4.50631E+01  1.426E-01  2.000E+01  2.000E+04 -6.378E-02
   1   16    9     1     9    9.8310E+04 -1.2725E+03   9.9582E+04  0.000E+00  0.000E+00  0.000E+00  4.45869E+01  1.437E-01  2.000E+01  2.000E+04 -6.362E-02
   1   16   10     1    10    9.9582E+04 -1.2672E+03   1.0085E+05  0.000E+00  0.000E+00  0.000E+00  4.41107E+01  1.448E-01  2.000E+01  2.000E+04 -6.336E-02
   1   16   11     1    11    1.0085E+05 -1.2806E+03   1.0213E+05  0.000E+00  0.000E+00  0.000E+00  4.36346E+01  1.459E-01  2.000E+01  2.000E+04 -6.403E-02
   1   16   12     1    12    1.0213E+05 -2.1762E+03   1.0431E+05  0.000E+00  0.000E+00  0.000E+00  4.31588E+01  1.474E-01  2.000E+01  2.000E+04 -1.088E-01
   1   15   13     1    13    1.0431E+05 -2.0943E+03   1.0640E+05  0.000E+00  0.000E+00  0.000E+00  4.26833E+01  1.492E-01  2.000E+01  2.000E+04 -1.047E-01
   1   14   14     1    14    1.0640E+05 -2.3544E+03   1.0875E+05  0.000E+00  0.000E+00  0.000E+00  4.22080E+01  1.511E-01  2.000E+01  2.000E+04 -1.177E-01
   1   13   15     1    15    1.0875E+05 -2.6170E+03   1.1137E+05  0.000E+00  0.000E+00  0.000E+00  4.17328E+01  1.532E-01  2.000E+01  2.000E+04 -1.309E-01
   1   12   16     1    16    1.1137E+05 -3.1185E+03   1.1449E+05  0.000E+00  0.000E+00  0.000E+00  4.12579E+01  1.556E-01  2.000E+01  2.000E+04 -1.559E-01
   1   12   17     1    17    1.1449E+05 -2.0043E+03   1.1649E+05  0.000E+00  0.000E+00  0.000E+00  4.07827E+01  1.577E-01  2.000E+01  2.000E+04 -1.002E-01
   1   12   18     1    18    1.1649E+05 -1.7721E+03   1.1827E+05  0.000E+00  0.000E+00  0.000E+00  4.03070E+01  1.593E-01  2.000E+01  2.000E+04 -8.861E-02
   1   12   19     1    19    1.1827E+05 -1.4825E+03   1.1975E+05  0.000E+00  0.000E+00  0.000E+00  3.98310E+01  1.606E-01  2.000E+01  2.000E+04 -7.413E-02
   1   13   20     1    20    1.1975E+05 -8.8201E+02   1.2063E+05  0.000E+00  0.000E+00  0.000E+00  3.93547E+01  1.615E-01  2.000E+01  2.000E+04 -4.410E-02
   1   14   21     1    21    1.2063E+05 -1.3260E+03   1.2196E+05  0.000E+00  0.000E+00  0.000E+00  3.88783E+01  1.624E-01  2.000E+01  2.000E+04 -6.630E-02
   1   14   22     1    22    1.2196E+05  5.0944E+03   1.1686E+05  0.000E+00  0.000E+00  0.000E+00  3.83995E+01  1.609E-01  2.000E+01  2.000E+04  2.547E-01
   1    9   30     2     1    5.0000E+04  1.2190E+02   4.9878E+04  0.000E+00  0.000E+00  0.000E+00  4.02408E+01  1.158E-01  2.000E+01  2.000E+04  6.095E-03
   1    9   29     2     2    4.9878E+04 -2.4694E+02   5.0125E+04  0.000E+00  0.000E+00  0.000E+00  3.99909E+01  1.159E-01  2.000E+01  2.000E+04 -1.235E-02
   1    9   28     2     3    5.0125E+04 -6.5119E+02   5.0776E+04  0.000E+00  0.000E+00  0.000E+00  3.97415E+01  1.165E-01  2.000E+01  2.000E+04 -3.256E-02
   1    9   27     2     4    5.0776E+04 -2.0250E+03   5.2801E+04  0.000E+00  0.000E+00  0.000E+00  3.94933E+01  1.183E-01  2.000E+01  2.000E+04 -1.013E-01
   1   10   26     2     5    5.2801E+04 -6.1588E+02   5.3417E+04  0.000E+00  0.000E+00  0.000E+00  3.92451E+01  1.201E-01  2.000E+01  2.000E+04 -3.079E-02
   1   11   25     2     6    5.3417E+04  6.0128E+01   5.3357E+04  0.000E+00  0.000E+00  0.000E+00  3.89955E+01  1.205E-01  2.000E+01  2.000E+04  3.006E-03
   1   12   24     2     7    5.3357E+04  6.5019E+02   5.2707E+04  0.000E+00  0.000E+00  0.000E+00  3.87450E+01  1.200E-01  2.000E+01  2.000E+04  3.251E-02
   1   13   23     2     8    5.2707E+04  8.6618E+01   5.2620E+04  0.000E+00  0.000E+00  0.000E+00  3.84945E+01  1.195E-01  2.000E+01  2.000E+04  4.331E-03
   1   14   22     2     9    5.2620E+04  1.9663E+03   5.0654E+04  0.000E+00  0.000E+00  0.000E+00  3.82431E+01  1.181E-01  2.000E+01  2.000E+04  9.831E-02
   1   14   22     3     1    1.6752E+05 -8.4642E+03   1.7598E+05  0.000E+00  0.000E+00  0.000E+00  3.77216E+01  1.660E-01  2.000E+01  2.000E+04 -4.232E-01
   1   15   23     3     2    1.7598E+05 -6.2066E+02   1.7660E+05  0.000E+00  0.000E+00  0.000E+00  3.68353E+01  1.687E-01  2.000E+01  2.000E+04 -3.103E-02
   1   15   24     3     3    1.7660E+05 -3.3586E+02   1.7694E+05  0.000E+00  0.000E+00  0.000E+00  3.59467E+01  1.689E-01  2.000E+01  2.000E+04 -1.679E-02
   1   15   25     3     4    1.7694E+05 -2.9349E+02   1.7723E+05  0.000E+00  0.000E+00  0.000E+00  3.50580E+01  1.691E-01  2.000E+01  2.000E+04 -1.467E-02
   1   15   26     3     5    1.7723E+05 -6.4763E+01   1.7730E+05  0.000E+00  0.000E+00  0.000E+00  3.41692E+01  1.692E-01  2.000E+01  2.000E+04 -3.238E-03
   1   16   27     3     6    1.7730E+05  3.1162E+02   1.7698E+05  0.000E+00  0.000E+00  0.000E+00  3.32803E+01  1.692E-01  2.000E+01  2.000E+04  1.558E-02
   1   17   28     3     7    1.7698E+05  7.5370E+03   1.6945E+05  0.000E+00  0.000E+00  0.000E+00  3.23891E+01  1.669E-01  2.000E+01  2.000E+04  3.768E-01
   1   18   29     3     8    1.6945E+05  2.3157E+04   1.4629E+05  0.000E+00  0.000E+00  0.000E+00  3.14912E+01  1.579E-01  2.000E+01  2.000E+04  1.158E+00
   1   18   30     3     9    1.4629E+05  8.4838E+03   1.3781E+05  0.000E+00  0.000E+00  0.000E+00  3.05926E+01  1.482E-01  2.000E+01  2.000E+04  4.242E-01



1
              HEAD IN LAYER   1 AT END OF TIME STEP   1 IN STRESS PERIOD   10
  ---------------------------------------------------------------------------

          1      2      3      4      5      6      7      8      9     10
         11     12     13     14     15     16     17     18     19     20
         21     22     23     24     25     26     27     28     29     30
 .........................................................................
   1  ****** ****** ****** ****** ****** ****** ****** ****** ****** ******
      ****** ****** ****** ****** ****** ****** ****** ****** ****** ******
      ****** ****** ****** ****** ****** ****** ****** ****** ****** ******
   2  ****** ****** ****** ****** ****** ****** ****** ****** ****** ******
      ****** ****** ****** ****** ****** ****** ****** ****** ****** ******
      ****** ****** ****** ****** ****** ****** ****** ****** ****** ******
   3  ****** ****** ****** ****** ****** ****** ****** ****** ****** ******
      ****** ****** ****** ****** ****** ****** ****** ****** ****** ******
      ****** ****** ****** ****** ****** ****** ****** ****** ****** ******
   4  ****** ****** ****** ****** ****** ****** ****** ****** ****** ******
      ****** ****** ****** ****** ****** ****** ****** ****** ****** ******
      ****** ****** ****** ****** ****** ****** ****** ****** ****** ******
   5  ****** ****** ****** ****** ****** ****** ****** ****** ****** ******
      ****** ****** ****** ****** ****** ****** ****** ****** ****** ******
      ****** ****** ****** ****** ****** ****** ****** ****** ****** ******
   6  ****** ****** ****** ****** ****** ****** ****** ****** ****** ******
      ****** ****** ****** ****** ****** ****** ****** ****** ****** ******
      ****** ****** ****** ****** ****** ****** ****** ****** ****** ******
   7  ****** ****** ****** ****** ****** ****** ****** ****** ****** ******
      ****** ****** ****** ****** ****** ****** ****** ****** ****** ******
      ****** ****** ****** ****** ****** ****** ****** ****** ****** ******
   8  ****** ****** ****** ****** ****** ****** ****** ****** ****** ******
      ****** ****** ****** ****** ****** ****** ****** ****** ****** ******
      ****** ****** ****** ****** ****** ****** ****** ****** ****** ******
   9  ****** ****** ****** ****** ****** ****** ****** ****** ****** ******
      ****** ****** ****** ****** ****** ****** ****** ****** ****** ******
      ****** ****** ****** ****** ****** ****** ****** ****** ****** ******
  10  ****** ****** ****** ****** ****** ****** ****** ****** ****** ******
      ****** ****** ****** ****** ****** ****** ****** ****** ****** ******
      ****** ****** ****** ****** ****** ****** ****** ****** ****** ******
  11  ****** ****** ****** ****** ****** ****** ****** ****** ****** ******
      ****** ****** ****** ****** ****** ****** ****** ****** ****** ******
      ****** ****** ****** ****** ****** ****** ****** ****** ****** ******
  12  ****** ****** ****** ****** ****** ****** ****** ****** ****** ******
      ****** ****** ****** ****** ****** ****** ****** ****** ****** ******
      ****** ****** ****** ****** ****** ****** ****** ****** ****** ******
  13  ****** ****** ****** ****** ****** ****** ****** ****** ****** ******
      ****** ****** ****** ****** ****** ****** ****** ****** ****** ******
      ****** ****** ****** ****** ****** ****** ****** ****** ****** ******
  14  ****** ****** ****** ****** ****** ****** ****** ****** ****** ******
      ****** ****** ****** ****** ****** ****** ****** ****** ****** ******
      ****** ****** ****** ****** ****** ****** ****** ****** ****** ******
  15  ****** ****** ****** ****** ****** ****** ****** ****** ****** ******
      ****** ****** ****** ****** ****** ****** ****** ****** ****** ******
      ****** ****** ****** ****** ****** ****** ****** ****** ****** ******
  16  ****** ****** ****** ****** ****** ****** ****** ****** ****** ******
      ****** ****** ****** ****** ****** ****** ****** ****** ****** ******
      ****** ****** ****** ****** ****** ****** ****** ****** ****** ******
  17  ****** ****** ****** ****** ****** ****** ****** ****** ****** ******
      ****** ****** ****** ****** ****** ****** ****** ****** ****** ******
      ****** ****** ****** ****** ****** ****** ****** ****** ****** ******
  18  ****** ****** ****** ****** ****** ****** ****** ****** ****** ******
      ****** ****** ****** ****** ****** ****** ****** ****** ****** ******
      ****** ****** ****** ****** ****** ****** ****** ****** ****** ******
  19  ****** ****** ****** ****** ****** ****** ****** ****** ****** ******
      ****** ****** ****** ****** ****** ****** ****** ****** ****** ******
      ****** ****** ****** ****** ****** ****** ****** ****** ****** ******
  20  ****** ****** ****** ****** ****** ****** ****** ****** ****** ******
      ****** ****** ****** ****** ****** ****** ****** ****** ****** ******
      ****** ****** ****** ****** ****** ****** ****** ****** ****** ******
  21  ****** ****** ****** ****** ****** ****** ****** ****** ****** ******
      ****** ****** ****** ****** ****** ****** ****** ****** ****** ******
      ****** ****** ****** ****** ****** ****** ****** ****** ****** ******
  22  ****** ****** ****** ****** ****** ****** ****** ****** ****** ******
      ****** ****** ****** ****** ****** ****** ****** ****** ****** ******
      ****** ****** ****** ****** ****** ****** ****** ****** ****** ******
  23  ****** ****** ****** ****** ****** ****** ****** ****** ****** ******
      ****** ****** ****** ****** ****** ****** ****** ****** ****** ******
      ****** ****** ****** ****** ****** ****** ****** ****** ****** ******
  24  ****** ****** ****** ****** ****** ****** ****** ****** ****** ******
      ****** ****** ****** ****** ****** ****** ****** ****** ****** ******
      ****** ****** ****** ****** ****** ****** ****** ****** ****** ******
  25  ****** ****** ****** ****** ****** ****** ****** ****** ****** ******
      ****** ****** ****** ****** ****** ****** ****** ****** ****** ******
      ****** ****** ****** ****** ****** ****** ****** ****** ****** ******

 HEAD WILL BE SAVED ON UNIT   51 AT END OF TIME STEP    1, STRESS PERIOD   10
1
  VOLUMETRIC BUDGET FOR ENTIRE MODEL AT END OF TIME STEP    1, STRESS PERIOD  10
  ------------------------------------------------------------------------------

     CUMULATIVE VOLUMES      L**3       RATES FOR THIS TIME STEP      L**3/T
     ------------------                 ------------------------

           IN:                                      IN:
           ---                                      ---
             STORAGE =    32946225.1314               STORAGE =           0.0000
       CONSTANT HEAD =    23987182.4890         CONSTANT HEAD =       29627.8464
               WELLS =           0.0000                 WELLS =           0.0000
            RECHARGE =    23901600.0000              RECHARGE =       55200.0000
      STREAM LEAKAGE =    54046424.2896        STREAM LEAKAGE =       60874.8200

            TOTAL IN =   134881431.9101              TOTAL IN =      145702.6664

          OUT:                                     OUT:
          ----                                     ----
             STORAGE =     2430127.9227               STORAGE =       15900.0998
       CONSTANT HEAD =           0.0000         CONSTANT HEAD =           0.0000
               WELLS =    74063994.6779                 WELLS =       81121.5714
            RECHARGE =           0.0000              RECHARGE =           0.0000
      STREAM LEAKAGE =    58387311.2774        STREAM LEAKAGE =       48680.9932

           TOTAL OUT =   134881433.8780             TOTAL OUT =      145702.6644

            IN - OUT =          -1.9679              IN - OUT =       2.0231E-03

 PERCENT DISCREPANCY =          -0.00     PERCENT DISCREPANCY =           0.00






         TIME SUMMARY AT END OF TIME STEP    1 IN STRESS PERIOD   10
                    SECONDS     MINUTES      HOURS       DAYS        YEARS
                    -----------------------------------------------------------
   TIME STEP LENGTH 7.86240E+06 1.31040E+05  2184.0      91.000     0.24914    
 STRESS PERIOD TIME 7.86240E+06 1.31040E+05  2184.0      91.000     0.24914    
         TOTAL TIME 7.88832E+07 1.31472E+06  21912.      913.00      2.4997    
1
1
                            STRESS PERIOD NO.   11, LENGTH =   91.00000    
                            -----------------------------------------------

                              NUMBER OF TIME STEPS =     1

                               MULTIPLIER FOR DELT =     1.500

                            INITIAL TIME STEP SIZE =   91.00000    

 WELL NO.  LAYER   ROW   COL   STRESS RATE         
 --------------------------------------------------
      1      1     15      4     -0.1412E+05
      2      1     11     22     -0.1126E+05
      3      1     18     29     -0.4576E+05
      4      1     14     29      -9979.    

      4 WELLS

                 RECHARGE =   0.00000    

 REUSING STREAM SEGMENT DATA FROM LAST STRESS PERIOD
 
 SOLVING FOR HEAD 


     8 CALLS TO PCG ROUTINE FOR TIME STEP   1 IN STRESS PERIOD   11
    31 TOTAL ITERATIONS

 OUTPUT CONTROL FOR STRESS PERIOD   11   TIME STEP    1
    SAVE BUDGET
    SAVE HEAD FOR ALL LAYERS
    PRINT HEAD FOR ALL LAYERS
 UBDSV2 SAVING "STREAMFLOW OUT  " ON UNIT  50 AT TIME STEP  1, STRESS PERIOD  11



 STREAM LISTING     PERIOD     11   STEP        1

 LAYER ROW COL. STREAM  RCH.  FLOW INTO     FLOW TO   FLOW OUT OF   OVRLND.     DIRECT     STREAM       STREAM     STREAM     STREAM   STREAMBED  STREAMBED
                SEG.NO.  NO.  STRM. RCH.    AQUIFER    STRM. RCH.    RUNOFF     PRECIP       ET          HEAD       DEPTH      WIDTH   CONDCTNC.   GRADIENT

   1   13    1     1     1    1.0000E+05 -1.5597E+03   1.0156E+05  0.000E+00  0.000E+00  0.000E+00  4.84067E+01  1.453E-01  2.000E+01  2.000E+04 -7.798E-02
   1   13    2     1     2    1.0156E+05 -2.4875E+03   1.0405E+05  0.000E+00  0.000E+00  0.000E+00  4.79312E+01  1.471E-01  2.000E+01  2.000E+04 -1.244E-01
   1   14    3     1     3    1.0405E+05 -3.4421E+02   1.0439E+05  0.000E+00  0.000E+00  0.000E+00  4.74551E+01  1.483E-01  2.000E+01  2.000E+04 -1.721E-02
   1   15    4     1     4    1.0439E+05  1.3647E+04   9.0744E+04  0.000E+00  0.000E+00  0.000E+00  4.69721E+01  1.425E-01  2.000E+01  2.000E+04  6.824E-01
   1   16    5     1     5    9.0744E+04 -1.3561E+03   9.2100E+04  0.000E+00  0.000E+00  0.000E+00  4.64893E+01  1.371E-01  2.000E+01  2.000E+04 -6.781E-02
   1   16    6     1     6    9.2100E+04 -8.8689E+02   9.2987E+04  0.000E+00  0.000E+00  0.000E+00  4.60131E+01  1.381E-01  2.000E+01  2.000E+04 -4.434E-02
   1   16    7     1     7    9.2987E+04 -8.8171E+02   9.3869E+04  0.000E+00  0.000E+00  0.000E+00  4.55366E+01  1.389E-01  2.000E+01  2.000E+04 -4.409E-02
   1   16    8     1     8    9.3869E+04 -8.8486E+02   9.4754E+04  0.000E+00  0.000E+00  0.000E+00  4.50601E+01  1.397E-01  2.000E+01  2.000E+04 -4.424E-02
   1   16    9     1     9    9.4754E+04 -8.8385E+02   9.5638E+04  0.000E+00  0.000E+00  0.000E+00  4.45836E+01  1.404E-01  2.000E+01  2.000E+04 -4.419E-02
   1   16   10     1    10    9.5638E+04 -8.7960E+02   9.6517E+04  0.000E+00  0.000E+00  0.000E+00  4.41071E+01  1.412E-01  2.000E+01  2.000E+04 -4.398E-02
   1   16   11     1    11    9.6517E+04 -8.9109E+02   9.7408E+04  0.000E+00  0.000E+00  0.000E+00  4.36306E+01  1.420E-01  2.000E+01  2.000E+04 -4.455E-02
   1   16   12     1    12    9.7408E+04 -1.5309E+03   9.8939E+04  0.000E+00  0.000E+00  0.000E+00  4.31544E+01  1.431E-01  2.000E+01  2.000E+04 -7.654E-02
   1   15   13     1    13    9.8939E+04 -1.4066E+03   1.0035E+05  0.000E+00  0.000E+00  0.000E+00  4.26784E+01  1.443E-01  2.000E+01  2.000E+04 -7.033E-02
   1   14   14     1    14    1.0035E+05 -1.6493E+03   1.0199E+05  0.000E+00  0.000E+00  0.000E+00  4.22025E+01  1.457E-01  2.000E+01  2.000E+04 -8.246E-02
   1   13   15     1    15    1.0199E+05 -1.9178E+03   1.0391E+05  0.000E+00  0.000E+00  0.000E+00  4.17267E+01  1.472E-01  2.000E+01  2.000E+04 -9.589E-02
   1   12   16     1    16    1.0391E+05 -2.4433E+03   1.0636E+05  0.000E+00  0.000E+00  0.000E+00  4.12513E+01  1.491E-01  2.000E+01  2.000E+04 -1.222E-01
   1   12   17     1    17    1.0636E+05 -1.4986E+03   1.0785E+05  0.000E+00  0.000E+00  0.000E+00  4.07757E+01  1.507E-01  2.000E+01  2.000E+04 -7.493E-02
   1   12   18     1    18    1.0785E+05 -1.2739E+03   1.0913E+05  0.000E+00  0.000E+00  0.000E+00  4.02996E+01  1.519E-01  2.000E+01  2.000E+04 -6.369E-02
   1   12   19     1    19    1.0913E+05 -8.7092E+02   1.1000E+05  0.000E+00  0.000E+00  0.000E+00  3.98233E+01  1.528E-01  2.000E+01  2.000E+04 -4.355E-02
   1   13   20     1    20    1.1000E+05 -2.7003E+02   1.1027E+05  0.000E+00  0.000E+00  0.000E+00  3.93465E+01  1.533E-01  2.000E+01  2.000E+04 -1.350E-02
   1   14   21     1    21    1.1027E+05 -7.2894E+02   1.1100E+05  0.000E+00  0.000E+00  0.000E+00  3.88696E+01  1.537E-01  2.000E+01  2.000E+04 -3.645E-02
   1   14   22     1    22    1.1100E+05  5.2418E+03   1.0576E+05  0.000E+00  0.000E+00  0.000E+00  3.83904E+01  1.518E-01  2.000E+01  2.000E+04  2.621E-01
   1    9   30     2     1    5.0000E+04  6.1165E+02   4.9388E+04  0.000E+00  0.000E+00  0.000E+00  4.02404E+01  1.154E-01  2.000E+01  2.000E+04  3.058E-02
   1    9   29     2     2    4.9388E+04  2.3954E+02   4.9149E+04  0.000E+00  0.000E+00  0.000E+00  3.99898E+01  1.148E-01  2.000E+01  2.000E+04  1.198E-02
   1    9   28     2     3    4.9149E+04 -1.6734E+02   4.9316E+04  0.000E+00  0.000E+00  0.000E+00  3.97398E+01  1.148E-01  2.000E+01  2.000E+04 -8.367E-03
   1    9   27     2     4    4.9316E+04 -1.3851E+03   5.0701E+04  0.000E+00  0.000E+00  0.000E+00  3.94909E+01  1.159E-01  2.000E+01  2.000E+04 -6.926E-02
   1   10   26     2     5    5.0701E+04  3.9226E+01   5.0662E+04  0.000E+00  0.000E+00  0.000E+00  3.92418E+01  1.168E-01  2.000E+01  2.000E+04  1.961E-03
   1   11   25     2     6    5.0662E+04  6.9112E+02   4.9971E+04  0.000E+00  0.000E+00  0.000E+00  3.89913E+01  1.163E-01  2.000E+01  2.000E+04  3.456E-02
   1   12   24     2     7    4.9971E+04  1.2234E+03   4.8748E+04  0.000E+00  0.000E+00  0.000E+00  3.87400E+01  1.150E-01  2.000E+01  2.000E+04  6.117E-02
   1   13   23     2     8    4.8748E+04  2.7238E+02   4.8475E+04  0.000E+00  0.000E+00  0.000E+00  3.84889E+01  1.139E-01  2.000E+01  2.000E+04  1.362E-02
   1   14   22     2     9    4.8475E+04  2.1768E+03   4.6298E+04  0.000E+00  0.000E+00  0.000E+00  3.82372E+01  1.122E-01  2.000E+01  2.000E+04  1.088E-01
   1   14   22     3     1    1.5206E+05 -8.3186E+03   1.6037E+05  0.000E+00  0.000E+00  0.000E+00  3.77124E+01  1.569E-01  2.000E+01  2.000E+04 -4.159E-01
   1   15   23     3     2    1.6037E+05 -4.2852E+02   1.6080E+05  0.000E+00  0.000E+00  0.000E+00  3.68262E+01  1.595E-01  2.000E+01  2.000E+04 -2.143E-02
   1   15   24     3     3    1.6080E+05 -1.7065E+02   1.6097E+05  0.000E+00  0.000E+00  0.000E+00  3.59374E+01  1.597E-01  2.000E+01  2.000E+04 -8.533E-03
   1   15   25     3     4    1.6097E+05 -1.2436E+02   1.6110E+05  0.000E+00  0.000E+00  0.000E+00  3.50486E+01  1.598E-01  2.000E+01  2.000E+04 -6.218E-03
   1   15   26     3     5    1.6110E+05  1.3201E+02   1.6097E+05  0.000E+00  0.000E+00  0.000E+00  3.41598E+01  1.598E-01  2.000E+01  2.000E+04  6.600E-03
   1   16   27     3     6    1.6097E+05  5.4058E+02   1.6042E+05  0.000E+00  0.000E+00  0.000E+00  3.32707E+01  1.596E-01  2.000E+01  2.000E+04  2.703E-02
   1   17   28     3     7    1.6042E+05  8.3723E+03   1.5205E+05  0.000E+00  0.000E+00  0.000E+00  3.23791E+01  1.569E-01  2.000E+01  2.000E+04  4.186E-01
   1   18   29     3     8    1.5205E+05  2.2945E+04   1.2911E+05  0.000E+00  0.000E+00  0.000E+00  3.14806E+01  1.472E-01  2.000E+01  2.000E+04  1.147E+00
   1   18   30     3     9    1.2911E+05  9.3480E+03   1.1976E+05  0.000E+00  0.000E+00  0.000E+00  3.05813E+01  1.369E-01  2.000E+01  2.000E+04  4.674E-01



1
              HEAD IN LAYER   1 AT END OF TIME STEP   1 IN STRESS PERIOD   11
  ---------------------------------------------------------------------------

          1      2      3      4      5      6      7      8      9     10
         11     12     13     14     15     16     17     18     19     20
         21     22     23     24     25     26     27     28     29     30
 .........................................................................
   1  ****** ****** ****** ****** ****** ****** ****** ****** ****** ******
      ****** ****** ****** ****** ****** ****** ****** ****** ****** ******
      ****** ****** ****** ****** ****** ****** ****** ****** ****** ******
   2  ****** ****** ****** ****** ****** ****** ****** ****** ****** ******
      ****** ****** ****** ****** ****** ****** ****** ****** ****** ******
      ****** ****** ****** ****** ****** ****** ****** ****** ****** ******
   3  ****** ****** ****** ****** ****** ****** ****** ****** ****** ******
      ****** ****** ****** ****** ****** ****** ****** ****** ****** ******
      ****** ****** ****** ****** ****** ****** ****** ****** ****** ******
   4  ****** ****** ****** ****** ****** ****** ****** ****** ****** ******
      ****** ****** ****** ****** ****** ****** ****** ****** ****** ******
      ****** ****** ****** ****** ****** ****** ****** ****** ****** ******
   5  ****** ****** ****** ****** ****** ****** ****** ****** ****** ******
      ****** ****** ****** ****** ****** ****** ****** ****** ****** ******
      ****** ****** ****** ****** ****** ****** ****** ****** ****** ******
   6  ****** ****** ****** ****** ****** ****** ****** ****** ****** ******
      ****** ****** ****** ****** ****** ****** ****** ****** ****** ******
      ****** ****** ****** ****** ****** ****** ****** ****** ****** ******
   7  ****** ****** ****** ****** ****** ****** ****** ****** ****** ******
      ****** ****** ****** ****** ****** ****** ****** ****** ****** ******
      ****** ****** ****** ****** ****** ****** ****** ****** ****** ******
   8  ****** ****** ****** ****** ****** ****** ****** ****** ****** ******
      ****** ****** ****** ****** ****** ****** ****** ****** ****** ******
      ****** ****** ****** ****** ****** ****** ****** ****** ****** ******
   9  ****** ****** ****** ****** ****** ****** ****** ****** ****** ******
      ****** ****** ****** ****** ****** ****** ****** ****** ****** ******
      ****** ****** ****** ****** ****** ****** ****** ****** ****** ******
  10  ****** ****** ****** ****** ****** ****** ****** ****** ****** ******
      ****** ****** ****** ****** ****** ****** ****** ****** ****** ******
      ****** ****** ****** ****** ****** ****** ****** ****** ****** ******
  11  ****** ****** ****** ****** ****** ****** ****** ****** ****** ******
      ****** ****** ****** ****** ****** ****** ****** ****** ****** ******
      ****** ****** ****** ****** ****** ****** ****** ****** ****** ******
  12  ****** ****** ****** ****** ****** ****** ****** ****** ****** ******
      ****** ****** ****** ****** ****** ****** ****** ****** ****** ******
      ****** ****** ****** ****** ****** ****** ****** ****** ****** ******
  13  ****** ****** ****** ****** ****** ****** ****** ****** ****** ******
      ****** ****** ****** ****** ****** ****** ****** ****** ****** ******
      ****** ****** ****** ****** ****** ****** ****** ****** ****** ******
  14  ****** ****** ****** ****** ****** ****** ****** ****** ****** ******
      ****** ****** ****** ****** ****** ****** ****** ****** ****** ******
      ****** ****** ****** ****** ****** ****** ****** ****** ****** ******
  15  ****** ****** ****** ****** ****** ****** ****** ****** ****** ******
      ****** ****** ****** ****** ****** ****** ****** ****** ****** ******
      ****** ****** ****** ****** ****** ****** ****** ****** ****** ******
  16  ****** ****** ****** ****** ****** ****** ****** ****** ****** ******
      ****** ****** ****** ****** ****** ****** ****** ****** ****** ******
      ****** ****** ****** ****** ****** ****** ****** ****** ****** ******
  17  ****** ****** ****** ****** ****** ****** ****** ****** ****** ******
      ****** ****** ****** ****** ****** ****** ****** ****** ****** ******
      ****** ****** ****** ****** ****** ****** ****** ****** ****** ******
  18  ****** ****** ****** ****** ****** ****** ****** ****** ****** ******
      ****** ****** ****** ****** ****** ****** ****** ****** ****** ******
      ****** ****** ****** ****** ****** ****** ****** ****** ****** ******
  19  ****** ****** ****** ****** ****** ****** ****** ****** ****** ******
      ****** ****** ****** ****** ****** ****** ****** ****** ****** ******
      ****** ****** ****** ****** ****** ****** ****** ****** ****** ******
  20  ****** ****** ****** ****** ****** ****** ****** ****** ****** ******
      ****** ****** ****** ****** ****** ****** ****** ****** ****** ******
      ****** ****** ****** ****** ****** ****** ****** ****** ****** ******
  21  ****** ****** ****** ****** ****** ****** ****** ****** ****** ******
      ****** ****** ****** ****** ****** ****** ****** ****** ****** ******
      ****** ****** ****** ****** ****** ****** ****** ****** ****** ******
  22  ****** ****** ****** ****** ****** ****** ****** ****** ****** ******
      ****** ****** ****** ****** ****** ****** ****** ****** ****** ******
      ****** ****** ****** ****** ****** ****** ****** ****** ****** ******
  23  ****** ****** ****** ****** ****** ****** ****** ****** ****** ******
      ****** ****** ****** ****** ****** ****** ****** ****** ****** ******
      ****** ****** ****** ****** ****** ****** ****** ****** ****** ******
  24  ****** ****** ****** ****** ****** ****** ****** ****** ****** ******
      ****** ****** ****** ****** ****** ****** ****** ****** ****** ******
      ****** ****** ****** ****** ****** ****** ****** ****** ****** ******
  25  ****** ****** ****** ****** ****** ****** ****** ****** ****** ******
      ****** ****** ****** ****** ****** ****** ****** ****** ****** ******
      ****** ****** ****** ****** ****** ****** ****** ****** ****** ******

 HEAD WILL BE SAVED ON UNIT   51 AT END OF TIME STEP    1, STRESS PERIOD   11
1
  VOLUMETRIC BUDGET FOR ENTIRE MODEL AT END OF TIME STEP    1, STRESS PERIOD  11
  ------------------------------------------------------------------------------

     CUMULATIVE VOLUMES      L**3       RATES FOR THIS TIME STEP      L**3/T
     ------------------                 ------------------------

           IN:                                      IN:
           ---                                      ---
             STORAGE =    34581646.4140               STORAGE =       17971.6624
       CONSTANT HEAD =    26981923.3423         CONSTANT HEAD =       32909.2401
               WELLS =           0.0000                 WELLS =           0.0000
            RECHARGE =    23901600.0000              RECHARGE =           0.0000
      STREAM LEAKAGE =    60005191.2457        STREAM LEAKAGE =       65480.9556

            TOTAL IN =   145470361.0020              TOTAL IN =      116361.8582

          OUT:                                     OUT:
          ----                                     ----
             STORAGE =     2430127.9227               STORAGE =           0.0000
       CONSTANT HEAD =           0.0000         CONSTANT HEAD =           0.0000
               WELLS =    81446057.6743                 WELLS =       81121.5714
            RECHARGE =           0.0000              RECHARGE =           0.0000
      STREAM LEAKAGE =    61594177.6293        STREAM LEAKAGE =       35240.2896

           TOTAL OUT =   145470363.2262             TOTAL OUT =      116361.8610

            IN - OUT =          -2.2242              IN - OUT =      -2.8166E-03

 PERCENT DISCREPANCY =          -0.00     PERCENT DISCREPANCY =          -0.00






         TIME SUMMARY AT END OF TIME STEP    1 IN STRESS PERIOD   11
                    SECONDS     MINUTES      HOURS       DAYS        YEARS
                    -----------------------------------------------------------
   TIME STEP LENGTH 7.86240E+06 1.31040E+05  2184.0      91.000     0.24914    
 STRESS PERIOD TIME 7.86240E+06 1.31040E+05  2184.0      91.000     0.24914    
         TOTAL TIME 8.67456E+07 1.44576E+06  24096.      1004.0      2.7488    
1
1
                            STRESS PERIOD NO.   12, LENGTH =   91.00000    
                            -----------------------------------------------

                              NUMBER OF TIME STEPS =     1

                               MULTIPLIER FOR DELT =     1.500

                            INITIAL TIME STEP SIZE =   91.00000    

 WELL NO.  LAYER   ROW   COL   STRESS RATE         
 --------------------------------------------------
      1      1     15      4     -0.1412E+05
      2      1     11     22     -0.1126E+05
      3      1     18     29     -0.4576E+05
      4      1     14     29      -9979.    

      4 WELLS

                 RECHARGE =  1.000000E-03

 REUSING STREAM SEGMENT DATA FROM LAST STRESS PERIOD
 
 SOLVING FOR HEAD 


     7 CALLS TO PCG ROUTINE FOR TIME STEP   1 IN STRESS PERIOD   12
    29 TOTAL ITERATIONS

 OUTPUT CONTROL FOR STRESS PERIOD   12   TIME STEP    1
    SAVE BUDGET
    SAVE HEAD FOR ALL LAYERS
    PRINT HEAD FOR ALL LAYERS
 UBDSV2 SAVING "STREAMFLOW OUT  " ON UNIT  50 AT TIME STEP  1, STRESS PERIOD  12



 STREAM LISTING     PERIOD     12   STEP        1

 LAYER ROW COL. STREAM  RCH.  FLOW INTO     FLOW TO   FLOW OUT OF   OVRLND.     DIRECT     STREAM       STREAM     STREAM     STREAM   STREAMBED  STREAMBED
                SEG.NO.  NO.  STRM. RCH.    AQUIFER    STRM. RCH.    RUNOFF     PRECIP       ET          HEAD       DEPTH      WIDTH   CONDCTNC.   GRADIENT

   1   13    1     1     1    1.0000E+05 -1.7055E+03   1.0171E+05  0.000E+00  0.000E+00  0.000E+00  4.84068E+01  1.454E-01  2.000E+01  2.000E+04 -8.527E-02
   1   13    2     1     2    1.0171E+05 -2.6445E+03   1.0435E+05  0.000E+00  0.000E+00  0.000E+00  4.79314E+01  1.473E-01  2.000E+01  2.000E+04 -1.322E-01
   1   14    3     1     3    1.0435E+05 -4.2305E+02   1.0477E+05  0.000E+00  0.000E+00  0.000E+00  4.74554E+01  1.486E-01  2.000E+01  2.000E+04 -2.115E-02
   1   15    4     1     4    1.0477E+05  1.3565E+04   9.1208E+04  0.000E+00  0.000E+00  0.000E+00  4.69724E+01  1.429E-01  2.000E+01  2.000E+04  6.782E-01
   1   16    5     1     5    9.1208E+04 -1.5661E+03   9.2774E+04  0.000E+00  0.000E+00  0.000E+00  4.64899E+01  1.376E-01  2.000E+01  2.000E+04 -7.830E-02
   1   16    6     1     6    9.2774E+04 -1.0175E+03   9.3792E+04  0.000E+00  0.000E+00  0.000E+00  4.60137E+01  1.387E-01  2.000E+01  2.000E+04 -5.088E-02
   1   16    7     1     7    9.3792E+04 -1.0073E+03   9.4799E+04  0.000E+00  0.000E+00  0.000E+00  4.55374E+01  1.396E-01  2.000E+01  2.000E+04 -5.037E-02
   1   16    8     1     8    9.4799E+04 -1.0094E+03   9.5809E+04  0.000E+00  0.000E+00  0.000E+00  4.50610E+01  1.405E-01  2.000E+01  2.000E+04 -5.047E-02
   1   16    9     1     9    9.5809E+04 -1.0088E+03   9.6817E+04  0.000E+00  0.000E+00  0.000E+00  4.45846E+01  1.414E-01  2.000E+01  2.000E+04 -5.044E-02
   1   16   10     1    10    9.6817E+04 -1.0058E+03   9.7823E+04  0.000E+00  0.000E+00  0.000E+00  4.41082E+01  1.423E-01  2.000E+01  2.000E+04 -5.029E-02
   1   16   11     1    11    9.7823E+04 -1.0194E+03   9.8843E+04  0.000E+00  0.000E+00  0.000E+00  4.36318E+01  1.432E-01  2.000E+01  2.000E+04 -5.097E-02
   1   16   12     1    12    9.8843E+04 -1.7326E+03   1.0058E+05  0.000E+00  0.000E+00  0.000E+00  4.31558E+01  1.444E-01  2.000E+01  2.000E+04 -8.663E-02
   1   15   13     1    13    1.0058E+05 -1.6240E+03   1.0220E+05  0.000E+00  0.000E+00  0.000E+00  4.26799E+01  1.459E-01  2.000E+01  2.000E+04 -8.120E-02
   1   14   14     1    14    1.0220E+05 -1.8675E+03   1.0407E+05  0.000E+00  0.000E+00  0.000E+00  4.22042E+01  1.474E-01  2.000E+01  2.000E+04 -9.337E-02
   1   13   15     1    15    1.0407E+05 -2.1290E+03   1.0620E+05  0.000E+00  0.000E+00  0.000E+00  4.17286E+01  1.491E-01  2.000E+01  2.000E+04 -1.064E-01
   1   12   16     1    16    1.0620E+05 -2.6285E+03   1.0882E+05  0.000E+00  0.000E+00  0.000E+00  4.12533E+01  1.511E-01  2.000E+01  2.000E+04 -1.314E-01
   1   12   17     1    17    1.0882E+05 -1.6528E+03   1.1048E+05  0.000E+00  0.000E+00  0.000E+00  4.07779E+01  1.529E-01  2.000E+01  2.000E+04 -8.264E-02
   1   12   18     1    18    1.1048E+05 -1.4302E+03   1.1191E+05  0.000E+00  0.000E+00  0.000E+00  4.03019E+01  1.542E-01  2.000E+01  2.000E+04 -7.151E-02
   1   12   19     1    19    1.1191E+05 -1.0641E+03   1.1297E+05  0.000E+00  0.000E+00  0.000E+00  3.98256E+01  1.552E-01  2.000E+01  2.000E+04 -5.321E-02
   1   13   20     1    20    1.1297E+05 -4.8057E+02   1.1345E+05  0.000E+00  0.000E+00  0.000E+00  3.93490E+01  1.558E-01  2.000E+01  2.000E+04 -2.403E-02
   1   14   21     1    21    1.1345E+05 -9.2273E+02   1.1437E+05  0.000E+00  0.000E+00  0.000E+00  3.88723E+01  1.564E-01  2.000E+01  2.000E+04 -4.614E-02
   1   14   22     1    22    1.1437E+05  5.1886E+03   1.0919E+05  0.000E+00  0.000E+00  0.000E+00  3.83933E+01  1.546E-01  2.000E+01  2.000E+04  2.594E-01
   1    9   30     2     1    5.0000E+04  4.3509E+02   4.9565E+04  0.000E+00  0.000E+00  0.000E+00  4.02406E+01  1.156E-01  2.000E+01  2.000E+04  2.175E-02
   1    9   29     2     2    4.9565E+04  6.5022E+01   4.9500E+04  0.000E+00  0.000E+00  0.000E+00  3.99902E+01  1.152E-01  2.000E+01  2.000E+04  3.251E-03
   1    9   28     2     3    4.9500E+04 -3.3838E+02   4.9838E+04  0.000E+00  0.000E+00  0.000E+00  3.97404E+01  1.154E-01  2.000E+01  2.000E+04 -1.692E-02
   1    9   27     2     4    4.9838E+04 -1.5947E+03   5.1433E+04  0.000E+00  0.000E+00  0.000E+00  3.94917E+01  1.167E-01  2.000E+01  2.000E+04 -7.974E-02
   1   10   26     2     5    5.1433E+04 -1.9093E+02   5.1624E+04  0.000E+00  0.000E+00  0.000E+00  3.92430E+01  1.180E-01  2.000E+01  2.000E+04 -9.546E-03
   1   11   25     2     6    5.1624E+04  4.6489E+02   5.1159E+04  0.000E+00  0.000E+00  0.000E+00  3.89928E+01  1.178E-01  2.000E+01  2.000E+04  2.324E-02
   1   12   24     2     7    5.1159E+04  1.0169E+03   5.0142E+04  0.000E+00  0.000E+00  0.000E+00  3.87418E+01  1.168E-01  2.000E+01  2.000E+04  5.084E-02
   1   13   23     2     8    5.0142E+04  1.9471E+02   4.9947E+04  0.000E+00  0.000E+00  0.000E+00  3.84909E+01  1.159E-01  2.000E+01  2.000E+04  9.735E-03
   1   14   22     2     9    4.9947E+04  2.1093E+03   4.7838E+04  0.000E+00  0.000E+00  0.000E+00  3.82393E+01  1.143E-01  2.000E+01  2.000E+04  1.055E-01
   1   14   22     3     1    1.5702E+05 -8.3688E+03   1.6539E+05  0.000E+00  0.000E+00  0.000E+00  3.77154E+01  1.599E-01  2.000E+01  2.000E+04 -4.184E-01
   1   15   23     3     2    1.6539E+05 -5.0043E+02   1.6589E+05  0.000E+00  0.000E+00  0.000E+00  3.68291E+01  1.625E-01  2.000E+01  2.000E+04 -2.502E-02
   1   15   24     3     3    1.6589E+05 -2.3564E+02   1.6613E+05  0.000E+00  0.000E+00  0.000E+00  3.59405E+01  1.627E-01  2.000E+01  2.000E+04 -1.178E-02
   1   15   25     3     4    1.6613E+05 -1.9059E+02   1.6632E+05  0.000E+00  0.000E+00  0.000E+00  3.50517E+01  1.628E-01  2.000E+01  2.000E+04 -9.529E-03
   1   15   26     3     5    1.6632E+05  5.4604E+01   1.6627E+05  0.000E+00  0.000E+00  0.000E+00  3.41629E+01  1.629E-01  2.000E+01  2.000E+04  2.730E-03
   1   16   27     3     6    1.6627E+05  4.5304E+02   1.6581E+05  0.000E+00  0.000E+00  0.000E+00  3.32738E+01  1.627E-01  2.000E+01  2.000E+04  2.265E-02
   1   17   28     3     7    1.6581E+05  8.0932E+03   1.5772E+05  0.000E+00  0.000E+00  0.000E+00  3.23824E+01  1.602E-01  2.000E+01  2.000E+04  4.047E-01
   1   18   29     3     8    1.5772E+05  2.3015E+04   1.3470E+05  0.000E+00  0.000E+00  0.000E+00  3.14841E+01  1.508E-01  2.000E+01  2.000E+04  1.151E+00
   1   18   30     3     9    1.3470E+05  9.0768E+03   1.2563E+05  0.000E+00  0.000E+00  0.000E+00  3.05850E+01  1.406E-01  2.000E+01  2.000E+04  4.538E-01



1
              HEAD IN LAYER   1 AT END OF TIME STEP   1 IN STRESS PERIOD   12
  ---------------------------------------------------------------------------

          1      2      3      4      5      6      7      8      9     10
         11     12     13     14     15     16     17     18     19     20
         21     22     23     24     25     26     27     28     29     30
 .........................................................................
   1  ****** ****** ****** ****** ****** ****** ****** ****** ****** ******
      ****** ****** ****** ****** ****** ****** ****** ****** ****** ******
      ****** ****** ****** ****** ****** ****** ****** ****** ****** ******
   2  ****** ****** ****** ****** ****** ****** ****** ****** ****** ******
      ****** ****** ****** ****** ****** ****** ****** ****** ****** ******
      ****** ****** ****** ****** ****** ****** ****** ****** ****** ******
   3  ****** ****** ****** ****** ****** ****** ****** ****** ****** ******
      ****** ****** ****** ****** ****** ****** ****** ****** ****** ******
      ****** ****** ****** ****** ****** ****** ****** ****** ****** ******
   4  ****** ****** ****** ****** ****** ****** ****** ****** ****** ******
      ****** ****** ****** ****** ****** ****** ****** ****** ****** ******
      ****** ****** ****** ****** ****** ****** ****** ****** ****** ******
   5  ****** ****** ****** ****** ****** ****** ****** ****** ****** ******
      ****** ****** ****** ****** ****** ****** ****** ****** ****** ******
      ****** ****** ****** ****** ****** ****** ****** ****** ****** ******
   6  ****** ****** ****** ****** ****** ****** ****** ****** ****** ******
      ****** ****** ****** ****** ****** ****** ****** ****** ****** ******
      ****** ****** ****** ****** ****** ****** ****** ****** ****** ******
   7  ****** ****** ****** ****** ****** ****** ****** ****** ****** ******
      ****** ****** ****** ****** ****** ****** ****** ****** ****** ******
      ****** ****** ****** ****** ****** ****** ****** ****** ****** ******
   8  ****** ****** ****** ****** ****** ****** ****** ****** ****** ******
      ****** ****** ****** ****** ****** ****** ****** ****** ****** ******
      ****** ****** ****** ****** ****** ****** ****** ****** ****** ******
   9  ****** ****** ****** ****** ****** ****** ****** ****** ****** ******
      ****** ****** ****** ****** ****** ****** ****** ****** ****** ******
      ****** ****** ****** ****** ****** ****** ****** ****** ****** ******
  10  ****** ****** ****** ****** ****** ****** ****** ****** ****** ******
      ****** ****** ****** ****** ****** ****** ****** ****** ****** ******
      ****** ****** ****** ****** ****** ****** ****** ****** ****** ******
  11  ****** ****** ****** ****** ****** ****** ****** ****** ****** ******
      ****** ****** ****** ****** ****** ****** ****** ****** ****** ******
      ****** ****** ****** ****** ****** ****** ****** ****** ****** ******
  12  ****** ****** ****** ****** ****** ****** ****** ****** ****** ******
      ****** ****** ****** ****** ****** ****** ****** ****** ****** ******
      ****** ****** ****** ****** ****** ****** ****** ****** ****** ******
  13  ****** ****** ****** ****** ****** ****** ****** ****** ****** ******
      ****** ****** ****** ****** ****** ****** ****** ****** ****** ******
      ****** ****** ****** ****** ****** ****** ****** ****** ****** ******
  14  ****** ****** ****** ****** ****** ****** ****** ****** ****** ******
      ****** ****** ****** ****** ****** ****** ****** ****** ****** ******
      ****** ****** ****** ****** ****** ****** ****** ****** ****** ******
  15  ****** ****** ****** ****** ****** ****** ****** ****** ****** ******
      ****** ****** ****** ****** ****** ****** ****** ****** ****** ******
      ****** ****** ****** ****** ****** ****** ****** ****** ****** ******
  16  ****** ****** ****** ****** ****** ****** ****** ****** ****** ******
      ****** ****** ****** ****** ****** ****** ****** ****** ****** ******
      ****** ****** ****** ****** ****** ****** ****** ****** ****** ******
  17  ****** ****** ****** ****** ****** ****** ****** ****** ****** ******
      ****** ****** ****** ****** ****** ****** ****** ****** ****** ******
      ****** ****** ****** ****** ****** ****** ****** ****** ****** ******
  18  ****** ****** ****** ****** ****** ****** ****** ****** ****** ******
      ****** ****** ****** ****** ****** ****** ****** ****** ****** ******
      ****** ****** ****** ****** ****** ****** ****** ****** ****** ******
  19  ****** ****** ****** ****** ****** ****** ****** ****** ****** ******
      ****** ****** ****** ****** ****** ****** ****** ****** ****** ******
      ****** ****** ****** ****** ****** ****** ****** ****** ****** ******
  20  ****** ****** ****** ****** ****** ****** ****** ****** ****** ******
      ****** ****** ****** ****** ****** ****** ****** ****** ****** ******
      ****** ****** ****** ****** ****** ****** ****** ****** ****** ******
  21  ****** ****** ****** ****** ****** ****** ****** ****** ****** ******
      ****** ****** ****** ****** ****** ****** ****** ****** ****** ******
      ****** ****** ****** ****** ****** ****** ****** ****** ****** ******
  22  ****** ****** ****** ****** ****** ****** ****** ****** ****** ******
      ****** ****** ****** ****** ****** ****** ****** ****** ****** ******
      ****** ****** ****** ****** ****** ****** ****** ****** ****** ******
  23  ****** ****** ****** ****** ****** ****** ****** ****** ****** ******
      ****** ****** ****** ****** ****** ****** ****** ****** ****** ******
      ****** ****** ****** ****** ****** ****** ****** ****** ****** ******
  24  ****** ****** ****** ****** ****** ****** ****** ****** ****** ******
      ****** ****** ****** ****** ****** ****** ****** ****** ****** ******
      ****** ****** ****** ****** ****** ****** ****** ****** ****** ******
  25  ****** ****** ****** ****** ****** ****** ****** ****** ****** ******
      ****** ****** ****** ****** ****** ****** ****** ****** ****** ******
      ****** ****** ****** ****** ****** ****** ****** ****** ****** ******

 HEAD WILL BE SAVED ON UNIT   51 AT END OF TIME STEP    1, STRESS PERIOD   12
1
  VOLUMETRIC BUDGET FOR ENTIRE MODEL AT END OF TIME STEP    1, STRESS PERIOD  12
  ------------------------------------------------------------------------------

     CUMULATIVE VOLUMES      L**3       RATES FOR THIS TIME STEP      L**3/T
     ------------------                 ------------------------

           IN:                                      IN:
           ---                                      ---
             STORAGE =    34582200.8658               STORAGE =           6.0929
       CONSTANT HEAD =    29912962.3025         CONSTANT HEAD =       32209.2193
               WELLS =           0.0000                 WELLS =           0.0000
            RECHARGE =    26413200.0000              RECHARGE =       27600.0000
      STREAM LEAKAGE =    65804800.1303        STREAM LEAKAGE =       63731.9658

            TOTAL IN =   156713163.2987              TOTAL IN =      123547.2780

          OUT:                                     OUT:
          ----                                     ----
             STORAGE =     2709220.5398               STORAGE =        3066.9518
       CONSTANT HEAD =           0.0000         CONSTANT HEAD =           0.0000
               WELLS =    88828120.6706                 WELLS =       81121.5714
            RECHARGE =           0.0000              RECHARGE =           0.0000
      STREAM LEAKAGE =    65175824.0810        STREAM LEAKAGE =       39358.7522

           TOTAL OUT =   156713165.2914             TOTAL OUT =      123547.2754

            IN - OUT =          -1.9927              IN - OUT =       2.5438E-03

 PERCENT DISCREPANCY =          -0.00     PERCENT DISCREPANCY =           0.00






         TIME SUMMARY AT END OF TIME STEP    1 IN STRESS PERIOD   12
                    SECONDS     MINUTES      HOURS       DAYS        YEARS
                    -----------------------------------------------------------
   TIME STEP LENGTH 7.86240E+06 1.31040E+05  2184.0      91.000     0.24914    
 STRESS PERIOD TIME 7.86240E+06 1.31040E+05  2184.0      91.000     0.24914    
         TOTAL TIME 9.46080E+07 1.57680E+06  26280.      1095.0      2.9979    
1

 Run end date and time (yyyy/mm/dd hh:mm:ss): 2019/02/10 11:51:17
 Elapsed run time:  0.104 Seconds

