                                  MODFLOW-2005     
      U.S. GEOLOGICAL SURVEY MODULAR FINITE-DIFFERENCE GROUND-WATER FLOW MODEL
                            VERSION 1.11.00 8/8/2013

 LIST FILE: supply2.lst
                         UNIT   10

 OPENING ..\data\supply.dis
 FILE TYPE:DIS   UNIT   11   STATUS:OLD    
 FORMAT:FORMATTED              ACCESS:SEQUENTIAL          

 OPENING ..\data\supply.ba6
 FILE TYPE:BAS6   UNIT   12   STATUS:OLD    
 FORMAT:FORMATTED              ACCESS:SEQUENTIAL          

 OPENING ..\data\supply_het.bc6
 FILE TYPE:BCF6   UNIT   13   STATUS:OLD    
 FORMAT:FORMATTED              ACCESS:SEQUENTIAL          

 OPENING ..\data\supply.rch
 FILE TYPE:RCH   UNIT   15   STATUS:OLD    
 FORMAT:FORMATTED              ACCESS:SEQUENTIAL          

 OPENING ..\data\supply2.sfr
 FILE TYPE:SFR   UNIT   16   STATUS:OLD    
 FORMAT:FORMATTED              ACCESS:SEQUENTIAL          

 OPENING ..\data\supply.oc
 FILE TYPE:OC   UNIT   17   STATUS:OLD    
 FORMAT:FORMATTED              ACCESS:SEQUENTIAL          

 OPENING ..\data\supply.pcg
 FILE TYPE:PCG   UNIT   18   STATUS:OLD    
 FORMAT:FORMATTED              ACCESS:SEQUENTIAL          

 OPENING supply2.wel
 FILE TYPE:WEL   UNIT   19   STATUS:OLD    
 FORMAT:FORMATTED              ACCESS:SEQUENTIAL          

 OPENING supply2sf.cbc
 FILE TYPE:DATA(BINARY)   UNIT   50   STATUS:UNKNOWN
 FORMAT:BINARY                 ACCESS:SEQUENTIAL          

 OPENING supply2hd.bhd
 FILE TYPE:DATA(BINARY)   UNIT   51   STATUS:UNKNOWN
 FORMAT:BINARY                 ACCESS:SEQUENTIAL          

 BAS -- BASIC PACKAGE, VERSION 7, 5/2/2005 INPUT READ FROM UNIT   12
 
 MODFLOW was compiled using uniform precision
 Precision of REAL and DOUBLE PRECISION variables:          15

 DISCRETIZATION INPUT DATA READ FROM UNIT   11
    1 LAYERS        25 ROWS        30 COLUMNS
   12 STRESS PERIOD(S) IN SIMULATION
 MODEL TIME UNIT IS DAYS
 MODEL LENGTH UNIT IS UNDEFINED
  Confining bed flag for each layer:
   0

                     DELR =   200.000    

                     DELC =   200.000    

 TOP ELEVATION OF LAYER 1 =  100.0000    

   MODEL LAYER BOTTOM EL. =   0.00000     FOR LAYER   1


 STRESS PERIOD     LENGTH       TIME STEPS     MULTIPLIER FOR DELT    SS FLAG
 ----------------------------------------------------------------------------
        1         92.00000          1                    1.500         TR
        2         91.00000          1                    1.500         TR
        3         91.00000          1                    1.500         TR
        4         91.00000          1                    1.500         TR
        5         92.00000          1                    1.500         TR
        6         91.00000          1                    1.500         TR
        7         91.00000          1                    1.500         TR
        8         91.00000          1                    1.500         TR
        9         92.00000          1                    1.500         TR
       10         91.00000          1                    1.500         TR
       11         91.00000          1                    1.500         TR
       12         91.00000          1                    1.500         TR

 TRANSIENT SIMULATION



 
 #MODOFC transient water supply sample problem                                   
 #                                                                               
 THE FREE FORMAT OPTION HAS BEEN SELECTED



                     BOUNDARY ARRAY FOR LAYER   1
 READING ON UNIT   12 WITH FORMAT: (20I4)              

 AQUIFER HEAD WILL BE SET TO   0.0000     AT ALL NO-FLOW NODES (IBOUND=0).



                       INITIAL HEAD FOR LAYER   1
 READING ON UNIT   12 WITH FORMAT: (10F13.0)           

 OUTPUT CONTROL IS SPECIFIED ONLY AT TIME STEPS FOR WHICH OUTPUT IS DESIRED
 COMPACT CELL-BY-CELL BUDGET FILES WILL BE WRITTEN
 HEAD PRINT FORMAT CODE IS  18    DRAWDOWN PRINT FORMAT CODE IS   0
 HEADS WILL BE SAVED ON UNIT   51    DRAWDOWNS WILL BE SAVED ON UNIT    0

 BCF -- BLOCK-CENTERED FLOW PACKAGE, VERSION 7, 5/2/2005
         INPUT READ FROM UNIT 13
 TRANSIENT SIMULATION
 HEAD AT CELLS THAT CONVERT TO DRY=   0.0000    
 WETTING CAPABILITY IS NOT ACTIVE
      LAYER  LAYER-TYPE CODE     INTERBLOCK T
      --------------------------------------------
         1            0          0 -- HARMONIC    

 COLUMN TO ROW ANISOTROPY =  1.000000    

     PRIMARY STORAGE COEF =  5.000000E-02 FOR LAYER   1



               TRANSMIS. ALONG ROWS FOR LAYER   1
 READING ON UNIT   13 WITH FORMAT: (FREE)              

 WEL -- WELL PACKAGE, VERSION 7, 5/2/2005 INPUT READ FROM UNIT   19
 # Well package input file written by MMProc
 No named parameters
 MAXIMUM OF      4 ACTIVE WELLS AT ONE TIME


     0 Well parameters

 RCH -- RECHARGE PACKAGE, VERSION 7, 5/2/2005 INPUT READ FROM UNIT   15
 No named parameters
 OPTION 1 -- RECHARGE TO TOP LAYER


     0 Recharge parameters

 SFR7 -- STREAMFLOW ROUTING PACKAGE, VERSION 1.0.7, 2013-01-15
         INPUT READ FROM UNIT  16
 #  Supply2 test problem for GWM-VI
 #  The eighth entry in the first data line is ISTCB2 -
 #    Setting this to a negative number indicates that
 #    streamflows out of the reach will be saved to a
 #    binary file.  The absolute value of ISTCB2 is the
 #    unit to which unformatted flows will be written.
 #
 No named parameters
 Segment information will not be 
 read by reach
 No named parameters
 No specifed inflow files


 NUMBER OF STREAM REACHES IS   40

 NUMBER OF STREAM SEGMENTS IS    3

 NUMBER OF STREAM PARAMETERS IS    0

 NUMBER OF STREAM SEGMENTS DEFINED USING PARAMETERS IS              0

 MAXIMUM ERROR FOR STREAM LEAKAGE RATES IS  1.00E-04

 CONSTANT FOR MANNINGS EQUATION IS  1.2839E+05





   STREAM NETWORK DESCRIPTION: 

   LAYER    ROW    COL   SEGMENT   REACH     LENGTH
                          NUMBER   NUMBER    IN CELL        
   --------------------------------------------------
      1     13      1       1        1    2.0000E+02
      1     13      2       1        2    2.0000E+02
      1     14      3       1        3    2.0000E+02
      1     15      4       1        4    2.0000E+02
      1     16      5       1        5    2.0000E+02
      1     16      6       1        6    2.0000E+02
      1     16      7       1        7    2.0000E+02
      1     16      8       1        8    2.0000E+02
      1     16      9       1        9    2.0000E+02
      1     16     10       1       10    2.0000E+02
      1     16     11       1       11    2.0000E+02
      1     16     12       1       12    2.0000E+02
      1     15     13       1       13    2.0000E+02
      1     14     14       1       14    2.0000E+02
      1     13     15       1       15    2.0000E+02
      1     12     16       1       16    2.0000E+02
      1     12     17       1       17    2.0000E+02
      1     12     18       1       18    2.0000E+02
      1     12     19       1       19    2.0000E+02
      1     13     20       1       20    2.0000E+02
      1     14     21       1       21    2.0000E+02
      1     14     22       1       22    2.0000E+02
      1      9     30       2        1    2.0000E+02
      1      9     29       2        2    2.0000E+02
      1      9     28       2        3    2.0000E+02
      1      9     27       2        4    2.0000E+02
      1     10     26       2        5    2.0000E+02
      1     11     25       2        6    2.0000E+02
      1     12     24       2        7    2.0000E+02
      1     13     23       2        8    2.0000E+02
      1     14     22       2        9    2.0000E+02
      1     14     22       3        1    2.0000E+02
      1     15     23       3        2    2.0000E+02
      1     15     24       3        3    2.0000E+02
      1     15     25       3        4    2.0000E+02
      1     15     26       3        5    2.0000E+02
      1     16     27       3        6    2.0000E+02
      1     17     28       3        7    2.0000E+02
      1     18     29       3        8    2.0000E+02
      1     18     30       3        9    2.0000E+02




 PCG -- CONJUGATE-GRADIENT SOLUTION PACKAGE, VERSION 7, 5/2/2005
 MAXIMUM OF    500 CALLS OF SOLUTION ROUTINE
 MAXIMUM OF      5 INTERNAL ITERATIONS PER CALL TO SOLUTION ROUTINE
 MATRIX PRECONDITIONING TYPE :    1



                                    SOLUTION BY THE CONJUGATE-GRADIENT METHOD
                                   -------------------------------------------
                    MAXIMUM NUMBER OF CALLS TO PCG ROUTINE =      500
                        MAXIMUM ITERATIONS PER CALL TO PCG =        5
                               MATRIX PRECONDITIONING TYPE =        1
        RELAXATION FACTOR (ONLY USED WITH PRECOND. TYPE 1) =    0.10000E+01
 PARAMETER OF POLYNOMIAL PRECOND. = 2 (2) OR IS CALCULATED :        0
                         HEAD CHANGE CRITERION FOR CLOSURE =    0.10000E-05
                     RESIDUAL CHANGE CRITERION FOR CLOSURE =    0.10000E+01
            PCG HEAD AND RESIDUAL CHANGE PRINTOUT INTERVAL =        1
     PRINTING FROM SOLVER IS LIMITED(1) OR SUPPRESSED (>1) =        1
                            STEADY-STATE DAMPING PARAMETER =    0.10000E+01
                               TRANSIENT DAMPING PARAMETER =    0.10000E+01
1
                            STRESS PERIOD NO.    1, LENGTH =   92.00000    
                            -----------------------------------------------

                              NUMBER OF TIME STEPS =     1

                               MULTIPLIER FOR DELT =     1.500

                            INITIAL TIME STEP SIZE =   92.00000    

 WELL NO.  LAYER   ROW   COL   STRESS RATE         
 --------------------------------------------------
      1      1     18     24      -1560.    
      2      1     13      7      -1528.    
      3      1     19     17      -9348.    
      4      1     11     14     -0.1566E+05

      4 WELLS

                 RECHARGE =  5.000000E-04



 CLASSIFICATION & COUNT OF STREAM SEGMENTS BASED ON SOURCE OF INFLOW:

                HEADWATER     DIVERSION     RECEIVES TRIBUTARY FLOW
                ---------     ---------     -----------------------
                     2              0               1



                    INPUT DATA FOR EACH STREAM SEGMENT
 ---------------------------------------------------------------------------------------------

 SEGMENT    SEG.     INFLOW   OVERLAND   STREAM    STREAM   ICALC  OUTFLOW  DIVERSION PRIORITY
    NO.    LENGTH     RATE     RUNOFF      ET       PPT.    METH.  TO SEG.  FROM SEG.    NO.

      1  4.400E+03 1.000E+05 0.000E+00 0.000E+00 0.000E+00    1        3        0        0
      2  1.800E+03 5.000E+04 0.000E+00 0.000E+00 0.000E+00    1        3        0        0
      3  1.800E+03 0.000E+00 0.000E+00 0.000E+00 0.000E+00    1        0        0        0


         STREAMBED PROPERTIES AND STREAM DIMENSIONS

 SEGMENT     BED HYD. COND.      BED THICKNESS     ELEV.-TOP OF BED     WIDTH OF STREAM     DEPTH OF STREAM    STREAM ROUGHNESS
    No.     UPPER     LOWER     UPPER     LOWER     UPPER     LOWER     UPPER     LOWER     UPPER     LOWER   CHANNEL      BANK

     1  5.000E+00 5.000E+00 1.000E+00 1.000E+00 4.850E+01 3.800E+01 2.000E+01 2.000E+01                     5.000E-02
     2  5.000E+00 5.000E+00 1.000E+00 1.000E+00 4.025E+01 3.800E+01 2.000E+01 2.000E+01                     5.000E-02
     3  5.000E+00 5.000E+00 1.000E+00 1.000E+00 3.800E+01 3.000E+01 2.000E+01 2.000E+01                     5.000E-02



 
 SOLVING FOR HEAD 


     9 CALLS TO PCG ROUTINE FOR TIME STEP   1 IN STRESS PERIOD    1
    36 TOTAL ITERATIONS

 OUTPUT CONTROL FOR STRESS PERIOD    1   TIME STEP    1
    SAVE BUDGET
    SAVE HEAD FOR ALL LAYERS
    PRINT HEAD FOR ALL LAYERS
 UBDSV2 SAVING "STREAMFLOW OUT  " ON UNIT  50 AT TIME STEP  1, STRESS PERIOD   1



 STREAM LISTING     PERIOD      1   STEP        1

 LAYER ROW COL. STREAM  RCH.  FLOW INTO     FLOW TO   FLOW OUT OF   OVRLND.     DIRECT     STREAM       STREAM     STREAM     STREAM   STREAMBED  STREAMBED
                SEG.NO.  NO.  STRM. RCH.    AQUIFER    STRM. RCH.    RUNOFF     PRECIP       ET          HEAD       DEPTH      WIDTH   CONDCTNC.   GRADIENT

   1   13    1     1     1    1.0000E+05 -6.1017E+03   1.0610E+05  0.000E+00  0.000E+00  0.000E+00  4.84086E+01  1.473E-01  2.000E+01  2.000E+04 -3.051E-01
   1   13    2     1     2    1.0610E+05 -7.5585E+03   1.1366E+05  0.000E+00  0.000E+00  0.000E+00  4.79372E+01  1.531E-01  2.000E+01  2.000E+04 -3.779E-01
   1   14    3     1     3    1.1366E+05 -2.1770E+03   1.1584E+05  0.000E+00  0.000E+00  0.000E+00  4.74639E+01  1.571E-01  2.000E+01  2.000E+04 -1.089E-01
   1   15    4     1     4    1.1584E+05 -2.2401E+03   1.1808E+05  0.000E+00  0.000E+00  0.000E+00  4.69885E+01  1.589E-01  2.000E+01  2.000E+04 -1.120E-01
   1   16    5     1     5    1.1808E+05 -7.1343E+03   1.2521E+05  0.000E+00  0.000E+00  0.000E+00  4.65150E+01  1.627E-01  2.000E+01  2.000E+04 -3.567E-01
   1   16    6     1     6    1.2521E+05 -4.2300E+03   1.2944E+05  0.000E+00  0.000E+00  0.000E+00  4.60422E+01  1.672E-01  2.000E+01  2.000E+04 -2.115E-01
   1   16    7     1     7    1.2944E+05 -4.0318E+03   1.3347E+05  0.000E+00  0.000E+00  0.000E+00  4.55682E+01  1.704E-01  2.000E+01  2.000E+04 -2.016E-01
   1   16    8     1     8    1.3347E+05 -3.9982E+03   1.3747E+05  0.000E+00  0.000E+00  0.000E+00  4.50940E+01  1.736E-01  2.000E+01  2.000E+04 -1.999E-01
   1   16    9     1     9    1.3747E+05 -3.9863E+03   1.4146E+05  0.000E+00  0.000E+00  0.000E+00  4.46198E+01  1.766E-01  2.000E+01  2.000E+04 -1.993E-01
   1   16   10     1    10    1.4146E+05 -3.9579E+03   1.4542E+05  0.000E+00  0.000E+00  0.000E+00  4.41455E+01  1.796E-01  2.000E+01  2.000E+04 -1.979E-01
   1   16   11     1    11    1.4542E+05 -3.9263E+03   1.4934E+05  0.000E+00  0.000E+00  0.000E+00  4.36712E+01  1.826E-01  2.000E+01  2.000E+04 -1.963E-01
   1   16   12     1    12    1.4934E+05 -6.3362E+03   1.5568E+05  0.000E+00  0.000E+00  0.000E+00  4.31977E+01  1.863E-01  2.000E+01  2.000E+04 -3.168E-01
   1   15   13     1    13    1.5568E+05 -6.1948E+03   1.6187E+05  0.000E+00  0.000E+00  0.000E+00  4.27250E+01  1.909E-01  2.000E+01  2.000E+04 -3.097E-01
   1   14   14     1    14    1.6187E+05 -5.8991E+03   1.6777E+05  0.000E+00  0.000E+00  0.000E+00  4.22520E+01  1.952E-01  2.000E+01  2.000E+04 -2.950E-01
   1   13   15     1    15    1.6777E+05 -5.3773E+03   1.7315E+05  0.000E+00  0.000E+00  0.000E+00  4.17787E+01  1.992E-01  2.000E+01  2.000E+04 -2.689E-01
   1   12   16     1    16    1.7315E+05 -6.0763E+03   1.7923E+05  0.000E+00  0.000E+00  0.000E+00  4.13055E+01  2.032E-01  2.000E+01  2.000E+04 -3.038E-01
   1   12   17     1    17    1.7923E+05 -5.5228E+03   1.8475E+05  0.000E+00  0.000E+00  0.000E+00  4.08322E+01  2.072E-01  2.000E+01  2.000E+04 -2.761E-01
   1   12   18     1    18    1.8475E+05 -5.6958E+03   1.9044E+05  0.000E+00  0.000E+00  0.000E+00  4.03587E+01  2.110E-01  2.000E+01  2.000E+04 -2.848E-01
   1   12   19     1    19    1.9044E+05 -7.4294E+03   1.9787E+05  0.000E+00  0.000E+00  0.000E+00  3.98858E+01  2.154E-01  2.000E+01  2.000E+04 -3.715E-01
   1   13   20     1    20    1.9787E+05 -6.5379E+03   2.0441E+05  0.000E+00  0.000E+00  0.000E+00  3.94132E+01  2.200E-01  2.000E+01  2.000E+04 -3.269E-01
   1   14   21     1    21    2.0441E+05 -5.9814E+03   2.1039E+05  0.000E+00  0.000E+00  0.000E+00  3.89400E+01  2.241E-01  2.000E+01  2.000E+04 -2.991E-01
   1   14   22     1    22    2.1039E+05  3.6652E+03   2.0673E+05  0.000E+00  0.000E+00  0.000E+00  3.84635E+01  2.248E-01  2.000E+01  2.000E+04  1.833E-01
   1    9   30     2     1    5.0000E+04 -4.8530E+03   5.4853E+04  0.000E+00  0.000E+00  0.000E+00  4.02442E+01  1.192E-01  2.000E+01  2.000E+04 -2.426E-01
   1    9   29     2     2    5.4853E+04 -5.1479E+03   6.0001E+04  0.000E+00  0.000E+00  0.000E+00  4.00009E+01  1.259E-01  2.000E+01  2.000E+04 -2.574E-01
   1    9   28     2     3    6.0001E+04 -5.4315E+03   6.5432E+04  0.000E+00  0.000E+00  0.000E+00  3.97577E+01  1.327E-01  2.000E+01  2.000E+04 -2.716E-01
   1    9   27     2     4    6.5432E+04 -8.2777E+03   7.3710E+04  0.000E+00  0.000E+00  0.000E+00  3.95163E+01  1.413E-01  2.000E+01  2.000E+04 -4.139E-01
   1   10   26     2     5    7.3710E+04 -7.3142E+03   8.1024E+04  0.000E+00  0.000E+00  0.000E+00  3.92756E+01  1.506E-01  2.000E+01  2.000E+04 -3.657E-01
   1   11   25     2     6    8.1024E+04 -6.7655E+03   8.7790E+04  0.000E+00  0.000E+00  0.000E+00  3.90336E+01  1.586E-01  2.000E+01  2.000E+04 -3.383E-01
   1   12   24     2     7    8.7790E+04 -6.2717E+03   9.4061E+04  0.000E+00  0.000E+00  0.000E+00  3.87909E+01  1.659E-01  2.000E+01  2.000E+04 -3.136E-01
   1   13   23     2     8    9.4061E+04 -1.6467E+03   9.5708E+04  0.000E+00  0.000E+00  0.000E+00  3.85452E+01  1.702E-01  2.000E+01  2.000E+04 -8.234E-02
   1   14   22     2     9    9.5708E+04  3.1361E+02   9.5395E+04  0.000E+00  0.000E+00  0.000E+00  3.82959E+01  1.709E-01  2.000E+01  2.000E+04  1.568E-02
   1   14   22     3     1    3.0212E+05 -9.7873E+03   3.1191E+05  0.000E+00  0.000E+00  0.000E+00  3.77908E+01  2.353E-01  2.000E+01  2.000E+04 -4.894E-01
   1   15   23     3     2    3.1191E+05 -1.8951E+03   3.1380E+05  0.000E+00  0.000E+00  0.000E+00  3.69046E+01  2.380E-01  2.000E+01  2.000E+04 -9.475E-02
   1   15   24     3     3    3.1380E+05 -1.4729E+03   3.1528E+05  0.000E+00  0.000E+00  0.000E+00  3.60165E+01  2.387E-01  2.000E+01  2.000E+04 -7.364E-02
   1   15   25     3     4    3.1528E+05 -1.5417E+03   3.1682E+05  0.000E+00  0.000E+00  0.000E+00  3.51283E+01  2.394E-01  2.000E+01  2.000E+04 -7.708E-02
   1   15   26     3     5    3.1682E+05 -1.8651E+03   3.1868E+05  0.000E+00  0.000E+00  0.000E+00  3.42402E+01  2.402E-01  2.000E+01  2.000E+04 -9.326E-02
   1   16   27     3     6    3.1868E+05 -2.1352E+03   3.2082E+05  0.000E+00  0.000E+00  0.000E+00  3.33522E+01  2.411E-01  2.000E+01  2.000E+04 -1.068E-01
   1   17   28     3     7    3.2082E+05 -6.5206E+03   3.2734E+05  0.000E+00  0.000E+00  0.000E+00  3.24653E+01  2.430E-01  2.000E+01  2.000E+04 -3.260E-01
   1   18   29     3     8    3.2734E+05 -7.8965E+03   3.3524E+05  0.000E+00  0.000E+00  0.000E+00  3.15796E+01  2.463E-01  2.000E+01  2.000E+04 -3.948E-01
   1   18   30     3     9    3.3524E+05 -7.1238E+03   3.4236E+05  0.000E+00  0.000E+00  0.000E+00  3.06941E+01  2.496E-01  2.000E+01  2.000E+04 -3.562E-01



1
              HEAD IN LAYER   1 AT END OF TIME STEP   1 IN STRESS PERIOD    1
  ---------------------------------------------------------------------------

          1      2      3      4      5      6      7      8      9     10
         11     12     13     14     15     16     17     18     19     20
         21     22     23     24     25     26     27     28     29     30
 .........................................................................
   1  ****** ****** ****** ****** ****** ****** ****** ****** ****** ******
      ****** ****** ****** ****** ****** ****** ****** ****** ****** ******
      ****** ****** ****** ****** ****** ****** ****** ****** ****** ******
   2  ****** ****** ****** ****** ****** ****** ****** ****** ****** ******
      ****** ****** ****** ****** ****** ****** ****** ****** ****** ******
      ****** ****** ****** ****** ****** ****** ****** ****** ****** ******
   3  ****** ****** ****** ****** ****** ****** ****** ****** ****** ******
      ****** ****** ****** ****** ****** ****** ****** ****** ****** ******
      ****** ****** ****** ****** ****** ****** ****** ****** ****** ******
   4  ****** ****** ****** ****** ****** ****** ****** ****** ****** ******
      ****** ****** ****** ****** ****** ****** ****** ****** ****** ******
      ****** ****** ****** ****** ****** ****** ****** ****** ****** ******
   5  ****** ****** ****** ****** ****** ****** ****** ****** ****** ******
      ****** ****** ****** ****** ****** ****** ****** ****** ****** ******
      ****** ****** ****** ****** ****** ****** ****** ****** ****** ******
   6  ****** ****** ****** ****** ****** ****** ****** ****** ****** ******
      ****** ****** ****** ****** ****** ****** ****** ****** ****** ******
      ****** ****** ****** ****** ****** ****** ****** ****** ****** ******
   7  ****** ****** ****** ****** ****** ****** ****** ****** ****** ******
      ****** ****** ****** ****** ****** ****** ****** ****** ****** ******
      ****** ****** ****** ****** ****** ****** ****** ****** ****** ******
   8  ****** ****** ****** ****** ****** ****** ****** ****** ****** ******
      ****** ****** ****** ****** ****** ****** ****** ****** ****** ******
      ****** ****** ****** ****** ****** ****** ****** ****** ****** ******
   9  ****** ****** ****** ****** ****** ****** ****** ****** ****** ******
      ****** ****** ****** ****** ****** ****** ****** ****** ****** ******
      ****** ****** ****** ****** ****** ****** ****** ****** ****** ******
  10  ****** ****** ****** ****** ****** ****** ****** ****** ****** ******
      ****** ****** ****** ****** ****** ****** ****** ****** ****** ******
      ****** ****** ****** ****** ****** ****** ****** ****** ****** ******
  11  ****** ****** ****** ****** ****** ****** ****** ****** ****** ******
      ****** ****** ****** ****** ****** ****** ****** ****** ****** ******
      ****** ****** ****** ****** ****** ****** ****** ****** ****** ******
  12  ****** ****** ****** ****** ****** ****** ****** ****** ****** ******
      ****** ****** ****** ****** ****** ****** ****** ****** ****** ******
      ****** ****** ****** ****** ****** ****** ****** ****** ****** ******
  13  ****** ****** ****** ****** ****** ****** ****** ****** ****** ******
      ****** ****** ****** ****** ****** ****** ****** ****** ****** ******
      ****** ****** ****** ****** ****** ****** ****** ****** ****** ******
  14  ****** ****** ****** ****** ****** ****** ****** ****** ****** ******
      ****** ****** ****** ****** ****** ****** ****** ****** ****** ******
      ****** ****** ****** ****** ****** ****** ****** ****** ****** ******
  15  ****** ****** ****** ****** ****** ****** ****** ****** ****** ******
      ****** ****** ****** ****** ****** ****** ****** ****** ****** ******
      ****** ****** ****** ****** ****** ****** ****** ****** ****** ******
  16  ****** ****** ****** ****** ****** ****** ****** ****** ****** ******
      ****** ****** ****** ****** ****** ****** ****** ****** ****** ******
      ****** ****** ****** ****** ****** ****** ****** ****** ****** ******
  17  ****** ****** ****** ****** ****** ****** ****** ****** ****** ******
      ****** ****** ****** ****** ****** ****** ****** ****** ****** ******
      ****** ****** ****** ****** ****** ****** ****** ****** ****** ******
  18  ****** ****** ****** ****** ****** ****** ****** ****** ****** ******
      ****** ****** ****** ****** ****** ****** ****** ****** ****** ******
      ****** ****** ****** ****** ****** ****** ****** ****** ****** ******
  19  ****** ****** ****** ****** ****** ****** ****** ****** ****** ******
      ****** ****** ****** ****** ****** ****** ****** ****** ****** ******
      ****** ****** ****** ****** ****** ****** ****** ****** ****** ******
  20  ****** ****** ****** ****** ****** ****** ****** ****** ****** ******
      ****** ****** ****** ****** ****** ****** ****** ****** ****** ******
      ****** ****** ****** ****** ****** ****** ****** ****** ****** ******
  21  ****** ****** ****** ****** ****** ****** ****** ****** ****** ******
      ****** ****** ****** ****** ****** ****** ****** ****** ****** ******
      ****** ****** ****** ****** ****** ****** ****** ****** ****** ******
  22  ****** ****** ****** ****** ****** ****** ****** ****** ****** ******
      ****** ****** ****** ****** ****** ****** ****** ****** ****** ******
      ****** ****** ****** ****** ****** ****** ****** ****** ****** ******
  23  ****** ****** ****** ****** ****** ****** ****** ****** ****** ******
      ****** ****** ****** ****** ****** ****** ****** ****** ****** ******
      ****** ****** ****** ****** ****** ****** ****** ****** ****** ******
  24  ****** ****** ****** ****** ****** ****** ****** ****** ****** ******
      ****** ****** ****** ****** ****** ****** ****** ****** ****** ******
      ****** ****** ****** ****** ****** ****** ****** ****** ****** ******
  25  ****** ****** ****** ****** ****** ****** ****** ****** ****** ******
      ****** ****** ****** ****** ****** ****** ****** ****** ****** ******
      ****** ****** ****** ****** ****** ****** ****** ****** ****** ******

 HEAD WILL BE SAVED ON UNIT   51 AT END OF TIME STEP    1, STRESS PERIOD    1
1
  VOLUMETRIC BUDGET FOR ENTIRE MODEL AT END OF TIME STEP    1, STRESS PERIOD   1
  ------------------------------------------------------------------------------

     CUMULATIVE VOLUMES      L**3       RATES FOR THIS TIME STEP      L**3/T
     ------------------                 ------------------------

           IN:                                      IN:
           ---                                      ---
             STORAGE =    17868399.0149               STORAGE =      194221.7284
       CONSTANT HEAD =     1144049.8421         CONSTANT HEAD =       12435.3244
               WELLS =           0.0000                 WELLS =           0.0000
            RECHARGE =     1269600.0000              RECHARGE =       13800.0000
      STREAM LEAKAGE =      366054.4213        STREAM LEAKAGE =        3978.8524

            TOTAL IN =    20648103.2782              TOTAL IN =      224435.9052

          OUT:                                     OUT:
          ----                                     ----
             STORAGE =           0.0000               STORAGE =           0.0000
       CONSTANT HEAD =           0.0000         CONSTANT HEAD =           0.0000
               WELLS =     2584872.7502                 WELLS =       28096.4429
            RECHARGE =           0.0000              RECHARGE =           0.0000
      STREAM LEAKAGE =    18063230.8199        STREAM LEAKAGE =      196339.4654

           TOTAL OUT =    20648103.5701             TOTAL OUT =      224435.9084

            IN - OUT =          -0.2919              IN - OUT =      -3.1729E-03

 PERCENT DISCREPANCY =          -0.00     PERCENT DISCREPANCY =          -0.00






         TIME SUMMARY AT END OF TIME STEP    1 IN STRESS PERIOD    1
                    SECONDS     MINUTES      HOURS       DAYS        YEARS
                    -----------------------------------------------------------
   TIME STEP LENGTH 7.94880E+06 1.32480E+05  2208.0      92.000     0.25188    
 STRESS PERIOD TIME 7.94880E+06 1.32480E+05  2208.0      92.000     0.25188    
         TOTAL TIME 7.94880E+06 1.32480E+05  2208.0      92.000     0.25188    
1
1
                            STRESS PERIOD NO.    2, LENGTH =   91.00000    
                            -----------------------------------------------

                              NUMBER OF TIME STEPS =     1

                               MULTIPLIER FOR DELT =     1.500

                            INITIAL TIME STEP SIZE =   91.00000    

 WELL NO.  LAYER   ROW   COL   STRESS RATE         
 --------------------------------------------------
      1      1     18     24      -1560.    
      2      1     13      7      -1528.    
      3      1     19     17      -9348.    
      4      1     11     14     -0.1566E+05

      4 WELLS

                 RECHARGE =  2.000000E-03

 REUSING STREAM SEGMENT DATA FROM LAST STRESS PERIOD
 
 SOLVING FOR HEAD 


     7 CALLS TO PCG ROUTINE FOR TIME STEP   1 IN STRESS PERIOD    2
    27 TOTAL ITERATIONS

 OUTPUT CONTROL FOR STRESS PERIOD    2   TIME STEP    1
    SAVE BUDGET
    SAVE HEAD FOR ALL LAYERS
    PRINT HEAD FOR ALL LAYERS
 UBDSV2 SAVING "STREAMFLOW OUT  " ON UNIT  50 AT TIME STEP  1, STRESS PERIOD   2



 STREAM LISTING     PERIOD      2   STEP        1

 LAYER ROW COL. STREAM  RCH.  FLOW INTO     FLOW TO   FLOW OUT OF   OVRLND.     DIRECT     STREAM       STREAM     STREAM     STREAM   STREAMBED  STREAMBED
                SEG.NO.  NO.  STRM. RCH.    AQUIFER    STRM. RCH.    RUNOFF     PRECIP       ET          HEAD       DEPTH      WIDTH   CONDCTNC.   GRADIENT

   1   13    1     1     1    1.0000E+05 -3.9534E+03   1.0395E+05  0.000E+00  0.000E+00  0.000E+00  4.84077E+01  1.464E-01  2.000E+01  2.000E+04 -1.977E-01
   1   13    2     1     2    1.0395E+05 -5.1876E+03   1.0914E+05  0.000E+00  0.000E+00  0.000E+00  4.79344E+01  1.503E-01  2.000E+01  2.000E+04 -2.594E-01
   1   14    3     1     3    1.0914E+05 -1.0709E+03   1.1021E+05  0.000E+00  0.000E+00  0.000E+00  4.74597E+01  1.529E-01  2.000E+01  2.000E+04 -5.354E-02
   1   15    4     1     4    1.1021E+05 -1.0845E+03   1.1130E+05  0.000E+00  0.000E+00  0.000E+00  4.69833E+01  1.538E-01  2.000E+01  2.000E+04 -5.423E-02
   1   16    5     1     5    1.1130E+05 -4.1510E+03   1.1545E+05  0.000E+00  0.000E+00  0.000E+00  4.65082E+01  1.560E-01  2.000E+01  2.000E+04 -2.075E-01
   1   16    6     1     6    1.1545E+05 -2.3731E+03   1.1782E+05  0.000E+00  0.000E+00  0.000E+00  4.60336E+01  1.586E-01  2.000E+01  2.000E+04 -1.187E-01
   1   16    7     1     7    1.1782E+05 -2.2292E+03   1.2005E+05  0.000E+00  0.000E+00  0.000E+00  4.55582E+01  1.605E-01  2.000E+01  2.000E+04 -1.115E-01
   1   16    8     1     8    1.2005E+05 -2.2048E+03   1.2225E+05  0.000E+00  0.000E+00  0.000E+00  4.50828E+01  1.623E-01  2.000E+01  2.000E+04 -1.102E-01
   1   16    9     1     9    1.2225E+05 -2.1805E+03   1.2443E+05  0.000E+00  0.000E+00  0.000E+00  4.46072E+01  1.641E-01  2.000E+01  2.000E+04 -1.090E-01
   1   16   10     1    10    1.2443E+05 -2.1204E+03   1.2656E+05  0.000E+00  0.000E+00  0.000E+00  4.41317E+01  1.658E-01  2.000E+01  2.000E+04 -1.060E-01
   1   16   11     1    11    1.2656E+05 -2.0362E+03   1.2859E+05  0.000E+00  0.000E+00  0.000E+00  4.36560E+01  1.674E-01  2.000E+01  2.000E+04 -1.018E-01
   1   16   12     1    12    1.2859E+05 -3.1609E+03   1.3175E+05  0.000E+00  0.000E+00  0.000E+00  4.31808E+01  1.694E-01  2.000E+01  2.000E+04 -1.580E-01
   1   15   13     1    13    1.3175E+05 -2.5886E+03   1.3434E+05  0.000E+00  0.000E+00  0.000E+00  4.27058E+01  1.717E-01  2.000E+01  2.000E+04 -1.294E-01
   1   14   14     1    14    1.3434E+05 -2.0993E+03   1.3644E+05  0.000E+00  0.000E+00  0.000E+00  4.22303E+01  1.735E-01  2.000E+01  2.000E+04 -1.050E-01
   1   13   15     1    15    1.3644E+05 -1.5498E+03   1.3799E+05  0.000E+00  0.000E+00  0.000E+00  4.17544E+01  1.749E-01  2.000E+01  2.000E+04 -7.749E-02
   1   12   16     1    16    1.3799E+05 -2.4808E+03   1.4047E+05  0.000E+00  0.000E+00  0.000E+00  4.12787E+01  1.764E-01  2.000E+01  2.000E+04 -1.240E-01
   1   12   17     1    17    1.4047E+05 -2.8318E+03   1.4330E+05  0.000E+00  0.000E+00  0.000E+00  4.08034E+01  1.784E-01  2.000E+01  2.000E+04 -1.416E-01
   1   12   18     1    18    1.4330E+05 -3.0560E+03   1.4636E+05  0.000E+00  0.000E+00  0.000E+00  4.03284E+01  1.807E-01  2.000E+01  2.000E+04 -1.528E-01
   1   12   19     1    19    1.4636E+05 -4.2151E+03   1.5057E+05  0.000E+00  0.000E+00  0.000E+00  3.98538E+01  1.834E-01  2.000E+01  2.000E+04 -2.108E-01
   1   13   20     1    20    1.5057E+05 -3.3014E+03   1.5388E+05  0.000E+00  0.000E+00  0.000E+00  3.93793E+01  1.861E-01  2.000E+01  2.000E+04 -1.651E-01
   1   14   21     1    21    1.5388E+05 -3.0329E+03   1.5691E+05  0.000E+00  0.000E+00  0.000E+00  3.89044E+01  1.884E-01  2.000E+01  2.000E+04 -1.516E-01
   1   14   22     1    22    1.5691E+05  4.4384E+03   1.5247E+05  0.000E+00  0.000E+00  0.000E+00  3.84266E+01  1.879E-01  2.000E+01  2.000E+04  2.219E-01
   1    9   30     2     1    5.0000E+04 -2.1430E+03   5.2143E+04  0.000E+00  0.000E+00  0.000E+00  4.02423E+01  1.173E-01  2.000E+01  2.000E+04 -1.072E-01
   1    9   29     2     2    5.2143E+04 -2.4519E+03   5.4595E+04  0.000E+00  0.000E+00  0.000E+00  3.99955E+01  1.205E-01  2.000E+01  2.000E+04 -1.226E-01
   1    9   28     2     3    5.4595E+04 -2.7536E+03   5.7349E+04  0.000E+00  0.000E+00  0.000E+00  3.97490E+01  1.240E-01  2.000E+01  2.000E+04 -1.377E-01
   1    9   27     2     4    5.7349E+04 -4.8340E+03   6.2183E+04  0.000E+00  0.000E+00  0.000E+00  3.95040E+01  1.290E-01  2.000E+01  2.000E+04 -2.417E-01
   1   10   26     2     5    6.2183E+04 -3.7300E+03   6.5913E+04  0.000E+00  0.000E+00  0.000E+00  3.92594E+01  1.344E-01  2.000E+01  2.000E+04 -1.865E-01
   1   11   25     2     6    6.5913E+04 -3.3351E+03   6.9248E+04  0.000E+00  0.000E+00  0.000E+00  3.90138E+01  1.388E-01  2.000E+01  2.000E+04 -1.668E-01
   1   12   24     2     7    6.9248E+04 -3.1926E+03   7.2440E+04  0.000E+00  0.000E+00  0.000E+00  3.87678E+01  1.428E-01  2.000E+01  2.000E+04 -1.596E-01
   1   13   23     2     8    7.2440E+04 -6.0502E+02   7.3045E+04  0.000E+00  0.000E+00  0.000E+00  3.85201E+01  1.451E-01  2.000E+01  2.000E+04 -3.025E-02
   1   14   22     2     9    7.3045E+04  1.3005E+03   7.1745E+04  0.000E+00  0.000E+00  0.000E+00  3.82697E+01  1.447E-01  2.000E+01  2.000E+04  6.503E-02
   1   14   22     3     1    2.2421E+05 -9.0380E+03   2.3325E+05  0.000E+00  0.000E+00  0.000E+00  3.77528E+01  1.972E-01  2.000E+01  2.000E+04 -4.519E-01
   1   15   23     3     2    2.3325E+05 -8.9715E+02   2.3415E+05  0.000E+00  0.000E+00  0.000E+00  3.68664E+01  1.998E-01  2.000E+01  2.000E+04 -4.486E-02
   1   15   24     3     3    2.3415E+05 -5.7055E+02   2.3472E+05  0.000E+00  0.000E+00  0.000E+00  3.59779E+01  2.001E-01  2.000E+01  2.000E+04 -2.853E-02
   1   15   25     3     4    2.3472E+05 -6.0456E+02   2.3532E+05  0.000E+00  0.000E+00  0.000E+00  3.50893E+01  2.004E-01  2.000E+01  2.000E+04 -3.023E-02
   1   15   26     3     5    2.3532E+05 -7.3952E+02   2.3606E+05  0.000E+00  0.000E+00  0.000E+00  3.42008E+01  2.008E-01  2.000E+01  2.000E+04 -3.698E-02
   1   16   27     3     6    2.3606E+05 -8.4273E+02   2.3691E+05  0.000E+00  0.000E+00  0.000E+00  3.33123E+01  2.012E-01  2.000E+01  2.000E+04 -4.214E-02
   1   17   28     3     7    2.3691E+05 -3.1379E+03   2.4004E+05  0.000E+00  0.000E+00  0.000E+00  3.24244E+01  2.022E-01  2.000E+01  2.000E+04 -1.569E-01
   1   18   29     3     8    2.4004E+05 -4.8481E+03   2.4489E+05  0.000E+00  0.000E+00  0.000E+00  3.15376E+01  2.042E-01  2.000E+01  2.000E+04 -2.424E-01
   1   18   30     3     9    2.4489E+05 -4.5731E+03   2.4947E+05  0.000E+00  0.000E+00  0.000E+00  3.06510E+01  2.066E-01  2.000E+01  2.000E+04 -2.287E-01



1
              HEAD IN LAYER   1 AT END OF TIME STEP   1 IN STRESS PERIOD    2
  ---------------------------------------------------------------------------

          1      2      3      4      5      6      7      8      9     10
         11     12     13     14     15     16     17     18     19     20
         21     22     23     24     25     26     27     28     29     30
 .........................................................................
   1  ****** ****** ****** ****** ****** ****** ****** ****** ****** ******
      ****** ****** ****** ****** ****** ****** ****** ****** ****** ******
      ****** ****** ****** ****** ****** ****** ****** ****** ****** ******
   2  ****** ****** ****** ****** ****** ****** ****** ****** ****** ******
      ****** ****** ****** ****** ****** ****** ****** ****** ****** ******
      ****** ****** ****** ****** ****** ****** ****** ****** ****** ******
   3  ****** ****** ****** ****** ****** ****** ****** ****** ****** ******
      ****** ****** ****** ****** ****** ****** ****** ****** ****** ******
      ****** ****** ****** ****** ****** ****** ****** ****** ****** ******
   4  ****** ****** ****** ****** ****** ****** ****** ****** ****** ******
      ****** ****** ****** ****** ****** ****** ****** ****** ****** ******
      ****** ****** ****** ****** ****** ****** ****** ****** ****** ******
   5  ****** ****** ****** ****** ****** ****** ****** ****** ****** ******
      ****** ****** ****** ****** ****** ****** ****** ****** ****** ******
      ****** ****** ****** ****** ****** ****** ****** ****** ****** ******
   6  ****** ****** ****** ****** ****** ****** ****** ****** ****** ******
      ****** ****** ****** ****** ****** ****** ****** ****** ****** ******
      ****** ****** ****** ****** ****** ****** ****** ****** ****** ******
   7  ****** ****** ****** ****** ****** ****** ****** ****** ****** ******
      ****** ****** ****** ****** ****** ****** ****** ****** ****** ******
      ****** ****** ****** ****** ****** ****** ****** ****** ****** ******
   8  ****** ****** ****** ****** ****** ****** ****** ****** ****** ******
      ****** ****** ****** ****** ****** ****** ****** ****** ****** ******
      ****** ****** ****** ****** ****** ****** ****** ****** ****** ******
   9  ****** ****** ****** ****** ****** ****** ****** ****** ****** ******
      ****** ****** ****** ****** ****** ****** ****** ****** ****** ******
      ****** ****** ****** ****** ****** ****** ****** ****** ****** ******
  10  ****** ****** ****** ****** ****** ****** ****** ****** ****** ******
      ****** ****** ****** ****** ****** ****** ****** ****** ****** ******
      ****** ****** ****** ****** ****** ****** ****** ****** ****** ******
  11  ****** ****** ****** ****** ****** ****** ****** ****** ****** ******
      ****** ****** ****** ****** ****** ****** ****** ****** ****** ******
      ****** ****** ****** ****** ****** ****** ****** ****** ****** ******
  12  ****** ****** ****** ****** ****** ****** ****** ****** ****** ******
      ****** ****** ****** ****** ****** ****** ****** ****** ****** ******
      ****** ****** ****** ****** ****** ****** ****** ****** ****** ******
  13  ****** ****** ****** ****** ****** ****** ****** ****** ****** ******
      ****** ****** ****** ****** ****** ****** ****** ****** ****** ******
      ****** ****** ****** ****** ****** ****** ****** ****** ****** ******
  14  ****** ****** ****** ****** ****** ****** ****** ****** ****** ******
      ****** ****** ****** ****** ****** ****** ****** ****** ****** ******
      ****** ****** ****** ****** ****** ****** ****** ****** ****** ******
  15  ****** ****** ****** ****** ****** ****** ****** ****** ****** ******
      ****** ****** ****** ****** ****** ****** ****** ****** ****** ******
      ****** ****** ****** ****** ****** ****** ****** ****** ****** ******
  16  ****** ****** ****** ****** ****** ****** ****** ****** ****** ******
      ****** ****** ****** ****** ****** ****** ****** ****** ****** ******
      ****** ****** ****** ****** ****** ****** ****** ****** ****** ******
  17  ****** ****** ****** ****** ****** ****** ****** ****** ****** ******
      ****** ****** ****** ****** ****** ****** ****** ****** ****** ******
      ****** ****** ****** ****** ****** ****** ****** ****** ****** ******
  18  ****** ****** ****** ****** ****** ****** ****** ****** ****** ******
      ****** ****** ****** ****** ****** ****** ****** ****** ****** ******
      ****** ****** ****** ****** ****** ****** ****** ****** ****** ******
  19  ****** ****** ****** ****** ****** ****** ****** ****** ****** ******
      ****** ****** ****** ****** ****** ****** ****** ****** ****** ******
      ****** ****** ****** ****** ****** ****** ****** ****** ****** ******
  20  ****** ****** ****** ****** ****** ****** ****** ****** ****** ******
      ****** ****** ****** ****** ****** ****** ****** ****** ****** ******
      ****** ****** ****** ****** ****** ****** ****** ****** ****** ******
  21  ****** ****** ****** ****** ****** ****** ****** ****** ****** ******
      ****** ****** ****** ****** ****** ****** ****** ****** ****** ******
      ****** ****** ****** ****** ****** ****** ****** ****** ****** ******
  22  ****** ****** ****** ****** ****** ****** ****** ****** ****** ******
      ****** ****** ****** ****** ****** ****** ****** ****** ****** ******
      ****** ****** ****** ****** ****** ****** ****** ****** ****** ******
  23  ****** ****** ****** ****** ****** ****** ****** ****** ****** ******
      ****** ****** ****** ****** ****** ****** ****** ****** ****** ******
      ****** ****** ****** ****** ****** ****** ****** ****** ****** ******
  24  ****** ****** ****** ****** ****** ****** ****** ****** ****** ******
      ****** ****** ****** ****** ****** ****** ****** ****** ****** ******
      ****** ****** ****** ****** ****** ****** ****** ****** ****** ******
  25  ****** ****** ****** ****** ****** ****** ****** ****** ****** ******
      ****** ****** ****** ****** ****** ****** ****** ****** ****** ******
      ****** ****** ****** ****** ****** ****** ****** ****** ****** ******

 HEAD WILL BE SAVED ON UNIT   51 AT END OF TIME STEP    1, STRESS PERIOD    2
1
  VOLUMETRIC BUDGET FOR ENTIRE MODEL AT END OF TIME STEP    1, STRESS PERIOD   2
  ------------------------------------------------------------------------------

     CUMULATIVE VOLUMES      L**3       RATES FOR THIS TIME STEP      L**3/T
     ------------------                 ------------------------

           IN:                                      IN:
           ---                                      ---
             STORAGE =    22911926.6277               STORAGE =       55423.3804
       CONSTANT HEAD =     2685498.1999         CONSTANT HEAD =       16938.9929
               WELLS =           0.0000                 WELLS =           0.0000
            RECHARGE =     6292800.0000              RECHARGE =       55200.0000
      STREAM LEAKAGE =      888292.1571        STREAM LEAKAGE =        5738.8762

            TOTAL IN =    32778516.9847              TOTAL IN =      133301.2495

          OUT:                                     OUT:
          ----                                     ----
             STORAGE =           0.0000               STORAGE =           0.0000
       CONSTANT HEAD =           0.0000         CONSTANT HEAD =           0.0000
               WELLS =     5141649.0575                 WELLS =       28096.4429
            RECHARGE =           0.0000              RECHARGE =           0.0000
      STREAM LEAKAGE =    27636869.1803        STREAM LEAKAGE =      105204.8171

           TOTAL OUT =    32778518.2379             TOTAL OUT =      133301.2601

            IN - OUT =          -1.2532              IN - OUT =      -1.0563E-02

 PERCENT DISCREPANCY =          -0.00     PERCENT DISCREPANCY =          -0.00






         TIME SUMMARY AT END OF TIME STEP    1 IN STRESS PERIOD    2
                    SECONDS     MINUTES      HOURS       DAYS        YEARS
                    -----------------------------------------------------------
   TIME STEP LENGTH 7.86240E+06 1.31040E+05  2184.0      91.000     0.24914    
 STRESS PERIOD TIME 7.86240E+06 1.31040E+05  2184.0      91.000     0.24914    
         TOTAL TIME 1.58112E+07 2.63520E+05  4392.0      183.00     0.50103    
1
1
                            STRESS PERIOD NO.    3, LENGTH =   91.00000    
                            -----------------------------------------------

                              NUMBER OF TIME STEPS =     1

                               MULTIPLIER FOR DELT =     1.500

                            INITIAL TIME STEP SIZE =   91.00000    

 WELL NO.  LAYER   ROW   COL   STRESS RATE         
 --------------------------------------------------
      1      1     18     24      -1560.    
      2      1     13      7      -1528.    
      3      1     19     17      -9348.    
      4      1     11     14     -0.1566E+05

      4 WELLS

                 RECHARGE =   0.00000    

 REUSING STREAM SEGMENT DATA FROM LAST STRESS PERIOD
 
 SOLVING FOR HEAD 


     7 CALLS TO PCG ROUTINE FOR TIME STEP   1 IN STRESS PERIOD    3
    27 TOTAL ITERATIONS

 OUTPUT CONTROL FOR STRESS PERIOD    3   TIME STEP    1
    SAVE BUDGET
    SAVE HEAD FOR ALL LAYERS
    PRINT HEAD FOR ALL LAYERS
 UBDSV2 SAVING "STREAMFLOW OUT  " ON UNIT  50 AT TIME STEP  1, STRESS PERIOD   3



 STREAM LISTING     PERIOD      3   STEP        1

 LAYER ROW COL. STREAM  RCH.  FLOW INTO     FLOW TO   FLOW OUT OF   OVRLND.     DIRECT     STREAM       STREAM     STREAM     STREAM   STREAMBED  STREAMBED
                SEG.NO.  NO.  STRM. RCH.    AQUIFER    STRM. RCH.    RUNOFF     PRECIP       ET          HEAD       DEPTH      WIDTH   CONDCTNC.   GRADIENT

   1   13    1     1     1    1.0000E+05 -2.6719E+03   1.0267E+05  0.000E+00  0.000E+00  0.000E+00  4.84072E+01  1.458E-01  2.000E+01  2.000E+04 -1.336E-01
   1   13    2     1     2    1.0267E+05 -3.7401E+03   1.0641E+05  0.000E+00  0.000E+00  0.000E+00  4.79326E+01  1.486E-01  2.000E+01  2.000E+04 -1.870E-01
   1   14    3     1     3    1.0641E+05 -5.9246E+02   1.0700E+05  0.000E+00  0.000E+00  0.000E+00  4.74572E+01  1.504E-01  2.000E+01  2.000E+04 -2.962E-02
   1   15    4     1     4    1.0700E+05 -5.5913E+02   1.0756E+05  0.000E+00  0.000E+00  0.000E+00  4.69804E+01  1.509E-01  2.000E+01  2.000E+04 -2.796E-02
   1   16    5     1     5    1.0756E+05 -2.3199E+03   1.0988E+05  0.000E+00  0.000E+00  0.000E+00  4.65044E+01  1.521E-01  2.000E+01  2.000E+04 -1.160E-01
   1   16    6     1     6    1.0988E+05 -1.3324E+03   1.1122E+05  0.000E+00  0.000E+00  0.000E+00  4.60286E+01  1.536E-01  2.000E+01  2.000E+04 -6.662E-02
   1   16    7     1     7    1.1122E+05 -1.2393E+03   1.1246E+05  0.000E+00  0.000E+00  0.000E+00  4.55524E+01  1.547E-01  2.000E+01  2.000E+04 -6.197E-02
   1   16    8     1     8    1.1246E+05 -1.2300E+03   1.1369E+05  0.000E+00  0.000E+00  0.000E+00  4.50762E+01  1.557E-01  2.000E+01  2.000E+04 -6.150E-02
   1   16    9     1     9    1.1369E+05 -1.2089E+03   1.1489E+05  0.000E+00  0.000E+00  0.000E+00  4.45999E+01  1.567E-01  2.000E+01  2.000E+04 -6.044E-02
   1   16   10     1    10    1.1489E+05 -1.1470E+03   1.1604E+05  0.000E+00  0.000E+00  0.000E+00  4.41236E+01  1.577E-01  2.000E+01  2.000E+04 -5.735E-02
   1   16   11     1    11    1.1604E+05 -1.0519E+03   1.1709E+05  0.000E+00  0.000E+00  0.000E+00  4.36472E+01  1.586E-01  2.000E+01  2.000E+04 -5.259E-02
   1   16   12     1    12    1.1709E+05 -1.4245E+03   1.1852E+05  0.000E+00  0.000E+00  0.000E+00  4.31710E+01  1.596E-01  2.000E+01  2.000E+04 -7.123E-02
   1   15   13     1    13    1.1852E+05 -7.9802E+02   1.1932E+05  0.000E+00  0.000E+00  0.000E+00  4.26946E+01  1.605E-01  2.000E+01  2.000E+04 -3.990E-02
   1   14   14     1    14    1.1932E+05 -2.5486E+02   1.1957E+05  0.000E+00  0.000E+00  0.000E+00  4.22177E+01  1.609E-01  2.000E+01  2.000E+04 -1.274E-02
   1   13   15     1    15    1.1957E+05  2.9213E+02   1.1928E+05  0.000E+00  0.000E+00  0.000E+00  4.17405E+01  1.609E-01  2.000E+01  2.000E+04  1.461E-02
   1   12   16     1    16    1.1928E+05 -5.9410E+02   1.1987E+05  0.000E+00  0.000E+00  0.000E+00  4.12633E+01  1.610E-01  2.000E+01  2.000E+04 -2.971E-02
   1   12   17     1    17    1.1987E+05 -1.4882E+03   1.2136E+05  0.000E+00  0.000E+00  0.000E+00  4.07869E+01  1.619E-01  2.000E+01  2.000E+04 -7.441E-02
   1   12   18     1    18    1.2136E+05 -1.7436E+03   1.2310E+05  0.000E+00  0.000E+00  0.000E+00  4.03109E+01  1.632E-01  2.000E+01  2.000E+04 -8.718E-02
   1   12   19     1    19    1.2310E+05 -2.5912E+03   1.2570E+05  0.000E+00  0.000E+00  0.000E+00  3.98354E+01  1.649E-01  2.000E+01  2.000E+04 -1.296E-01
   1   13   20     1    20    1.2570E+05 -1.7909E+03   1.2749E+05  0.000E+00  0.000E+00  0.000E+00  3.93598E+01  1.666E-01  2.000E+01  2.000E+04 -8.954E-02
   1   14   21     1    21    1.2749E+05 -1.4548E+03   1.2894E+05  0.000E+00  0.000E+00  0.000E+00  3.88838E+01  1.679E-01  2.000E+01  2.000E+04 -7.274E-02
   1   14   22     1    22    1.2894E+05  4.7993E+03   1.2414E+05  0.000E+00  0.000E+00  0.000E+00  3.84052E+01  1.666E-01  2.000E+01  2.000E+04  2.400E-01
   1    9   30     2     1    5.0000E+04 -9.4918E+02   5.0949E+04  0.000E+00  0.000E+00  0.000E+00  4.02415E+01  1.165E-01  2.000E+01  2.000E+04 -4.746E-02
   1    9   29     2     2    5.0949E+04 -1.2597E+03   5.2209E+04  0.000E+00  0.000E+00  0.000E+00  3.99930E+01  1.180E-01  2.000E+01  2.000E+04 -6.298E-02
   1    9   28     2     3    5.2209E+04 -1.5482E+03   5.3757E+04  0.000E+00  0.000E+00  0.000E+00  3.97450E+01  1.200E-01  2.000E+01  2.000E+04 -7.741E-02
   1    9   27     2     4    5.3757E+04 -3.0982E+03   5.6855E+04  0.000E+00  0.000E+00  0.000E+00  3.94981E+01  1.231E-01  2.000E+01  2.000E+04 -1.549E-01
   1   10   26     2     5    5.6855E+04 -2.1073E+03   5.8963E+04  0.000E+00  0.000E+00  0.000E+00  3.92515E+01  1.265E-01  2.000E+01  2.000E+04 -1.054E-01
   1   11   25     2     6    5.8963E+04 -1.8215E+03   6.0784E+04  0.000E+00  0.000E+00  0.000E+00  3.90041E+01  1.291E-01  2.000E+01  2.000E+04 -9.107E-02
   1   12   24     2     7    6.0784E+04 -1.8368E+03   6.2621E+04  0.000E+00  0.000E+00  0.000E+00  3.87564E+01  1.314E-01  2.000E+01  2.000E+04 -9.184E-02
   1   13   23     2     8    6.2621E+04 -2.6862E+02   6.2889E+04  0.000E+00  0.000E+00  0.000E+00  3.85078E+01  1.328E-01  2.000E+01  2.000E+04 -1.343E-02
   1   14   22     2     9    6.2889E+04  1.8306E+03   6.1059E+04  0.000E+00  0.000E+00  0.000E+00  3.82568E+01  1.318E-01  2.000E+01  2.000E+04  9.153E-02
   1   14   22     3     1    1.8520E+05 -8.6710E+03   1.9387E+05  0.000E+00  0.000E+00  0.000E+00  3.77317E+01  1.762E-01  2.000E+01  2.000E+04 -4.335E-01
   1   15   23     3     2    1.9387E+05 -4.7732E+02   1.9435E+05  0.000E+00  0.000E+00  0.000E+00  3.68454E+01  1.787E-01  2.000E+01  2.000E+04 -2.387E-02
   1   15   24     3     3    1.9435E+05 -2.3046E+02   1.9458E+05  0.000E+00  0.000E+00  0.000E+00  3.59567E+01  1.789E-01  2.000E+01  2.000E+04 -1.152E-02
   1   15   25     3     4    1.9458E+05 -2.5076E+02   1.9483E+05  0.000E+00  0.000E+00  0.000E+00  3.50679E+01  1.790E-01  2.000E+01  2.000E+04 -1.254E-02
   1   15   26     3     5    1.9483E+05 -3.2707E+02   1.9516E+05  0.000E+00  0.000E+00  0.000E+00  3.41792E+01  1.792E-01  2.000E+01  2.000E+04 -1.635E-02
   1   16   27     3     6    1.9516E+05 -3.6219E+02   1.9552E+05  0.000E+00  0.000E+00  0.000E+00  3.32905E+01  1.794E-01  2.000E+01  2.000E+04 -1.811E-02
   1   17   28     3     7    1.9552E+05 -1.6887E+03   1.9721E+05  0.000E+00  0.000E+00  0.000E+00  3.24022E+01  1.799E-01  2.000E+01  2.000E+04 -8.443E-02
   1   18   29     3     8    1.9721E+05 -3.2599E+03   2.0047E+05  0.000E+00  0.000E+00  0.000E+00  3.15146E+01  1.813E-01  2.000E+01  2.000E+04 -1.630E-01
   1   18   30     3     9    2.0047E+05 -3.3962E+03   2.0386E+05  0.000E+00  0.000E+00  0.000E+00  3.06276E+01  1.831E-01  2.000E+01  2.000E+04 -1.698E-01



1
              HEAD IN LAYER   1 AT END OF TIME STEP   1 IN STRESS PERIOD    3
  ---------------------------------------------------------------------------

          1      2      3      4      5      6      7      8      9     10
         11     12     13     14     15     16     17     18     19     20
         21     22     23     24     25     26     27     28     29     30
 .........................................................................
   1  ****** ****** ****** ****** ****** ****** ****** ****** ****** ******
      ****** ****** ****** ****** ****** ****** ****** ****** ****** ******
      ****** ****** ****** ****** ****** ****** ****** ****** ****** ******
   2  ****** ****** ****** ****** ****** ****** ****** ****** ****** ******
      ****** ****** ****** ****** ****** ****** ****** ****** ****** ******
      ****** ****** ****** ****** ****** ****** ****** ****** ****** ******
   3  ****** ****** ****** ****** ****** ****** ****** ****** ****** ******
      ****** ****** ****** ****** ****** ****** ****** ****** ****** ******
      ****** ****** ****** ****** ****** ****** ****** ****** ****** ******
   4  ****** ****** ****** ****** ****** ****** ****** ****** ****** ******
      ****** ****** ****** ****** ****** ****** ****** ****** ****** ******
      ****** ****** ****** ****** ****** ****** ****** ****** ****** ******
   5  ****** ****** ****** ****** ****** ****** ****** ****** ****** ******
      ****** ****** ****** ****** ****** ****** ****** ****** ****** ******
      ****** ****** ****** ****** ****** ****** ****** ****** ****** ******
   6  ****** ****** ****** ****** ****** ****** ****** ****** ****** ******
      ****** ****** ****** ****** ****** ****** ****** ****** ****** ******
      ****** ****** ****** ****** ****** ****** ****** ****** ****** ******
   7  ****** ****** ****** ****** ****** ****** ****** ****** ****** ******
      ****** ****** ****** ****** ****** ****** ****** ****** ****** ******
      ****** ****** ****** ****** ****** ****** ****** ****** ****** ******
   8  ****** ****** ****** ****** ****** ****** ****** ****** ****** ******
      ****** ****** ****** ****** ****** ****** ****** ****** ****** ******
      ****** ****** ****** ****** ****** ****** ****** ****** ****** ******
   9  ****** ****** ****** ****** ****** ****** ****** ****** ****** ******
      ****** ****** ****** ****** ****** ****** ****** ****** ****** ******
      ****** ****** ****** ****** ****** ****** ****** ****** ****** ******
  10  ****** ****** ****** ****** ****** ****** ****** ****** ****** ******
      ****** ****** ****** ****** ****** ****** ****** ****** ****** ******
      ****** ****** ****** ****** ****** ****** ****** ****** ****** ******
  11  ****** ****** ****** ****** ****** ****** ****** ****** ****** ******
      ****** ****** ****** ****** ****** ****** ****** ****** ****** ******
      ****** ****** ****** ****** ****** ****** ****** ****** ****** ******
  12  ****** ****** ****** ****** ****** ****** ****** ****** ****** ******
      ****** ****** ****** ****** ****** ****** ****** ****** ****** ******
      ****** ****** ****** ****** ****** ****** ****** ****** ****** ******
  13  ****** ****** ****** ****** ****** ****** ****** ****** ****** ******
      ****** ****** ****** ****** ****** ****** ****** ****** ****** ******
      ****** ****** ****** ****** ****** ****** ****** ****** ****** ******
  14  ****** ****** ****** ****** ****** ****** ****** ****** ****** ******
      ****** ****** ****** ****** ****** ****** ****** ****** ****** ******
      ****** ****** ****** ****** ****** ****** ****** ****** ****** ******
  15  ****** ****** ****** ****** ****** ****** ****** ****** ****** ******
      ****** ****** ****** ****** ****** ****** ****** ****** ****** ******
      ****** ****** ****** ****** ****** ****** ****** ****** ****** ******
  16  ****** ****** ****** ****** ****** ****** ****** ****** ****** ******
      ****** ****** ****** ****** ****** ****** ****** ****** ****** ******
      ****** ****** ****** ****** ****** ****** ****** ****** ****** ******
  17  ****** ****** ****** ****** ****** ****** ****** ****** ****** ******
      ****** ****** ****** ****** ****** ****** ****** ****** ****** ******
      ****** ****** ****** ****** ****** ****** ****** ****** ****** ******
  18  ****** ****** ****** ****** ****** ****** ****** ****** ****** ******
      ****** ****** ****** ****** ****** ****** ****** ****** ****** ******
      ****** ****** ****** ****** ****** ****** ****** ****** ****** ******
  19  ****** ****** ****** ****** ****** ****** ****** ****** ****** ******
      ****** ****** ****** ****** ****** ****** ****** ****** ****** ******
      ****** ****** ****** ****** ****** ****** ****** ****** ****** ******
  20  ****** ****** ****** ****** ****** ****** ****** ****** ****** ******
      ****** ****** ****** ****** ****** ****** ****** ****** ****** ******
      ****** ****** ****** ****** ****** ****** ****** ****** ****** ******
  21  ****** ****** ****** ****** ****** ****** ****** ****** ****** ******
      ****** ****** ****** ****** ****** ****** ****** ****** ****** ******
      ****** ****** ****** ****** ****** ****** ****** ****** ****** ******
  22  ****** ****** ****** ****** ****** ****** ****** ****** ****** ******
      ****** ****** ****** ****** ****** ****** ****** ****** ****** ******
      ****** ****** ****** ****** ****** ****** ****** ****** ****** ******
  23  ****** ****** ****** ****** ****** ****** ****** ****** ****** ******
      ****** ****** ****** ****** ****** ****** ****** ****** ****** ******
      ****** ****** ****** ****** ****** ****** ****** ****** ****** ******
  24  ****** ****** ****** ****** ****** ****** ****** ****** ****** ******
      ****** ****** ****** ****** ****** ****** ****** ****** ****** ******
      ****** ****** ****** ****** ****** ****** ****** ****** ****** ******
  25  ****** ****** ****** ****** ****** ****** ****** ****** ****** ******
      ****** ****** ****** ****** ****** ****** ****** ****** ****** ******
      ****** ****** ****** ****** ****** ****** ****** ****** ****** ******

 HEAD WILL BE SAVED ON UNIT   51 AT END OF TIME STEP    1, STRESS PERIOD    3
1
  VOLUMETRIC BUDGET FOR ENTIRE MODEL AT END OF TIME STEP    1, STRESS PERIOD   3
  ------------------------------------------------------------------------------

     CUMULATIVE VOLUMES      L**3       RATES FOR THIS TIME STEP      L**3/T
     ------------------                 ------------------------

           IN:                                      IN:
           ---                                      ---
             STORAGE =    28045508.0771               STORAGE =       56412.9830
       CONSTANT HEAD =     5010320.7047         CONSTANT HEAD =       25547.5001
               WELLS =           0.0000                 WELLS =           0.0000
            RECHARGE =     6292800.0000              RECHARGE =           0.0000
      STREAM LEAKAGE =     1518193.0594        STREAM LEAKAGE =        6921.9879

            TOTAL IN =    40866821.8413              TOTAL IN =       88882.4710

          OUT:                                     OUT:
          ----                                     ----
             STORAGE =           0.0000               STORAGE =           0.0000
       CONSTANT HEAD =           0.0000         CONSTANT HEAD =           0.0000
               WELLS =     7698425.3648                 WELLS =       28096.4429
            RECHARGE =           0.0000              RECHARGE =           0.0000
      STREAM LEAKAGE =    33168398.4238        STREAM LEAKAGE =       60786.0356

           TOTAL OUT =    40866823.7887             TOTAL OUT =       88882.4786

            IN - OUT =          -1.9474              IN - OUT =      -7.6283E-03

 PERCENT DISCREPANCY =          -0.00     PERCENT DISCREPANCY =          -0.00






         TIME SUMMARY AT END OF TIME STEP    1 IN STRESS PERIOD    3
                    SECONDS     MINUTES      HOURS       DAYS        YEARS
                    -----------------------------------------------------------
   TIME STEP LENGTH 7.86240E+06 1.31040E+05  2184.0      91.000     0.24914    
 STRESS PERIOD TIME 7.86240E+06 1.31040E+05  2184.0      91.000     0.24914    
         TOTAL TIME 2.36736E+07 3.94560E+05  6576.0      274.00     0.75017    
1
1
                            STRESS PERIOD NO.    4, LENGTH =   91.00000    
                            -----------------------------------------------

                              NUMBER OF TIME STEPS =     1

                               MULTIPLIER FOR DELT =     1.500

                            INITIAL TIME STEP SIZE =   91.00000    

 WELL NO.  LAYER   ROW   COL   STRESS RATE         
 --------------------------------------------------
      1      1     18     24      -1560.    
      2      1     13      7      -1528.    
      3      1     19     17      -9348.    
      4      1     11     14     -0.1566E+05

      4 WELLS

                 RECHARGE =  1.000000E-03

 REUSING STREAM SEGMENT DATA FROM LAST STRESS PERIOD
 
 SOLVING FOR HEAD 


     6 CALLS TO PCG ROUTINE FOR TIME STEP   1 IN STRESS PERIOD    4
    23 TOTAL ITERATIONS

 OUTPUT CONTROL FOR STRESS PERIOD    4   TIME STEP    1
    SAVE BUDGET
    SAVE HEAD FOR ALL LAYERS
    PRINT HEAD FOR ALL LAYERS
 UBDSV2 SAVING "STREAMFLOW OUT  " ON UNIT  50 AT TIME STEP  1, STRESS PERIOD   4



 STREAM LISTING     PERIOD      4   STEP        1

 LAYER ROW COL. STREAM  RCH.  FLOW INTO     FLOW TO   FLOW OUT OF   OVRLND.     DIRECT     STREAM       STREAM     STREAM     STREAM   STREAMBED  STREAMBED
                SEG.NO.  NO.  STRM. RCH.    AQUIFER    STRM. RCH.    RUNOFF     PRECIP       ET          HEAD       DEPTH      WIDTH   CONDCTNC.   GRADIENT

   1   13    1     1     1    1.0000E+05 -2.4104E+03   1.0241E+05  0.000E+00  0.000E+00  0.000E+00  4.84071E+01  1.457E-01  2.000E+01  2.000E+04 -1.205E-01
   1   13    2     1     2    1.0241E+05 -3.4314E+03   1.0584E+05  0.000E+00  0.000E+00  0.000E+00  4.79323E+01  1.482E-01  2.000E+01  2.000E+04 -1.716E-01
   1   14    3     1     3    1.0584E+05 -5.5209E+02   1.0639E+05  0.000E+00  0.000E+00  0.000E+00  4.74567E+01  1.499E-01  2.000E+01  2.000E+04 -2.760E-02
   1   15    4     1     4    1.0639E+05 -5.0795E+02   1.0690E+05  0.000E+00  0.000E+00  0.000E+00  4.69799E+01  1.503E-01  2.000E+01  2.000E+04 -2.540E-02
   1   16    5     1     5    1.0690E+05 -1.9965E+03   1.0890E+05  0.000E+00  0.000E+00  0.000E+00  4.65037E+01  1.514E-01  2.000E+01  2.000E+04 -9.982E-02
   1   16    6     1     6    1.0890E+05 -1.1628E+03   1.1006E+05  0.000E+00  0.000E+00  0.000E+00  4.60277E+01  1.527E-01  2.000E+01  2.000E+04 -5.814E-02
   1   16    7     1     7    1.1006E+05 -1.0779E+03   1.1114E+05  0.000E+00  0.000E+00  0.000E+00  4.55514E+01  1.537E-01  2.000E+01  2.000E+04 -5.389E-02
   1   16    8     1     8    1.1114E+05 -1.0714E+03   1.1221E+05  0.000E+00  0.000E+00  0.000E+00  4.50750E+01  1.546E-01  2.000E+01  2.000E+04 -5.357E-02
   1   16    9     1     9    1.1221E+05 -1.0530E+03   1.1326E+05  0.000E+00  0.000E+00  0.000E+00  4.45986E+01  1.554E-01  2.000E+01  2.000E+04 -5.265E-02
   1   16   10     1    10    1.1326E+05 -9.9523E+02   1.1426E+05  0.000E+00  0.000E+00  0.000E+00  4.41222E+01  1.563E-01  2.000E+01  2.000E+04 -4.976E-02
   1   16   11     1    11    1.1426E+05 -9.0030E+02   1.1516E+05  0.000E+00  0.000E+00  0.000E+00  4.36457E+01  1.571E-01  2.000E+01  2.000E+04 -4.502E-02
   1   16   12     1    12    1.1516E+05 -1.1076E+03   1.1627E+05  0.000E+00  0.000E+00  0.000E+00  4.31693E+01  1.579E-01  2.000E+01  2.000E+04 -5.538E-02
   1   15   13     1    13    1.1627E+05 -4.9569E+02   1.1676E+05  0.000E+00  0.000E+00  0.000E+00  4.26926E+01  1.585E-01  2.000E+01  2.000E+04 -2.478E-02
   1   14   14     1    14    1.1676E+05  6.9957E+01   1.1669E+05  0.000E+00  0.000E+00  0.000E+00  4.22155E+01  1.587E-01  2.000E+01  2.000E+04  3.498E-03
   1   13   15     1    15    1.1669E+05  6.3716E+02   1.1606E+05  0.000E+00  0.000E+00  0.000E+00  4.17380E+01  1.584E-01  2.000E+01  2.000E+04  3.186E-02
   1   12   16     1    16    1.1606E+05 -1.6026E+02   1.1622E+05  0.000E+00  0.000E+00  0.000E+00  4.12605E+01  1.582E-01  2.000E+01  2.000E+04 -8.013E-03
   1   12   17     1    17    1.1622E+05 -1.2304E+03   1.1745E+05  0.000E+00  0.000E+00  0.000E+00  4.07838E+01  1.588E-01  2.000E+01  2.000E+04 -6.152E-02
   1   12   18     1    18    1.1745E+05 -1.5068E+03   1.1895E+05  0.000E+00  0.000E+00  0.000E+00  4.03076E+01  1.599E-01  2.000E+01  2.000E+04 -7.534E-02
   1   12   19     1    19    1.1895E+05 -2.3061E+03   1.2126E+05  0.000E+00  0.000E+00  0.000E+00  3.98319E+01  1.615E-01  2.000E+01  2.000E+04 -1.153E-01
   1   13   20     1    20    1.2126E+05 -1.5947E+03   1.2285E+05  0.000E+00  0.000E+00  0.000E+00  3.93562E+01  1.630E-01  2.000E+01  2.000E+04 -7.973E-02
   1   14   21     1    21    1.2285E+05 -1.1794E+03   1.2403E+05  0.000E+00  0.000E+00  0.000E+00  3.88800E+01  1.641E-01  2.000E+01  2.000E+04 -5.897E-02
   1   14   22     1    22    1.2403E+05  4.8384E+03   1.1919E+05  0.000E+00  0.000E+00  0.000E+00  3.84013E+01  1.627E-01  2.000E+01  2.000E+04  2.419E-01
   1    9   30     2     1    5.0000E+04 -8.6415E+02   5.0864E+04  0.000E+00  0.000E+00  0.000E+00  4.02415E+01  1.165E-01  2.000E+01  2.000E+04 -4.321E-02
   1    9   29     2     2    5.0864E+04 -1.1675E+03   5.2032E+04  0.000E+00  0.000E+00  0.000E+00  3.99929E+01  1.179E-01  2.000E+01  2.000E+04 -5.838E-02
   1    9   28     2     3    5.2032E+04 -1.4355E+03   5.3467E+04  0.000E+00  0.000E+00  0.000E+00  3.97446E+01  1.196E-01  2.000E+01  2.000E+04 -7.177E-02
   1    9   27     2     4    5.3467E+04 -2.8346E+03   5.6302E+04  0.000E+00  0.000E+00  0.000E+00  3.94975E+01  1.225E-01  2.000E+01  2.000E+04 -1.417E-01
   1   10   26     2     5    5.6302E+04 -1.9526E+03   5.8254E+04  0.000E+00  0.000E+00  0.000E+00  3.92507E+01  1.257E-01  2.000E+01  2.000E+04 -9.763E-02
   1   11   25     2     6    5.8254E+04 -1.7055E+03   5.9960E+04  0.000E+00  0.000E+00  0.000E+00  3.90031E+01  1.281E-01  2.000E+01  2.000E+04 -8.528E-02
   1   12   24     2     7    5.9960E+04 -1.7365E+03   6.1696E+04  0.000E+00  0.000E+00  0.000E+00  3.87553E+01  1.303E-01  2.000E+01  2.000E+04 -8.683E-02
   1   13   23     2     8    6.1696E+04 -2.9366E+02   6.1990E+04  0.000E+00  0.000E+00  0.000E+00  3.85066E+01  1.316E-01  2.000E+01  2.000E+04 -1.468E-02
   1   14   22     2     9    6.1990E+04  1.9239E+03   6.0066E+04  0.000E+00  0.000E+00  0.000E+00  3.82556E+01  1.306E-01  2.000E+01  2.000E+04  9.619E-02
   1   14   22     3     1    1.7926E+05 -8.6204E+03   1.8788E+05  0.000E+00  0.000E+00  0.000E+00  3.77284E+01  1.728E-01  2.000E+01  2.000E+04 -4.310E-01
   1   15   23     3     2    1.8788E+05 -4.4122E+02   1.8832E+05  0.000E+00  0.000E+00  0.000E+00  3.68420E+01  1.754E-01  2.000E+01  2.000E+04 -2.206E-02
   1   15   24     3     3    1.8832E+05 -2.2171E+02   1.8854E+05  0.000E+00  0.000E+00  0.000E+00  3.59533E+01  1.755E-01  2.000E+01  2.000E+04 -1.109E-02
   1   15   25     3     4    1.8854E+05 -2.4289E+02   1.8879E+05  0.000E+00  0.000E+00  0.000E+00  3.50646E+01  1.757E-01  2.000E+01  2.000E+04 -1.214E-02
   1   15   26     3     5    1.8879E+05 -3.3180E+02   1.8912E+05  0.000E+00  0.000E+00  0.000E+00  3.41758E+01  1.758E-01  2.000E+01  2.000E+04 -1.659E-02
   1   16   27     3     6    1.8912E+05 -3.5485E+02   1.8947E+05  0.000E+00  0.000E+00  0.000E+00  3.32871E+01  1.760E-01  2.000E+01  2.000E+04 -1.774E-02
   1   17   28     3     7    1.8947E+05 -1.6048E+03   1.9108E+05  0.000E+00  0.000E+00  0.000E+00  3.23988E+01  1.766E-01  2.000E+01  2.000E+04 -8.024E-02
   1   18   29     3     8    1.9108E+05 -3.0027E+03   1.9408E+05  0.000E+00  0.000E+00  0.000E+00  3.15112E+01  1.779E-01  2.000E+01  2.000E+04 -1.501E-01
   1   18   30     3     9    1.9408E+05 -3.2652E+03   1.9735E+05  0.000E+00  0.000E+00  0.000E+00  3.06240E+01  1.796E-01  2.000E+01  2.000E+04 -1.633E-01



1
              HEAD IN LAYER   1 AT END OF TIME STEP   1 IN STRESS PERIOD    4
  ---------------------------------------------------------------------------

          1      2      3      4      5      6      7      8      9     10
         11     12     13     14     15     16     17     18     19     20
         21     22     23     24     25     26     27     28     29     30
 .........................................................................
   1  ****** ****** ****** ****** ****** ****** ****** ****** ****** ******
      ****** ****** ****** ****** ****** ****** ****** ****** ****** ******
      ****** ****** ****** ****** ****** ****** ****** ****** ****** ******
   2  ****** ****** ****** ****** ****** ****** ****** ****** ****** ******
      ****** ****** ****** ****** ****** ****** ****** ****** ****** ******
      ****** ****** ****** ****** ****** ****** ****** ****** ****** ******
   3  ****** ****** ****** ****** ****** ****** ****** ****** ****** ******
      ****** ****** ****** ****** ****** ****** ****** ****** ****** ******
      ****** ****** ****** ****** ****** ****** ****** ****** ****** ******
   4  ****** ****** ****** ****** ****** ****** ****** ****** ****** ******
      ****** ****** ****** ****** ****** ****** ****** ****** ****** ******
      ****** ****** ****** ****** ****** ****** ****** ****** ****** ******
   5  ****** ****** ****** ****** ****** ****** ****** ****** ****** ******
      ****** ****** ****** ****** ****** ****** ****** ****** ****** ******
      ****** ****** ****** ****** ****** ****** ****** ****** ****** ******
   6  ****** ****** ****** ****** ****** ****** ****** ****** ****** ******
      ****** ****** ****** ****** ****** ****** ****** ****** ****** ******
      ****** ****** ****** ****** ****** ****** ****** ****** ****** ******
   7  ****** ****** ****** ****** ****** ****** ****** ****** ****** ******
      ****** ****** ****** ****** ****** ****** ****** ****** ****** ******
      ****** ****** ****** ****** ****** ****** ****** ****** ****** ******
   8  ****** ****** ****** ****** ****** ****** ****** ****** ****** ******
      ****** ****** ****** ****** ****** ****** ****** ****** ****** ******
      ****** ****** ****** ****** ****** ****** ****** ****** ****** ******
   9  ****** ****** ****** ****** ****** ****** ****** ****** ****** ******
      ****** ****** ****** ****** ****** ****** ****** ****** ****** ******
      ****** ****** ****** ****** ****** ****** ****** ****** ****** ******
  10  ****** ****** ****** ****** ****** ****** ****** ****** ****** ******
      ****** ****** ****** ****** ****** ****** ****** ****** ****** ******
      ****** ****** ****** ****** ****** ****** ****** ****** ****** ******
  11  ****** ****** ****** ****** ****** ****** ****** ****** ****** ******
      ****** ****** ****** ****** ****** ****** ****** ****** ****** ******
      ****** ****** ****** ****** ****** ****** ****** ****** ****** ******
  12  ****** ****** ****** ****** ****** ****** ****** ****** ****** ******
      ****** ****** ****** ****** ****** ****** ****** ****** ****** ******
      ****** ****** ****** ****** ****** ****** ****** ****** ****** ******
  13  ****** ****** ****** ****** ****** ****** ****** ****** ****** ******
      ****** ****** ****** ****** ****** ****** ****** ****** ****** ******
      ****** ****** ****** ****** ****** ****** ****** ****** ****** ******
  14  ****** ****** ****** ****** ****** ****** ****** ****** ****** ******
      ****** ****** ****** ****** ****** ****** ****** ****** ****** ******
      ****** ****** ****** ****** ****** ****** ****** ****** ****** ******
  15  ****** ****** ****** ****** ****** ****** ****** ****** ****** ******
      ****** ****** ****** ****** ****** ****** ****** ****** ****** ******
      ****** ****** ****** ****** ****** ****** ****** ****** ****** ******
  16  ****** ****** ****** ****** ****** ****** ****** ****** ****** ******
      ****** ****** ****** ****** ****** ****** ****** ****** ****** ******
      ****** ****** ****** ****** ****** ****** ****** ****** ****** ******
  17  ****** ****** ****** ****** ****** ****** ****** ****** ****** ******
      ****** ****** ****** ****** ****** ****** ****** ****** ****** ******
      ****** ****** ****** ****** ****** ****** ****** ****** ****** ******
  18  ****** ****** ****** ****** ****** ****** ****** ****** ****** ******
      ****** ****** ****** ****** ****** ****** ****** ****** ****** ******
      ****** ****** ****** ****** ****** ****** ****** ****** ****** ******
  19  ****** ****** ****** ****** ****** ****** ****** ****** ****** ******
      ****** ****** ****** ****** ****** ****** ****** ****** ****** ******
      ****** ****** ****** ****** ****** ****** ****** ****** ****** ******
  20  ****** ****** ****** ****** ****** ****** ****** ****** ****** ******
      ****** ****** ****** ****** ****** ****** ****** ****** ****** ******
      ****** ****** ****** ****** ****** ****** ****** ****** ****** ******
  21  ****** ****** ****** ****** ****** ****** ****** ****** ****** ******
      ****** ****** ****** ****** ****** ****** ****** ****** ****** ******
      ****** ****** ****** ****** ****** ****** ****** ****** ****** ******
  22  ****** ****** ****** ****** ****** ****** ****** ****** ****** ******
      ****** ****** ****** ****** ****** ****** ****** ****** ****** ******
      ****** ****** ****** ****** ****** ****** ****** ****** ****** ******
  23  ****** ****** ****** ****** ****** ****** ****** ****** ****** ******
      ****** ****** ****** ****** ****** ****** ****** ****** ****** ******
      ****** ****** ****** ****** ****** ****** ****** ****** ****** ******
  24  ****** ****** ****** ****** ****** ****** ****** ****** ****** ******
      ****** ****** ****** ****** ****** ****** ****** ****** ****** ******
      ****** ****** ****** ****** ****** ****** ****** ****** ****** ******
  25  ****** ****** ****** ****** ****** ****** ****** ****** ****** ******
      ****** ****** ****** ****** ****** ****** ****** ****** ****** ******
      ****** ****** ****** ****** ****** ****** ****** ****** ****** ******

 HEAD WILL BE SAVED ON UNIT   51 AT END OF TIME STEP    1, STRESS PERIOD    4
1
  VOLUMETRIC BUDGET FOR ENTIRE MODEL AT END OF TIME STEP    1, STRESS PERIOD   4
  ------------------------------------------------------------------------------

     CUMULATIVE VOLUMES      L**3       RATES FOR THIS TIME STEP      L**3/T
     ------------------                 ------------------------

           IN:                                      IN:
           ---                                      ---
             STORAGE =    29831656.8415               STORAGE =       19628.0084
       CONSTANT HEAD =     7579070.3231         CONSTANT HEAD =       28228.0178
               WELLS =           0.0000                 WELLS =           0.0000
            RECHARGE =     8804400.0000              RECHARGE =       27600.0000
      STREAM LEAKAGE =     2197904.8769        STREAM LEAKAGE =        7469.3606

            TOTAL IN =    48413032.0416              TOTAL IN =       82925.3868

          OUT:                                     OUT:
          ----                                     ----
             STORAGE =        1217.1769               STORAGE =          13.3756
       CONSTANT HEAD =           0.0000         CONSTANT HEAD =           0.0000
               WELLS =    10255201.6721                 WELLS =       28096.4429
            RECHARGE =           0.0000              RECHARGE =           0.0000
      STREAM LEAKAGE =    38156615.2241        STREAM LEAKAGE =       54815.5692

           TOTAL OUT =    48413034.0731             TOTAL OUT =       82925.3877

            IN - OUT =          -2.0315              IN - OUT =      -9.2474E-04

 PERCENT DISCREPANCY =          -0.00     PERCENT DISCREPANCY =          -0.00






         TIME SUMMARY AT END OF TIME STEP    1 IN STRESS PERIOD    4
                    SECONDS     MINUTES      HOURS       DAYS        YEARS
                    -----------------------------------------------------------
   TIME STEP LENGTH 7.86240E+06 1.31040E+05  2184.0      91.000     0.24914    
 STRESS PERIOD TIME 7.86240E+06 1.31040E+05  2184.0      91.000     0.24914    
         TOTAL TIME 3.15360E+07 5.25600E+05  8760.0      365.00     0.99932    
1
1
                            STRESS PERIOD NO.    5, LENGTH =   92.00000    
                            -----------------------------------------------

                              NUMBER OF TIME STEPS =     1

                               MULTIPLIER FOR DELT =     1.500

                            INITIAL TIME STEP SIZE =   92.00000    

 WELL NO.  LAYER   ROW   COL   STRESS RATE         
 --------------------------------------------------
      1      1     18     24      -1560.    
      2      1     13      7      -1528.    
      3      1     19     17      -9348.    
      4      1     11     14     -0.1566E+05

      4 WELLS

                 RECHARGE =  5.000000E-04

 REUSING STREAM SEGMENT DATA FROM LAST STRESS PERIOD
 
 SOLVING FOR HEAD 


     7 CALLS TO PCG ROUTINE FOR TIME STEP   1 IN STRESS PERIOD    5
    26 TOTAL ITERATIONS

 OUTPUT CONTROL FOR STRESS PERIOD    5   TIME STEP    1
    SAVE BUDGET
    SAVE HEAD FOR ALL LAYERS
    PRINT HEAD FOR ALL LAYERS
 UBDSV2 SAVING "STREAMFLOW OUT  " ON UNIT  50 AT TIME STEP  1, STRESS PERIOD   5



 STREAM LISTING     PERIOD      5   STEP        1

 LAYER ROW COL. STREAM  RCH.  FLOW INTO     FLOW TO   FLOW OUT OF   OVRLND.     DIRECT     STREAM       STREAM     STREAM     STREAM   STREAMBED  STREAMBED
                SEG.NO.  NO.  STRM. RCH.    AQUIFER    STRM. RCH.    RUNOFF     PRECIP       ET          HEAD       DEPTH      WIDTH   CONDCTNC.   GRADIENT

   1   13    1     1     1    1.0000E+05 -1.9746E+03   1.0197E+05  0.000E+00  0.000E+00  0.000E+00  4.84069E+01  1.455E-01  2.000E+01  2.000E+04 -9.873E-02
   1   13    2     1     2    1.0197E+05 -2.9350E+03   1.0491E+05  0.000E+00  0.000E+00  0.000E+00  4.79317E+01  1.476E-01  2.000E+01  2.000E+04 -1.468E-01
   1   14    3     1     3    1.0491E+05 -4.2192E+02   1.0533E+05  0.000E+00  0.000E+00  0.000E+00  4.74559E+01  1.491E-01  2.000E+01  2.000E+04 -2.110E-02
   1   15    4     1     4    1.0533E+05 -3.7102E+02   1.0570E+05  0.000E+00  0.000E+00  0.000E+00  4.69789E+01  1.494E-01  2.000E+01  2.000E+04 -1.855E-02
   1   16    5     1     5    1.0570E+05 -1.5529E+03   1.0726E+05  0.000E+00  0.000E+00  0.000E+00  4.65025E+01  1.502E-01  2.000E+01  2.000E+04 -7.765E-02
   1   16    6     1     6    1.0726E+05 -8.9838E+02   1.0815E+05  0.000E+00  0.000E+00  0.000E+00  4.60262E+01  1.512E-01  2.000E+01  2.000E+04 -4.492E-02
   1   16    7     1     7    1.0815E+05 -8.2235E+02   1.0898E+05  0.000E+00  0.000E+00  0.000E+00  4.55497E+01  1.520E-01  2.000E+01  2.000E+04 -4.112E-02
   1   16    8     1     8    1.0898E+05 -8.1890E+02   1.0980E+05  0.000E+00  0.000E+00  0.000E+00  4.50731E+01  1.527E-01  2.000E+01  2.000E+04 -4.094E-02
   1   16    9     1     9    1.0980E+05 -8.0375E+02   1.1060E+05  0.000E+00  0.000E+00  0.000E+00  4.45965E+01  1.533E-01  2.000E+01  2.000E+04 -4.019E-02
   1   16   10     1    10    1.1060E+05 -7.5027E+02   1.1135E+05  0.000E+00  0.000E+00  0.000E+00  4.41199E+01  1.540E-01  2.000E+01  2.000E+04 -3.751E-02
   1   16   11     1    11    1.1135E+05 -6.5581E+02   1.1200E+05  0.000E+00  0.000E+00  0.000E+00  4.36432E+01  1.546E-01  2.000E+01  2.000E+04 -3.279E-02
   1   16   12     1    12    1.1200E+05 -6.6757E+02   1.1267E+05  0.000E+00  0.000E+00  0.000E+00  4.31665E+01  1.551E-01  2.000E+01  2.000E+04 -3.338E-02
   1   15   13     1    13    1.1267E+05 -3.0688E+01   1.1270E+05  0.000E+00  0.000E+00  0.000E+00  4.26895E+01  1.554E-01  2.000E+01  2.000E+04 -1.534E-03
   1   14   14     1    14    1.1270E+05  5.6313E+02   1.1214E+05  0.000E+00  0.000E+00  0.000E+00  4.22120E+01  1.552E-01  2.000E+01  2.000E+04  2.816E-02
   1   13   15     1    15    1.1214E+05  1.1458E+03   1.1099E+05  0.000E+00  0.000E+00  0.000E+00  4.17340E+01  1.545E-01  2.000E+01  2.000E+04  5.729E-02
   1   12   16     1    16    1.1099E+05  3.9180E+02   1.1060E+05  0.000E+00  0.000E+00  0.000E+00  4.12561E+01  1.538E-01  2.000E+01  2.000E+04  1.959E-02
   1   12   17     1    17    1.1060E+05 -8.6258E+02   1.1147E+05  0.000E+00  0.000E+00  0.000E+00  4.07790E+01  1.540E-01  2.000E+01  2.000E+04 -4.313E-02
   1   12   18     1    18    1.1147E+05 -1.1583E+03   1.1262E+05  0.000E+00  0.000E+00  0.000E+00  4.03026E+01  1.549E-01  2.000E+01  2.000E+04 -5.792E-02
   1   12   19     1    19    1.1262E+05 -1.8876E+03   1.1451E+05  0.000E+00  0.000E+00  0.000E+00  3.98266E+01  1.561E-01  2.000E+01  2.000E+04 -9.438E-02
   1   13   20     1    20    1.1451E+05 -1.2261E+03   1.1574E+05  0.000E+00  0.000E+00  0.000E+00  3.93506E+01  1.574E-01  2.000E+01  2.000E+04 -6.130E-02
   1   14   21     1    21    1.1574E+05 -7.7781E+02   1.1651E+05  0.000E+00  0.000E+00  0.000E+00  3.88741E+01  1.582E-01  2.000E+01  2.000E+04 -3.889E-02
   1   14   22     1    22    1.1651E+05  4.9177E+03   1.1160E+05  0.000E+00  0.000E+00  0.000E+00  3.83952E+01  1.565E-01  2.000E+01  2.000E+04  2.459E-01
   1    9   30     2     1    5.0000E+04 -6.3432E+02   5.0634E+04  0.000E+00  0.000E+00  0.000E+00  4.02413E+01  1.163E-01  2.000E+01  2.000E+04 -3.172E-02
   1    9   29     2     2    5.0634E+04 -9.3408E+02   5.1568E+04  0.000E+00  0.000E+00  0.000E+00  3.99924E+01  1.174E-01  2.000E+01  2.000E+04 -4.670E-02
   1    9   28     2     3    5.1568E+04 -1.1900E+03   5.2758E+04  0.000E+00  0.000E+00  0.000E+00  3.97438E+01  1.188E-01  2.000E+01  2.000E+04 -5.950E-02
   1    9   27     2     4    5.2758E+04 -2.4467E+03   5.5205E+04  0.000E+00  0.000E+00  0.000E+00  3.94963E+01  1.213E-01  2.000E+01  2.000E+04 -1.223E-01
   1   10   26     2     5    5.5205E+04 -1.6130E+03   5.6818E+04  0.000E+00  0.000E+00  0.000E+00  3.92490E+01  1.240E-01  2.000E+01  2.000E+04 -8.065E-02
   1   11   25     2     6    5.6818E+04 -1.3931E+03   5.8211E+04  0.000E+00  0.000E+00  0.000E+00  3.90010E+01  1.260E-01  2.000E+01  2.000E+04 -6.965E-02
   1   12   24     2     7    5.8211E+04 -1.4502E+03   5.9661E+04  0.000E+00  0.000E+00  0.000E+00  3.87529E+01  1.279E-01  2.000E+01  2.000E+04 -7.251E-02
   1   13   23     2     8    5.9661E+04 -2.2476E+02   5.9886E+04  0.000E+00  0.000E+00  0.000E+00  3.85040E+01  1.290E-01  2.000E+01  2.000E+04 -1.124E-02
   1   14   22     2     9    5.9886E+04  2.0698E+03   5.7816E+04  0.000E+00  0.000E+00  0.000E+00  3.82528E+01  1.278E-01  2.000E+01  2.000E+04  1.035E-01
   1   14   22     3     1    1.6941E+05 -8.5312E+03   1.7794E+05  0.000E+00  0.000E+00  0.000E+00  3.77227E+01  1.672E-01  2.000E+01  2.000E+04 -4.266E-01
   1   15   23     3     2    1.7794E+05 -3.3602E+02   1.7828E+05  0.000E+00  0.000E+00  0.000E+00  3.68364E+01  1.697E-01  2.000E+01  2.000E+04 -1.680E-02
   1   15   24     3     3    1.7828E+05 -1.4535E+02   1.7843E+05  0.000E+00  0.000E+00  0.000E+00  3.59476E+01  1.699E-01  2.000E+01  2.000E+04 -7.267E-03
   1   15   25     3     4    1.7843E+05 -1.6761E+02   1.7859E+05  0.000E+00  0.000E+00  0.000E+00  3.50588E+01  1.699E-01  2.000E+01  2.000E+04 -8.381E-03
   1   15   26     3     5    1.7859E+05 -2.5715E+02   1.7885E+05  0.000E+00  0.000E+00  0.000E+00  3.41701E+01  1.701E-01  2.000E+01  2.000E+04 -1.286E-02
   1   16   27     3     6    1.7885E+05 -2.5981E+02   1.7911E+05  0.000E+00  0.000E+00  0.000E+00  3.32813E+01  1.702E-01  2.000E+01  2.000E+04 -1.299E-02
   1   17   28     3     7    1.7911E+05 -1.3235E+03   1.8043E+05  0.000E+00  0.000E+00  0.000E+00  3.23929E+01  1.707E-01  2.000E+01  2.000E+04 -6.618E-02
   1   18   29     3     8    1.8043E+05 -2.6015E+03   1.8304E+05  0.000E+00  0.000E+00  0.000E+00  3.15051E+01  1.718E-01  2.000E+01  2.000E+04 -1.301E-01
   1   18   30     3     9    1.8304E+05 -2.9916E+03   1.8603E+05  0.000E+00  0.000E+00  0.000E+00  3.06178E+01  1.734E-01  2.000E+01  2.000E+04 -1.496E-01



1
              HEAD IN LAYER   1 AT END OF TIME STEP   1 IN STRESS PERIOD    5
  ---------------------------------------------------------------------------

          1      2      3      4      5      6      7      8      9     10
         11     12     13     14     15     16     17     18     19     20
         21     22     23     24     25     26     27     28     29     30
 .........................................................................
   1  ****** ****** ****** ****** ****** ****** ****** ****** ****** ******
      ****** ****** ****** ****** ****** ****** ****** ****** ****** ******
      ****** ****** ****** ****** ****** ****** ****** ****** ****** ******
   2  ****** ****** ****** ****** ****** ****** ****** ****** ****** ******
      ****** ****** ****** ****** ****** ****** ****** ****** ****** ******
      ****** ****** ****** ****** ****** ****** ****** ****** ****** ******
   3  ****** ****** ****** ****** ****** ****** ****** ****** ****** ******
      ****** ****** ****** ****** ****** ****** ****** ****** ****** ******
      ****** ****** ****** ****** ****** ****** ****** ****** ****** ******
   4  ****** ****** ****** ****** ****** ****** ****** ****** ****** ******
      ****** ****** ****** ****** ****** ****** ****** ****** ****** ******
      ****** ****** ****** ****** ****** ****** ****** ****** ****** ******
   5  ****** ****** ****** ****** ****** ****** ****** ****** ****** ******
      ****** ****** ****** ****** ****** ****** ****** ****** ****** ******
      ****** ****** ****** ****** ****** ****** ****** ****** ****** ******
   6  ****** ****** ****** ****** ****** ****** ****** ****** ****** ******
      ****** ****** ****** ****** ****** ****** ****** ****** ****** ******
      ****** ****** ****** ****** ****** ****** ****** ****** ****** ******
   7  ****** ****** ****** ****** ****** ****** ****** ****** ****** ******
      ****** ****** ****** ****** ****** ****** ****** ****** ****** ******
      ****** ****** ****** ****** ****** ****** ****** ****** ****** ******
   8  ****** ****** ****** ****** ****** ****** ****** ****** ****** ******
      ****** ****** ****** ****** ****** ****** ****** ****** ****** ******
      ****** ****** ****** ****** ****** ****** ****** ****** ****** ******
   9  ****** ****** ****** ****** ****** ****** ****** ****** ****** ******
      ****** ****** ****** ****** ****** ****** ****** ****** ****** ******
      ****** ****** ****** ****** ****** ****** ****** ****** ****** ******
  10  ****** ****** ****** ****** ****** ****** ****** ****** ****** ******
      ****** ****** ****** ****** ****** ****** ****** ****** ****** ******
      ****** ****** ****** ****** ****** ****** ****** ****** ****** ******
  11  ****** ****** ****** ****** ****** ****** ****** ****** ****** ******
      ****** ****** ****** ****** ****** ****** ****** ****** ****** ******
      ****** ****** ****** ****** ****** ****** ****** ****** ****** ******
  12  ****** ****** ****** ****** ****** ****** ****** ****** ****** ******
      ****** ****** ****** ****** ****** ****** ****** ****** ****** ******
      ****** ****** ****** ****** ****** ****** ****** ****** ****** ******
  13  ****** ****** ****** ****** ****** ****** ****** ****** ****** ******
      ****** ****** ****** ****** ****** ****** ****** ****** ****** ******
      ****** ****** ****** ****** ****** ****** ****** ****** ****** ******
  14  ****** ****** ****** ****** ****** ****** ****** ****** ****** ******
      ****** ****** ****** ****** ****** ****** ****** ****** ****** ******
      ****** ****** ****** ****** ****** ****** ****** ****** ****** ******
  15  ****** ****** ****** ****** ****** ****** ****** ****** ****** ******
      ****** ****** ****** ****** ****** ****** ****** ****** ****** ******
      ****** ****** ****** ****** ****** ****** ****** ****** ****** ******
  16  ****** ****** ****** ****** ****** ****** ****** ****** ****** ******
      ****** ****** ****** ****** ****** ****** ****** ****** ****** ******
      ****** ****** ****** ****** ****** ****** ****** ****** ****** ******
  17  ****** ****** ****** ****** ****** ****** ****** ****** ****** ******
      ****** ****** ****** ****** ****** ****** ****** ****** ****** ******
      ****** ****** ****** ****** ****** ****** ****** ****** ****** ******
  18  ****** ****** ****** ****** ****** ****** ****** ****** ****** ******
      ****** ****** ****** ****** ****** ****** ****** ****** ****** ******
      ****** ****** ****** ****** ****** ****** ****** ****** ****** ******
  19  ****** ****** ****** ****** ****** ****** ****** ****** ****** ******
      ****** ****** ****** ****** ****** ****** ****** ****** ****** ******
      ****** ****** ****** ****** ****** ****** ****** ****** ****** ******
  20  ****** ****** ****** ****** ****** ****** ****** ****** ****** ******
      ****** ****** ****** ****** ****** ****** ****** ****** ****** ******
      ****** ****** ****** ****** ****** ****** ****** ****** ****** ******
  21  ****** ****** ****** ****** ****** ****** ****** ****** ****** ******
      ****** ****** ****** ****** ****** ****** ****** ****** ****** ******
      ****** ****** ****** ****** ****** ****** ****** ****** ****** ******
  22  ****** ****** ****** ****** ****** ****** ****** ****** ****** ******
      ****** ****** ****** ****** ****** ****** ****** ****** ****** ******
      ****** ****** ****** ****** ****** ****** ****** ****** ****** ******
  23  ****** ****** ****** ****** ****** ****** ****** ****** ****** ******
      ****** ****** ****** ****** ****** ****** ****** ****** ****** ******
      ****** ****** ****** ****** ****** ****** ****** ****** ****** ******
  24  ****** ****** ****** ****** ****** ****** ****** ****** ****** ******
      ****** ****** ****** ****** ****** ****** ****** ****** ****** ******
      ****** ****** ****** ****** ****** ****** ****** ****** ****** ******
  25  ****** ****** ****** ****** ****** ****** ****** ****** ****** ******
      ****** ****** ****** ****** ****** ****** ****** ****** ****** ******
      ****** ****** ****** ****** ****** ****** ****** ****** ****** ******

 HEAD WILL BE SAVED ON UNIT   51 AT END OF TIME STEP    1, STRESS PERIOD    5
1
  VOLUMETRIC BUDGET FOR ENTIRE MODEL AT END OF TIME STEP    1, STRESS PERIOD   5
  ------------------------------------------------------------------------------

     CUMULATIVE VOLUMES      L**3       RATES FOR THIS TIME STEP      L**3/T
     ------------------                 ------------------------

           IN:                                      IN:
           ---                                      ---
             STORAGE =    31589076.9708               STORAGE =       19102.3927
       CONSTANT HEAD =    10451427.6329         CONSTANT HEAD =       31221.2751
               WELLS =           0.0000                 WELLS =           0.0000
            RECHARGE =    10074000.0000              RECHARGE =       13800.0000
      STREAM LEAKAGE =     3034018.8779        STREAM LEAKAGE =        9088.1957

            TOTAL IN =    55148523.4817              TOTAL IN =       73211.8635

          OUT:                                     OUT:
          ----                                     ----
             STORAGE =        1217.1769               STORAGE =           0.0000
       CONSTANT HEAD =           0.0000         CONSTANT HEAD =           0.0000
               WELLS =    12840074.4224                 WELLS =       28096.4429
            RECHARGE =           0.0000              RECHARGE =           0.0000
      STREAM LEAKAGE =    42307234.2215        STREAM LEAKAGE =       45115.4239

           TOTAL OUT =    55148525.8208             TOTAL OUT =       73211.8668

            IN - OUT =          -2.3391              IN - OUT =      -3.3437E-03

 PERCENT DISCREPANCY =          -0.00     PERCENT DISCREPANCY =          -0.00






         TIME SUMMARY AT END OF TIME STEP    1 IN STRESS PERIOD    5
                    SECONDS     MINUTES      HOURS       DAYS        YEARS
                    -----------------------------------------------------------
   TIME STEP LENGTH 7.94880E+06 1.32480E+05  2208.0      92.000     0.25188    
 STRESS PERIOD TIME 7.94880E+06 1.32480E+05  2208.0      92.000     0.25188    
         TOTAL TIME 3.94848E+07 6.58080E+05  10968.      457.00      1.2512    
1
1
                            STRESS PERIOD NO.    6, LENGTH =   91.00000    
                            -----------------------------------------------

                              NUMBER OF TIME STEPS =     1

                               MULTIPLIER FOR DELT =     1.500

                            INITIAL TIME STEP SIZE =   91.00000    

 WELL NO.  LAYER   ROW   COL   STRESS RATE         
 --------------------------------------------------
      1      1     18     24      -1560.    
      2      1     13      7      -1528.    
      3      1     19     17      -9348.    
      4      1     11     14     -0.1566E+05

      4 WELLS

                 RECHARGE =  2.000000E-03

 REUSING STREAM SEGMENT DATA FROM LAST STRESS PERIOD
 
 SOLVING FOR HEAD 


     7 CALLS TO PCG ROUTINE FOR TIME STEP   1 IN STRESS PERIOD    6
    26 TOTAL ITERATIONS

 OUTPUT CONTROL FOR STRESS PERIOD    6   TIME STEP    1
    SAVE BUDGET
    SAVE HEAD FOR ALL LAYERS
    PRINT HEAD FOR ALL LAYERS
 UBDSV2 SAVING "STREAMFLOW OUT  " ON UNIT  50 AT TIME STEP  1, STRESS PERIOD   6



 STREAM LISTING     PERIOD      6   STEP        1

 LAYER ROW COL. STREAM  RCH.  FLOW INTO     FLOW TO   FLOW OUT OF   OVRLND.     DIRECT     STREAM       STREAM     STREAM     STREAM   STREAMBED  STREAMBED
                SEG.NO.  NO.  STRM. RCH.    AQUIFER    STRM. RCH.    RUNOFF     PRECIP       ET          HEAD       DEPTH      WIDTH   CONDCTNC.   GRADIENT

   1   13    1     1     1    1.0000E+05 -2.2740E+03   1.0227E+05  0.000E+00  0.000E+00  0.000E+00  4.84070E+01  1.456E-01  2.000E+01  2.000E+04 -1.137E-01
   1   13    2     1     2    1.0227E+05 -3.2600E+03   1.0553E+05  0.000E+00  0.000E+00  0.000E+00  4.79321E+01  1.480E-01  2.000E+01  2.000E+04 -1.630E-01
   1   14    3     1     3    1.0553E+05 -5.7163E+02   1.0611E+05  0.000E+00  0.000E+00  0.000E+00  4.74565E+01  1.496E-01  2.000E+01  2.000E+04 -2.858E-02
   1   15    4     1     4    1.0611E+05 -5.3226E+02   1.0664E+05  0.000E+00  0.000E+00  0.000E+00  4.69797E+01  1.501E-01  2.000E+01  2.000E+04 -2.661E-02
   1   16    5     1     5    1.0664E+05 -2.0419E+03   1.0868E+05  0.000E+00  0.000E+00  0.000E+00  4.65035E+01  1.512E-01  2.000E+01  2.000E+04 -1.021E-01
   1   16    6     1     6    1.0868E+05 -1.1825E+03   1.0986E+05  0.000E+00  0.000E+00  0.000E+00  4.60276E+01  1.526E-01  2.000E+01  2.000E+04 -5.912E-02
   1   16    7     1     7    1.0986E+05 -1.0904E+03   1.1095E+05  0.000E+00  0.000E+00  0.000E+00  4.55512E+01  1.535E-01  2.000E+01  2.000E+04 -5.452E-02
   1   16    8     1     8    1.1095E+05 -1.0821E+03   1.1203E+05  0.000E+00  0.000E+00  0.000E+00  4.50749E+01  1.544E-01  2.000E+01  2.000E+04 -5.411E-02
   1   16    9     1     9    1.1203E+05 -1.0668E+03   1.1310E+05  0.000E+00  0.000E+00  0.000E+00  4.45985E+01  1.553E-01  2.000E+01  2.000E+04 -5.334E-02
   1   16   10     1    10    1.1310E+05 -1.0157E+03   1.1412E+05  0.000E+00  0.000E+00  0.000E+00  4.41221E+01  1.562E-01  2.000E+01  2.000E+04 -5.078E-02
   1   16   11     1    11    1.1412E+05 -9.2530E+02   1.1504E+05  0.000E+00  0.000E+00  0.000E+00  4.36456E+01  1.570E-01  2.000E+01  2.000E+04 -4.626E-02
   1   16   12     1    12    1.1504E+05 -1.1005E+03   1.1614E+05  0.000E+00  0.000E+00  0.000E+00  4.31692E+01  1.578E-01  2.000E+01  2.000E+04 -5.503E-02
   1   15   13     1    13    1.1614E+05 -4.7123E+02   1.1661E+05  0.000E+00  0.000E+00  0.000E+00  4.26925E+01  1.584E-01  2.000E+01  2.000E+04 -2.356E-02
   1   14   14     1    14    1.1661E+05  1.2831E+02   1.1649E+05  0.000E+00  0.000E+00  0.000E+00  4.22154E+01  1.586E-01  2.000E+01  2.000E+04  6.415E-03
   1   13   15     1    15    1.1649E+05  7.2982E+02   1.1576E+05  0.000E+00  0.000E+00  0.000E+00  4.17378E+01  1.582E-01  2.000E+01  2.000E+04  3.649E-02
   1   12   16     1    16    1.1576E+05  2.1472E+01   1.1573E+05  0.000E+00  0.000E+00  0.000E+00  4.12602E+01  1.579E-01  2.000E+01  2.000E+04  1.074E-03
   1   12   17     1    17    1.1573E+05 -1.1685E+03   1.1690E+05  0.000E+00  0.000E+00  0.000E+00  4.07834E+01  1.584E-01  2.000E+01  2.000E+04 -5.842E-02
   1   12   18     1    18    1.1690E+05 -1.4693E+03   1.1837E+05  0.000E+00  0.000E+00  0.000E+00  4.03072E+01  1.595E-01  2.000E+01  2.000E+04 -7.347E-02
   1   12   19     1    19    1.1837E+05 -2.2762E+03   1.2065E+05  0.000E+00  0.000E+00  0.000E+00  3.98314E+01  1.610E-01  2.000E+01  2.000E+04 -1.138E-01
   1   13   20     1    20    1.2065E+05 -1.6413E+03   1.2229E+05  0.000E+00  0.000E+00  0.000E+00  3.93557E+01  1.626E-01  2.000E+01  2.000E+04 -8.206E-02
   1   14   21     1    21    1.2229E+05 -1.1784E+03   1.2347E+05  0.000E+00  0.000E+00  0.000E+00  3.88796E+01  1.637E-01  2.000E+01  2.000E+04 -5.892E-02
   1   14   22     1    22    1.2347E+05  4.8142E+03   1.1865E+05  0.000E+00  0.000E+00  0.000E+00  3.84009E+01  1.622E-01  2.000E+01  2.000E+04  2.407E-01
   1    9   30     2     1    5.0000E+04 -9.9874E+02   5.0999E+04  0.000E+00  0.000E+00  0.000E+00  4.02416E+01  1.166E-01  2.000E+01  2.000E+04 -4.994E-02
   1    9   29     2     2    5.0999E+04 -1.2941E+03   5.2293E+04  0.000E+00  0.000E+00  0.000E+00  3.99931E+01  1.181E-01  2.000E+01  2.000E+04 -6.470E-02
   1    9   28     2     3    5.2293E+04 -1.5431E+03   5.3836E+04  0.000E+00  0.000E+00  0.000E+00  3.97451E+01  1.201E-01  2.000E+01  2.000E+04 -7.716E-02
   1    9   27     2     4    5.3836E+04 -2.8927E+03   5.6729E+04  0.000E+00  0.000E+00  0.000E+00  3.94981E+01  1.231E-01  2.000E+01  2.000E+04 -1.446E-01
   1   10   26     2     5    5.6729E+04 -2.0827E+03   5.8811E+04  0.000E+00  0.000E+00  0.000E+00  3.92514E+01  1.264E-01  2.000E+01  2.000E+04 -1.041E-01
   1   11   25     2     6    5.8811E+04 -1.8477E+03   6.0659E+04  0.000E+00  0.000E+00  0.000E+00  3.90039E+01  1.289E-01  2.000E+01  2.000E+04 -9.239E-02
   1   12   24     2     7    6.0659E+04 -1.8597E+03   6.2519E+04  0.000E+00  0.000E+00  0.000E+00  3.87563E+01  1.313E-01  2.000E+01  2.000E+04 -9.298E-02
   1   13   23     2     8    6.2519E+04 -3.6251E+02   6.2881E+04  0.000E+00  0.000E+00  0.000E+00  3.85077E+01  1.327E-01  2.000E+01  2.000E+04 -1.813E-02
   1   14   22     2     9    6.2881E+04  1.9313E+03   6.0950E+04  0.000E+00  0.000E+00  0.000E+00  3.82567E+01  1.317E-01  2.000E+01  2.000E+04  9.657E-02
   1   14   22     3     1    1.7960E+05 -8.6317E+03   1.8824E+05  0.000E+00  0.000E+00  0.000E+00  3.77286E+01  1.730E-01  2.000E+01  2.000E+04 -4.316E-01
   1   15   23     3     2    1.8824E+05 -4.7035E+02   1.8871E+05  0.000E+00  0.000E+00  0.000E+00  3.68422E+01  1.756E-01  2.000E+01  2.000E+04 -2.352E-02
   1   15   24     3     3    1.8871E+05 -2.6545E+02   1.8897E+05  0.000E+00  0.000E+00  0.000E+00  3.59536E+01  1.758E-01  2.000E+01  2.000E+04 -1.327E-02
   1   15   25     3     4    1.8897E+05 -2.9238E+02   1.8926E+05  0.000E+00  0.000E+00  0.000E+00  3.50648E+01  1.759E-01  2.000E+01  2.000E+04 -1.462E-02
   1   15   26     3     5    1.8926E+05 -4.0750E+02   1.8967E+05  0.000E+00  0.000E+00  0.000E+00  3.41761E+01  1.761E-01  2.000E+01  2.000E+04 -2.037E-02
   1   16   27     3     6    1.8967E+05 -4.2664E+02   1.9010E+05  0.000E+00  0.000E+00  0.000E+00  3.32875E+01  1.764E-01  2.000E+01  2.000E+04 -2.133E-02
   1   17   28     3     7    1.9010E+05 -1.7808E+03   1.9188E+05  0.000E+00  0.000E+00  0.000E+00  3.23992E+01  1.770E-01  2.000E+01  2.000E+04 -8.904E-02
   1   18   29     3     8    1.9188E+05 -3.0300E+03   1.9491E+05  0.000E+00  0.000E+00  0.000E+00  3.15116E+01  1.783E-01  2.000E+01  2.000E+04 -1.515E-01
   1   18   30     3     9    1.9491E+05 -3.3413E+03   1.9825E+05  0.000E+00  0.000E+00  0.000E+00  3.06245E+01  1.801E-01  2.000E+01  2.000E+04 -1.671E-01



1
              HEAD IN LAYER   1 AT END OF TIME STEP   1 IN STRESS PERIOD    6
  ---------------------------------------------------------------------------

          1      2      3      4      5      6      7      8      9     10
         11     12     13     14     15     16     17     18     19     20
         21     22     23     24     25     26     27     28     29     30
 .........................................................................
   1  ****** ****** ****** ****** ****** ****** ****** ****** ****** ******
      ****** ****** ****** ****** ****** ****** ****** ****** ****** ******
      ****** ****** ****** ****** ****** ****** ****** ****** ****** ******
   2  ****** ****** ****** ****** ****** ****** ****** ****** ****** ******
      ****** ****** ****** ****** ****** ****** ****** ****** ****** ******
      ****** ****** ****** ****** ****** ****** ****** ****** ****** ******
   3  ****** ****** ****** ****** ****** ****** ****** ****** ****** ******
      ****** ****** ****** ****** ****** ****** ****** ****** ****** ******
      ****** ****** ****** ****** ****** ****** ****** ****** ****** ******
   4  ****** ****** ****** ****** ****** ****** ****** ****** ****** ******
      ****** ****** ****** ****** ****** ****** ****** ****** ****** ******
      ****** ****** ****** ****** ****** ****** ****** ****** ****** ******
   5  ****** ****** ****** ****** ****** ****** ****** ****** ****** ******
      ****** ****** ****** ****** ****** ****** ****** ****** ****** ******
      ****** ****** ****** ****** ****** ****** ****** ****** ****** ******
   6  ****** ****** ****** ****** ****** ****** ****** ****** ****** ******
      ****** ****** ****** ****** ****** ****** ****** ****** ****** ******
      ****** ****** ****** ****** ****** ****** ****** ****** ****** ******
   7  ****** ****** ****** ****** ****** ****** ****** ****** ****** ******
      ****** ****** ****** ****** ****** ****** ****** ****** ****** ******
      ****** ****** ****** ****** ****** ****** ****** ****** ****** ******
   8  ****** ****** ****** ****** ****** ****** ****** ****** ****** ******
      ****** ****** ****** ****** ****** ****** ****** ****** ****** ******
      ****** ****** ****** ****** ****** ****** ****** ****** ****** ******
   9  ****** ****** ****** ****** ****** ****** ****** ****** ****** ******
      ****** ****** ****** ****** ****** ****** ****** ****** ****** ******
      ****** ****** ****** ****** ****** ****** ****** ****** ****** ******
  10  ****** ****** ****** ****** ****** ****** ****** ****** ****** ******
      ****** ****** ****** ****** ****** ****** ****** ****** ****** ******
      ****** ****** ****** ****** ****** ****** ****** ****** ****** ******
  11  ****** ****** ****** ****** ****** ****** ****** ****** ****** ******
      ****** ****** ****** ****** ****** ****** ****** ****** ****** ******
      ****** ****** ****** ****** ****** ****** ****** ****** ****** ******
  12  ****** ****** ****** ****** ****** ****** ****** ****** ****** ******
      ****** ****** ****** ****** ****** ****** ****** ****** ****** ******
      ****** ****** ****** ****** ****** ****** ****** ****** ****** ******
  13  ****** ****** ****** ****** ****** ****** ****** ****** ****** ******
      ****** ****** ****** ****** ****** ****** ****** ****** ****** ******
      ****** ****** ****** ****** ****** ****** ****** ****** ****** ******
  14  ****** ****** ****** ****** ****** ****** ****** ****** ****** ******
      ****** ****** ****** ****** ****** ****** ****** ****** ****** ******
      ****** ****** ****** ****** ****** ****** ****** ****** ****** ******
  15  ****** ****** ****** ****** ****** ****** ****** ****** ****** ******
      ****** ****** ****** ****** ****** ****** ****** ****** ****** ******
      ****** ****** ****** ****** ****** ****** ****** ****** ****** ******
  16  ****** ****** ****** ****** ****** ****** ****** ****** ****** ******
      ****** ****** ****** ****** ****** ****** ****** ****** ****** ******
      ****** ****** ****** ****** ****** ****** ****** ****** ****** ******
  17  ****** ****** ****** ****** ****** ****** ****** ****** ****** ******
      ****** ****** ****** ****** ****** ****** ****** ****** ****** ******
      ****** ****** ****** ****** ****** ****** ****** ****** ****** ******
  18  ****** ****** ****** ****** ****** ****** ****** ****** ****** ******
      ****** ****** ****** ****** ****** ****** ****** ****** ****** ******
      ****** ****** ****** ****** ****** ****** ****** ****** ****** ******
  19  ****** ****** ****** ****** ****** ****** ****** ****** ****** ******
      ****** ****** ****** ****** ****** ****** ****** ****** ****** ******
      ****** ****** ****** ****** ****** ****** ****** ****** ****** ******
  20  ****** ****** ****** ****** ****** ****** ****** ****** ****** ******
      ****** ****** ****** ****** ****** ****** ****** ****** ****** ******
      ****** ****** ****** ****** ****** ****** ****** ****** ****** ******
  21  ****** ****** ****** ****** ****** ****** ****** ****** ****** ******
      ****** ****** ****** ****** ****** ****** ****** ****** ****** ******
      ****** ****** ****** ****** ****** ****** ****** ****** ****** ******
  22  ****** ****** ****** ****** ****** ****** ****** ****** ****** ******
      ****** ****** ****** ****** ****** ****** ****** ****** ****** ******
      ****** ****** ****** ****** ****** ****** ****** ****** ****** ******
  23  ****** ****** ****** ****** ****** ****** ****** ****** ****** ******
      ****** ****** ****** ****** ****** ****** ****** ****** ****** ******
      ****** ****** ****** ****** ****** ****** ****** ****** ****** ******
  24  ****** ****** ****** ****** ****** ****** ****** ****** ****** ******
      ****** ****** ****** ****** ****** ****** ****** ****** ****** ******
      ****** ****** ****** ****** ****** ****** ****** ****** ****** ******
  25  ****** ****** ****** ****** ****** ****** ****** ****** ****** ******
      ****** ****** ****** ****** ****** ****** ****** ****** ****** ******
      ****** ****** ****** ****** ****** ****** ****** ****** ****** ******

 HEAD WILL BE SAVED ON UNIT   51 AT END OF TIME STEP    1, STRESS PERIOD    6
1
  VOLUMETRIC BUDGET FOR ENTIRE MODEL AT END OF TIME STEP    1, STRESS PERIOD   6
  ------------------------------------------------------------------------------

     CUMULATIVE VOLUMES      L**3       RATES FOR THIS TIME STEP      L**3/T
     ------------------                 ------------------------

           IN:                                      IN:
           ---                                      ---
             STORAGE =    31590572.5138               STORAGE =          16.4345
       CONSTANT HEAD =    13123935.9479         CONSTANT HEAD =       29368.2232
               WELLS =           0.0000                 WELLS =           0.0000
            RECHARGE =    15097200.0000              RECHARGE =       55200.0000
      STREAM LEAKAGE =     3727907.5102        STREAM LEAKAGE =        7625.1498

            TOTAL IN =    63539615.9719              TOTAL IN =       92209.8076

          OUT:                                     OUT:
          ----                                     ----
             STORAGE =      750874.5533               STORAGE =        8237.9931
       CONSTANT HEAD =           0.0000         CONSTANT HEAD =           0.0000
               WELLS =    15396850.7297                 WELLS =       28096.4429
            RECHARGE =           0.0000              RECHARGE =           0.0000
      STREAM LEAKAGE =    47391892.7674        STREAM LEAKAGE =       55875.3686

           TOTAL OUT =    63539618.0504             TOTAL OUT =       92209.8047

            IN - OUT =          -2.0785              IN - OUT =       2.8643E-03

 PERCENT DISCREPANCY =          -0.00     PERCENT DISCREPANCY =           0.00






         TIME SUMMARY AT END OF TIME STEP    1 IN STRESS PERIOD    6
                    SECONDS     MINUTES      HOURS       DAYS        YEARS
                    -----------------------------------------------------------
   TIME STEP LENGTH 7.86240E+06 1.31040E+05  2184.0      91.000     0.24914    
 STRESS PERIOD TIME 7.86240E+06 1.31040E+05  2184.0      91.000     0.24914    
         TOTAL TIME 4.73472E+07 7.89120E+05  13152.      548.00      1.5003    
1
1
                            STRESS PERIOD NO.    7, LENGTH =   91.00000    
                            -----------------------------------------------

                              NUMBER OF TIME STEPS =     1

                               MULTIPLIER FOR DELT =     1.500

                            INITIAL TIME STEP SIZE =   91.00000    

 WELL NO.  LAYER   ROW   COL   STRESS RATE         
 --------------------------------------------------
      1      1     18     24      -1560.    
      2      1     13      7      -1528.    
      3      1     19     17      -9348.    
      4      1     11     14     -0.1566E+05

      4 WELLS

                 RECHARGE =   0.00000    

 REUSING STREAM SEGMENT DATA FROM LAST STRESS PERIOD
 
 SOLVING FOR HEAD 


     7 CALLS TO PCG ROUTINE FOR TIME STEP   1 IN STRESS PERIOD    7
    26 TOTAL ITERATIONS

 OUTPUT CONTROL FOR STRESS PERIOD    7   TIME STEP    1
    SAVE BUDGET
    SAVE HEAD FOR ALL LAYERS
    PRINT HEAD FOR ALL LAYERS
 UBDSV2 SAVING "STREAMFLOW OUT  " ON UNIT  50 AT TIME STEP  1, STRESS PERIOD   7



 STREAM LISTING     PERIOD      7   STEP        1

 LAYER ROW COL. STREAM  RCH.  FLOW INTO     FLOW TO   FLOW OUT OF   OVRLND.     DIRECT     STREAM       STREAM     STREAM     STREAM   STREAMBED  STREAMBED
                SEG.NO.  NO.  STRM. RCH.    AQUIFER    STRM. RCH.    RUNOFF     PRECIP       ET          HEAD       DEPTH      WIDTH   CONDCTNC.   GRADIENT

   1   13    1     1     1    1.0000E+05 -1.5971E+03   1.0160E+05  0.000E+00  0.000E+00  0.000E+00  4.84067E+01  1.453E-01  2.000E+01  2.000E+04 -7.985E-02
   1   13    2     1     2    1.0160E+05 -2.5009E+03   1.0410E+05  0.000E+00  0.000E+00  0.000E+00  4.79312E+01  1.471E-01  2.000E+01  2.000E+04 -1.250E-01
   1   14    3     1     3    1.0410E+05 -3.1628E+02   1.0441E+05  0.000E+00  0.000E+00  0.000E+00  4.74551E+01  1.483E-01  2.000E+01  2.000E+04 -1.581E-02
   1   15    4     1     4    1.0441E+05 -2.6628E+02   1.0468E+05  0.000E+00  0.000E+00  0.000E+00  4.69781E+01  1.486E-01  2.000E+01  2.000E+04 -1.331E-02
   1   16    5     1     5    1.0468E+05 -1.2841E+03   1.0596E+05  0.000E+00  0.000E+00  0.000E+00  4.65015E+01  1.492E-01  2.000E+01  2.000E+04 -6.421E-02
   1   16    6     1     6    1.0596E+05 -7.2371E+02   1.0669E+05  0.000E+00  0.000E+00  0.000E+00  4.60251E+01  1.501E-01  2.000E+01  2.000E+04 -3.619E-02
   1   16    7     1     7    1.0669E+05 -6.4958E+02   1.0734E+05  0.000E+00  0.000E+00  0.000E+00  4.55484E+01  1.507E-01  2.000E+01  2.000E+04 -3.248E-02
   1   16    8     1     8    1.0734E+05 -6.4715E+02   1.0799E+05  0.000E+00  0.000E+00  0.000E+00  4.50717E+01  1.512E-01  2.000E+01  2.000E+04 -3.236E-02
   1   16    9     1     9    1.0799E+05 -6.3520E+02   1.0862E+05  0.000E+00  0.000E+00  0.000E+00  4.45949E+01  1.517E-01  2.000E+01  2.000E+04 -3.176E-02
   1   16   10     1    10    1.0862E+05 -5.8703E+02   1.0921E+05  0.000E+00  0.000E+00  0.000E+00  4.41182E+01  1.523E-01  2.000E+01  2.000E+04 -2.935E-02
   1   16   11     1    11    1.0921E+05 -4.9601E+02   1.0970E+05  0.000E+00  0.000E+00  0.000E+00  4.36413E+01  1.527E-01  2.000E+01  2.000E+04 -2.480E-02
   1   16   12     1    12    1.0970E+05 -3.7801E+02   1.1008E+05  0.000E+00  0.000E+00  0.000E+00  4.31644E+01  1.531E-01  2.000E+01  2.000E+04 -1.890E-02
   1   15   13     1    13    1.1008E+05  3.0499E+02   1.0978E+05  0.000E+00  0.000E+00  0.000E+00  4.26872E+01  1.531E-01  2.000E+01  2.000E+04  1.525E-02
   1   14   14     1    14    1.0978E+05  9.3295E+02   1.0884E+05  0.000E+00  0.000E+00  0.000E+00  4.22094E+01  1.526E-01  2.000E+01  2.000E+04  4.665E-02
   1   13   15     1    15    1.0884E+05  1.5363E+03   1.0731E+05  0.000E+00  0.000E+00  0.000E+00  4.17311E+01  1.516E-01  2.000E+01  2.000E+04  7.682E-02
   1   12   16     1    16    1.0731E+05  8.2167E+02   1.0649E+05  0.000E+00  0.000E+00  0.000E+00  4.12528E+01  1.506E-01  2.000E+01  2.000E+04  4.108E-02
   1   12   17     1    17    1.0649E+05 -5.8818E+02   1.0707E+05  0.000E+00  0.000E+00  0.000E+00  4.07755E+01  1.505E-01  2.000E+01  2.000E+04 -2.941E-02
   1   12   18     1    18    1.0707E+05 -9.0379E+02   1.0798E+05  0.000E+00  0.000E+00  0.000E+00  4.02988E+01  1.511E-01  2.000E+01  2.000E+04 -4.519E-02
   1   12   19     1    19    1.0798E+05 -1.5863E+03   1.0956E+05  0.000E+00  0.000E+00  0.000E+00  3.98226E+01  1.521E-01  2.000E+01  2.000E+04 -7.932E-02
   1   13   20     1    20    1.0956E+05 -9.6881E+02   1.1053E+05  0.000E+00  0.000E+00  0.000E+00  3.93464E+01  1.532E-01  2.000E+01  2.000E+04 -4.844E-02
   1   14   21     1    21    1.1053E+05 -5.1260E+02   1.1105E+05  0.000E+00  0.000E+00  0.000E+00  3.88697E+01  1.538E-01  2.000E+01  2.000E+04 -2.563E-02
   1   14   22     1    22    1.1105E+05  4.9680E+03   1.0608E+05  0.000E+00  0.000E+00  0.000E+00  3.83906E+01  1.520E-01  2.000E+01  2.000E+04  2.484E-01
   1    9   30     2     1    5.0000E+04 -4.8537E+02   5.0485E+04  0.000E+00  0.000E+00  0.000E+00  4.02412E+01  1.162E-01  2.000E+01  2.000E+04 -2.427E-02
   1    9   29     2     2    5.0485E+04 -7.8246E+02   5.1268E+04  0.000E+00  0.000E+00  0.000E+00  3.99921E+01  1.171E-01  2.000E+01  2.000E+04 -3.912E-02
   1    9   28     2     3    5.1268E+04 -1.0301E+03   5.2298E+04  0.000E+00  0.000E+00  0.000E+00  3.97433E+01  1.183E-01  2.000E+01  2.000E+04 -5.150E-02
   1    9   27     2     4    5.2298E+04 -2.1953E+03   5.4493E+04  0.000E+00  0.000E+00  0.000E+00  3.94955E+01  1.205E-01  2.000E+01  2.000E+04 -1.098E-01
   1   10   26     2     5    5.4493E+04 -1.3831E+03   5.5876E+04  0.000E+00  0.000E+00  0.000E+00  3.92479E+01  1.229E-01  2.000E+01  2.000E+04 -6.915E-02
   1   11   25     2     6    5.5876E+04 -1.1766E+03   5.7053E+04  0.000E+00  0.000E+00  0.000E+00  3.89996E+01  1.246E-01  2.000E+01  2.000E+04 -5.883E-02
   1   12   24     2     7    5.7053E+04 -1.2475E+03   5.8300E+04  0.000E+00  0.000E+00  0.000E+00  3.87512E+01  1.262E-01  2.000E+01  2.000E+04 -6.238E-02
   1   13   23     2     8    5.8300E+04 -1.7047E+02   5.8471E+04  0.000E+00  0.000E+00  0.000E+00  3.85022E+01  1.272E-01  2.000E+01  2.000E+04 -8.524E-03
   1   14   22     2     9    5.8471E+04  2.1730E+03   5.6298E+04  0.000E+00  0.000E+00  0.000E+00  3.82508E+01  1.258E-01  2.000E+01  2.000E+04  1.087E-01
   1   14   22     3     1    1.6237E+05 -8.4718E+03   1.7085E+05  0.000E+00  0.000E+00  0.000E+00  3.77186E+01  1.631E-01  2.000E+01  2.000E+04 -4.236E-01
   1   15   23     3     2    1.7085E+05 -2.6280E+02   1.7111E+05  0.000E+00  0.000E+00  0.000E+00  3.68323E+01  1.656E-01  2.000E+01  2.000E+04 -1.314E-02
   1   15   24     3     3    1.7111E+05 -9.1134E+01   1.7120E+05  0.000E+00  0.000E+00  0.000E+00  3.59435E+01  1.657E-01  2.000E+01  2.000E+04 -4.557E-03
   1   15   25     3     4    1.7120E+05 -1.1507E+02   1.7132E+05  0.000E+00  0.000E+00  0.000E+00  3.50547E+01  1.658E-01  2.000E+01  2.000E+04 -5.753E-03
   1   15   26     3     5    1.7132E+05 -2.0592E+02   1.7152E+05  0.000E+00  0.000E+00  0.000E+00  3.41659E+01  1.659E-01  2.000E+01  2.000E+04 -1.030E-02
   1   16   27     3     6    1.7152E+05 -1.9361E+02   1.7172E+05  0.000E+00  0.000E+00  0.000E+00  3.32771E+01  1.660E-01  2.000E+01  2.000E+04 -9.680E-03
   1   17   28     3     7    1.7172E+05 -1.1373E+03   1.7285E+05  0.000E+00  0.000E+00  0.000E+00  3.23886E+01  1.664E-01  2.000E+01  2.000E+04 -5.686E-02
   1   18   29     3     8    1.7285E+05 -2.3395E+03   1.7519E+05  0.000E+00  0.000E+00  0.000E+00  3.15007E+01  1.674E-01  2.000E+01  2.000E+04 -1.170E-01
   1   18   30     3     9    1.7519E+05 -2.8102E+03   1.7800E+05  0.000E+00  0.000E+00  0.000E+00  3.06133E+01  1.688E-01  2.000E+01  2.000E+04 -1.405E-01



1
              HEAD IN LAYER   1 AT END OF TIME STEP   1 IN STRESS PERIOD    7
  ---------------------------------------------------------------------------

          1      2      3      4      5      6      7      8      9     10
         11     12     13     14     15     16     17     18     19     20
         21     22     23     24     25     26     27     28     29     30
 .........................................................................
   1  ****** ****** ****** ****** ****** ****** ****** ****** ****** ******
      ****** ****** ****** ****** ****** ****** ****** ****** ****** ******
      ****** ****** ****** ****** ****** ****** ****** ****** ****** ******
   2  ****** ****** ****** ****** ****** ****** ****** ****** ****** ******
      ****** ****** ****** ****** ****** ****** ****** ****** ****** ******
      ****** ****** ****** ****** ****** ****** ****** ****** ****** ******
   3  ****** ****** ****** ****** ****** ****** ****** ****** ****** ******
      ****** ****** ****** ****** ****** ****** ****** ****** ****** ******
      ****** ****** ****** ****** ****** ****** ****** ****** ****** ******
   4  ****** ****** ****** ****** ****** ****** ****** ****** ****** ******
      ****** ****** ****** ****** ****** ****** ****** ****** ****** ******
      ****** ****** ****** ****** ****** ****** ****** ****** ****** ******
   5  ****** ****** ****** ****** ****** ****** ****** ****** ****** ******
      ****** ****** ****** ****** ****** ****** ****** ****** ****** ******
      ****** ****** ****** ****** ****** ****** ****** ****** ****** ******
   6  ****** ****** ****** ****** ****** ****** ****** ****** ****** ******
      ****** ****** ****** ****** ****** ****** ****** ****** ****** ******
      ****** ****** ****** ****** ****** ****** ****** ****** ****** ******
   7  ****** ****** ****** ****** ****** ****** ****** ****** ****** ******
      ****** ****** ****** ****** ****** ****** ****** ****** ****** ******
      ****** ****** ****** ****** ****** ****** ****** ****** ****** ******
   8  ****** ****** ****** ****** ****** ****** ****** ****** ****** ******
      ****** ****** ****** ****** ****** ****** ****** ****** ****** ******
      ****** ****** ****** ****** ****** ****** ****** ****** ****** ******
   9  ****** ****** ****** ****** ****** ****** ****** ****** ****** ******
      ****** ****** ****** ****** ****** ****** ****** ****** ****** ******
      ****** ****** ****** ****** ****** ****** ****** ****** ****** ******
  10  ****** ****** ****** ****** ****** ****** ****** ****** ****** ******
      ****** ****** ****** ****** ****** ****** ****** ****** ****** ******
      ****** ****** ****** ****** ****** ****** ****** ****** ****** ******
  11  ****** ****** ****** ****** ****** ****** ****** ****** ****** ******
      ****** ****** ****** ****** ****** ****** ****** ****** ****** ******
      ****** ****** ****** ****** ****** ****** ****** ****** ****** ******
  12  ****** ****** ****** ****** ****** ****** ****** ****** ****** ******
      ****** ****** ****** ****** ****** ****** ****** ****** ****** ******
      ****** ****** ****** ****** ****** ****** ****** ****** ****** ******
  13  ****** ****** ****** ****** ****** ****** ****** ****** ****** ******
      ****** ****** ****** ****** ****** ****** ****** ****** ****** ******
      ****** ****** ****** ****** ****** ****** ****** ****** ****** ******
  14  ****** ****** ****** ****** ****** ****** ****** ****** ****** ******
      ****** ****** ****** ****** ****** ****** ****** ****** ****** ******
      ****** ****** ****** ****** ****** ****** ****** ****** ****** ******
  15  ****** ****** ****** ****** ****** ****** ****** ****** ****** ******
      ****** ****** ****** ****** ****** ****** ****** ****** ****** ******
      ****** ****** ****** ****** ****** ****** ****** ****** ****** ******
  16  ****** ****** ****** ****** ****** ****** ****** ****** ****** ******
      ****** ****** ****** ****** ****** ****** ****** ****** ****** ******
      ****** ****** ****** ****** ****** ****** ****** ****** ****** ******
  17  ****** ****** ****** ****** ****** ****** ****** ****** ****** ******
      ****** ****** ****** ****** ****** ****** ****** ****** ****** ******
      ****** ****** ****** ****** ****** ****** ****** ****** ****** ******
  18  ****** ****** ****** ****** ****** ****** ****** ****** ****** ******
      ****** ****** ****** ****** ****** ****** ****** ****** ****** ******
      ****** ****** ****** ****** ****** ****** ****** ****** ****** ******
  19  ****** ****** ****** ****** ****** ****** ****** ****** ****** ******
      ****** ****** ****** ****** ****** ****** ****** ****** ****** ******
      ****** ****** ****** ****** ****** ****** ****** ****** ****** ******
  20  ****** ****** ****** ****** ****** ****** ****** ****** ****** ******
      ****** ****** ****** ****** ****** ****** ****** ****** ****** ******
      ****** ****** ****** ****** ****** ****** ****** ****** ****** ******
  21  ****** ****** ****** ****** ****** ****** ****** ****** ****** ******
      ****** ****** ****** ****** ****** ****** ****** ****** ****** ******
      ****** ****** ****** ****** ****** ****** ****** ****** ****** ******
  22  ****** ****** ****** ****** ****** ****** ****** ****** ****** ******
      ****** ****** ****** ****** ****** ****** ****** ****** ****** ******
      ****** ****** ****** ****** ****** ****** ****** ****** ****** ******
  23  ****** ****** ****** ****** ****** ****** ****** ****** ****** ******
      ****** ****** ****** ****** ****** ****** ****** ****** ****** ******
      ****** ****** ****** ****** ****** ****** ****** ****** ****** ******
  24  ****** ****** ****** ****** ****** ****** ****** ****** ****** ******
      ****** ****** ****** ****** ****** ****** ****** ****** ****** ******
      ****** ****** ****** ****** ****** ****** ****** ****** ****** ******
  25  ****** ****** ****** ****** ****** ****** ****** ****** ****** ******
      ****** ****** ****** ****** ****** ****** ****** ****** ****** ******
      ****** ****** ****** ****** ****** ****** ****** ****** ****** ******

 HEAD WILL BE SAVED ON UNIT   51 AT END OF TIME STEP    1, STRESS PERIOD    7
1
  VOLUMETRIC BUDGET FOR ENTIRE MODEL AT END OF TIME STEP    1, STRESS PERIOD   7
  ------------------------------------------------------------------------------

     CUMULATIVE VOLUMES      L**3       RATES FOR THIS TIME STEP      L**3/T
     ------------------                 ------------------------

           IN:                                      IN:
           ---                                      ---
             STORAGE =    33662151.5979               STORAGE =       22764.6053
       CONSTANT HEAD =    16157333.4126         CONSTANT HEAD =       33334.0381
               WELLS =           0.0000                 WELLS =           0.0000
            RECHARGE =    15097200.0000              RECHARGE =           0.0000
      STREAM LEAKAGE =     4704970.2981        STREAM LEAKAGE =       10736.9537

            TOTAL IN =    69621655.3086              TOTAL IN =       66835.5971

          OUT:                                     OUT:
          ----                                     ----
             STORAGE =      750874.5533               STORAGE =           0.0000
       CONSTANT HEAD =           0.0000         CONSTANT HEAD =           0.0000
               WELLS =    17953627.0370                 WELLS =       28096.4429
            RECHARGE =           0.0000              RECHARGE =           0.0000
      STREAM LEAKAGE =    50917156.3123        STREAM LEAKAGE =       38739.1598

           TOTAL OUT =    69621657.9026             TOTAL OUT =       66835.6028

            IN - OUT =          -2.5939              IN - OUT =      -5.6643E-03

 PERCENT DISCREPANCY =          -0.00     PERCENT DISCREPANCY =          -0.00






         TIME SUMMARY AT END OF TIME STEP    1 IN STRESS PERIOD    7
                    SECONDS     MINUTES      HOURS       DAYS        YEARS
                    -----------------------------------------------------------
   TIME STEP LENGTH 7.86240E+06 1.31040E+05  2184.0      91.000     0.24914    
 STRESS PERIOD TIME 7.86240E+06 1.31040E+05  2184.0      91.000     0.24914    
         TOTAL TIME 5.52096E+07 9.20160E+05  15336.      639.00      1.7495    
1
1
                            STRESS PERIOD NO.    8, LENGTH =   91.00000    
                            -----------------------------------------------

                              NUMBER OF TIME STEPS =     1

                               MULTIPLIER FOR DELT =     1.500

                            INITIAL TIME STEP SIZE =   91.00000    

 WELL NO.  LAYER   ROW   COL   STRESS RATE         
 --------------------------------------------------
      1      1     18     24      -1560.    
      2      1     13      7      -1528.    
      3      1     19     17      -9348.    
      4      1     11     14     -0.1566E+05

      4 WELLS

                 RECHARGE =  1.000000E-03

 REUSING STREAM SEGMENT DATA FROM LAST STRESS PERIOD
 
 SOLVING FOR HEAD 


     6 CALLS TO PCG ROUTINE FOR TIME STEP   1 IN STRESS PERIOD    8
    22 TOTAL ITERATIONS

 OUTPUT CONTROL FOR STRESS PERIOD    8   TIME STEP    1
    SAVE BUDGET
    SAVE HEAD FOR ALL LAYERS
    PRINT HEAD FOR ALL LAYERS
 UBDSV2 SAVING "STREAMFLOW OUT  " ON UNIT  50 AT TIME STEP  1, STRESS PERIOD   8



 STREAM LISTING     PERIOD      8   STEP        1

 LAYER ROW COL. STREAM  RCH.  FLOW INTO     FLOW TO   FLOW OUT OF   OVRLND.     DIRECT     STREAM       STREAM     STREAM     STREAM   STREAMBED  STREAMBED
                SEG.NO.  NO.  STRM. RCH.    AQUIFER    STRM. RCH.    RUNOFF     PRECIP       ET          HEAD       DEPTH      WIDTH   CONDCTNC.   GRADIENT

   1   13    1     1     1    1.0000E+05 -1.6626E+03   1.0166E+05  0.000E+00  0.000E+00  0.000E+00  4.84067E+01  1.454E-01  2.000E+01  2.000E+04 -8.313E-02
   1   13    2     1     2    1.0166E+05 -2.5640E+03   1.0423E+05  0.000E+00  0.000E+00  0.000E+00  4.79313E+01  1.472E-01  2.000E+01  2.000E+04 -1.282E-01
   1   14    3     1     3    1.0423E+05 -3.7802E+02   1.0460E+05  0.000E+00  0.000E+00  0.000E+00  4.74553E+01  1.485E-01  2.000E+01  2.000E+04 -1.890E-02
   1   15    4     1     4    1.0460E+05 -3.3280E+02   1.0494E+05  0.000E+00  0.000E+00  0.000E+00  4.69783E+01  1.488E-01  2.000E+01  2.000E+04 -1.664E-02
   1   16    5     1     5    1.0494E+05 -1.4553E+03   1.0639E+05  0.000E+00  0.000E+00  0.000E+00  4.65018E+01  1.495E-01  2.000E+01  2.000E+04 -7.276E-02
   1   16    6     1     6    1.0639E+05 -8.2795E+02   1.0722E+05  0.000E+00  0.000E+00  0.000E+00  4.60255E+01  1.505E-01  2.000E+01  2.000E+04 -4.140E-02
   1   16    7     1     7    1.0722E+05 -7.4857E+02   1.0797E+05  0.000E+00  0.000E+00  0.000E+00  4.55489E+01  1.511E-01  2.000E+01  2.000E+04 -3.743E-02
   1   16    8     1     8    1.0797E+05 -7.4528E+02   1.0871E+05  0.000E+00  0.000E+00  0.000E+00  4.50722E+01  1.518E-01  2.000E+01  2.000E+04 -3.726E-02
   1   16    9     1     9    1.0871E+05 -7.3469E+02   1.0945E+05  0.000E+00  0.000E+00  0.000E+00  4.45956E+01  1.524E-01  2.000E+01  2.000E+04 -3.673E-02
   1   16   10     1    10    1.0945E+05 -6.8943E+02   1.1014E+05  0.000E+00  0.000E+00  0.000E+00  4.41189E+01  1.530E-01  2.000E+01  2.000E+04 -3.447E-02
   1   16   11     1    11    1.1014E+05 -6.0192E+02   1.1074E+05  0.000E+00  0.000E+00  0.000E+00  4.36422E+01  1.535E-01  2.000E+01  2.000E+04 -3.010E-02
   1   16   12     1    12    1.1074E+05 -5.3546E+02   1.1128E+05  0.000E+00  0.000E+00  0.000E+00  4.31654E+01  1.540E-01  2.000E+01  2.000E+04 -2.677E-02
   1   15   13     1    13    1.1128E+05  1.4228E+02   1.1113E+05  0.000E+00  0.000E+00  0.000E+00  4.26883E+01  1.542E-01  2.000E+01  2.000E+04  7.114E-03
   1   14   14     1    14    1.1113E+05  7.7815E+02   1.1036E+05  0.000E+00  0.000E+00  0.000E+00  4.22106E+01  1.538E-01  2.000E+01  2.000E+04  3.891E-02
   1   13   15     1    15    1.1036E+05  1.3948E+03   1.0896E+05  0.000E+00  0.000E+00  0.000E+00  4.17324E+01  1.529E-01  2.000E+01  2.000E+04  6.974E-02
   1   12   16     1    16    1.0896E+05  7.1915E+02   1.0824E+05  0.000E+00  0.000E+00  0.000E+00  4.12543E+01  1.520E-01  2.000E+01  2.000E+04  3.596E-02
   1   12   17     1    17    1.0824E+05 -6.9493E+02   1.0894E+05  0.000E+00  0.000E+00  0.000E+00  4.07770E+01  1.520E-01  2.000E+01  2.000E+04 -3.475E-02
   1   12   18     1    18    1.0894E+05 -1.0180E+03   1.0995E+05  0.000E+00  0.000E+00  0.000E+00  4.03004E+01  1.527E-01  2.000E+01  2.000E+04 -5.090E-02
   1   12   19     1    19    1.0995E+05 -1.7311E+03   1.1169E+05  0.000E+00  0.000E+00  0.000E+00  3.98243E+01  1.538E-01  2.000E+01  2.000E+04 -8.656E-02
   1   13   20     1    20    1.1169E+05 -1.1441E+03   1.1283E+05  0.000E+00  0.000E+00  0.000E+00  3.93482E+01  1.550E-01  2.000E+01  2.000E+04 -5.720E-02
   1   14   21     1    21    1.1283E+05 -6.6787E+02   1.1350E+05  0.000E+00  0.000E+00  0.000E+00  3.88717E+01  1.558E-01  2.000E+01  2.000E+04 -3.339E-02
   1   14   22     1    22    1.1350E+05  4.9214E+03   1.0858E+05  0.000E+00  0.000E+00  0.000E+00  3.83927E+01  1.540E-01  2.000E+01  2.000E+04  2.461E-01
   1    9   30     2     1    5.0000E+04 -6.4810E+02   5.0648E+04  0.000E+00  0.000E+00  0.000E+00  4.02413E+01  1.163E-01  2.000E+01  2.000E+04 -3.240E-02
   1    9   29     2     2    5.0648E+04 -9.4233E+02   5.1590E+04  0.000E+00  0.000E+00  0.000E+00  3.99924E+01  1.174E-01  2.000E+01  2.000E+04 -4.712E-02
   1    9   28     2     3    5.1590E+04 -1.1842E+03   5.2775E+04  0.000E+00  0.000E+00  0.000E+00  3.97439E+01  1.189E-01  2.000E+01  2.000E+04 -5.921E-02
   1    9   27     2     4    5.2775E+04 -2.3716E+03   5.5146E+04  0.000E+00  0.000E+00  0.000E+00  3.94963E+01  1.213E-01  2.000E+01  2.000E+04 -1.186E-01
   1   10   26     2     5    5.5146E+04 -1.5867E+03   5.6733E+04  0.000E+00  0.000E+00  0.000E+00  3.92489E+01  1.239E-01  2.000E+01  2.000E+04 -7.933E-02
   1   11   25     2     6    5.6733E+04 -1.3787E+03   5.8112E+04  0.000E+00  0.000E+00  0.000E+00  3.90009E+01  1.259E-01  2.000E+01  2.000E+04 -6.893E-02
   1   12   24     2     7    5.8112E+04 -1.4307E+03   5.9542E+04  0.000E+00  0.000E+00  0.000E+00  3.87527E+01  1.277E-01  2.000E+01  2.000E+04 -7.154E-02
   1   13   23     2     8    5.9542E+04 -2.4447E+02   5.9787E+04  0.000E+00  0.000E+00  0.000E+00  3.85038E+01  1.288E-01  2.000E+01  2.000E+04 -1.222E-02
   1   14   22     2     9    5.9787E+04  2.1203E+03   5.7667E+04  0.000E+00  0.000E+00  0.000E+00  3.82526E+01  1.276E-01  2.000E+01  2.000E+04  1.060E-01
   1   14   22     3     1    1.6624E+05 -8.5143E+03   1.7476E+05  0.000E+00  0.000E+00  0.000E+00  3.77209E+01  1.653E-01  2.000E+01  2.000E+04 -4.257E-01
   1   15   23     3     2    1.7476E+05 -3.2625E+02   1.7508E+05  0.000E+00  0.000E+00  0.000E+00  3.68345E+01  1.679E-01  2.000E+01  2.000E+04 -1.631E-02
   1   15   24     3     3    1.7508E+05 -1.5118E+02   1.7523E+05  0.000E+00  0.000E+00  0.000E+00  3.59458E+01  1.680E-01  2.000E+01  2.000E+04 -7.559E-03
   1   15   25     3     4    1.7523E+05 -1.7689E+02   1.7541E+05  0.000E+00  0.000E+00  0.000E+00  3.50570E+01  1.681E-01  2.000E+01  2.000E+04 -8.844E-03
   1   15   26     3     5    1.7541E+05 -2.8030E+02   1.7569E+05  0.000E+00  0.000E+00  0.000E+00  3.41682E+01  1.682E-01  2.000E+01  2.000E+04 -1.402E-02
   1   16   27     3     6    1.7569E+05 -2.7494E+02   1.7597E+05  0.000E+00  0.000E+00  0.000E+00  3.32795E+01  1.684E-01  2.000E+01  2.000E+04 -1.375E-02
   1   17   28     3     7    1.7597E+05 -1.3394E+03   1.7731E+05  0.000E+00  0.000E+00  0.000E+00  3.23911E+01  1.689E-01  2.000E+01  2.000E+04 -6.697E-02
   1   18   29     3     8    1.7731E+05 -2.5017E+03   1.7981E+05  0.000E+00  0.000E+00  0.000E+00  3.15033E+01  1.700E-01  2.000E+01  2.000E+04 -1.251E-01
   1   18   30     3     9    1.7981E+05 -2.9549E+03   1.8276E+05  0.000E+00  0.000E+00  0.000E+00  3.06160E+01  1.715E-01  2.000E+01  2.000E+04 -1.477E-01



1
              HEAD IN LAYER   1 AT END OF TIME STEP   1 IN STRESS PERIOD    8
  ---------------------------------------------------------------------------

          1      2      3      4      5      6      7      8      9     10
         11     12     13     14     15     16     17     18     19     20
         21     22     23     24     25     26     27     28     29     30
 .........................................................................
   1  ****** ****** ****** ****** ****** ****** ****** ****** ****** ******
      ****** ****** ****** ****** ****** ****** ****** ****** ****** ******
      ****** ****** ****** ****** ****** ****** ****** ****** ****** ******
   2  ****** ****** ****** ****** ****** ****** ****** ****** ****** ******
      ****** ****** ****** ****** ****** ****** ****** ****** ****** ******
      ****** ****** ****** ****** ****** ****** ****** ****** ****** ******
   3  ****** ****** ****** ****** ****** ****** ****** ****** ****** ******
      ****** ****** ****** ****** ****** ****** ****** ****** ****** ******
      ****** ****** ****** ****** ****** ****** ****** ****** ****** ******
   4  ****** ****** ****** ****** ****** ****** ****** ****** ****** ******
      ****** ****** ****** ****** ****** ****** ****** ****** ****** ******
      ****** ****** ****** ****** ****** ****** ****** ****** ****** ******
   5  ****** ****** ****** ****** ****** ****** ****** ****** ****** ******
      ****** ****** ****** ****** ****** ****** ****** ****** ****** ******
      ****** ****** ****** ****** ****** ****** ****** ****** ****** ******
   6  ****** ****** ****** ****** ****** ****** ****** ****** ****** ******
      ****** ****** ****** ****** ****** ****** ****** ****** ****** ******
      ****** ****** ****** ****** ****** ****** ****** ****** ****** ******
   7  ****** ****** ****** ****** ****** ****** ****** ****** ****** ******
      ****** ****** ****** ****** ****** ****** ****** ****** ****** ******
      ****** ****** ****** ****** ****** ****** ****** ****** ****** ******
   8  ****** ****** ****** ****** ****** ****** ****** ****** ****** ******
      ****** ****** ****** ****** ****** ****** ****** ****** ****** ******
      ****** ****** ****** ****** ****** ****** ****** ****** ****** ******
   9  ****** ****** ****** ****** ****** ****** ****** ****** ****** ******
      ****** ****** ****** ****** ****** ****** ****** ****** ****** ******
      ****** ****** ****** ****** ****** ****** ****** ****** ****** ******
  10  ****** ****** ****** ****** ****** ****** ****** ****** ****** ******
      ****** ****** ****** ****** ****** ****** ****** ****** ****** ******
      ****** ****** ****** ****** ****** ****** ****** ****** ****** ******
  11  ****** ****** ****** ****** ****** ****** ****** ****** ****** ******
      ****** ****** ****** ****** ****** ****** ****** ****** ****** ******
      ****** ****** ****** ****** ****** ****** ****** ****** ****** ******
  12  ****** ****** ****** ****** ****** ****** ****** ****** ****** ******
      ****** ****** ****** ****** ****** ****** ****** ****** ****** ******
      ****** ****** ****** ****** ****** ****** ****** ****** ****** ******
  13  ****** ****** ****** ****** ****** ****** ****** ****** ****** ******
      ****** ****** ****** ****** ****** ****** ****** ****** ****** ******
      ****** ****** ****** ****** ****** ****** ****** ****** ****** ******
  14  ****** ****** ****** ****** ****** ****** ****** ****** ****** ******
      ****** ****** ****** ****** ****** ****** ****** ****** ****** ******
      ****** ****** ****** ****** ****** ****** ****** ****** ****** ******
  15  ****** ****** ****** ****** ****** ****** ****** ****** ****** ******
      ****** ****** ****** ****** ****** ****** ****** ****** ****** ******
      ****** ****** ****** ****** ****** ****** ****** ****** ****** ******
  16  ****** ****** ****** ****** ****** ****** ****** ****** ****** ******
      ****** ****** ****** ****** ****** ****** ****** ****** ****** ******
      ****** ****** ****** ****** ****** ****** ****** ****** ****** ******
  17  ****** ****** ****** ****** ****** ****** ****** ****** ****** ******
      ****** ****** ****** ****** ****** ****** ****** ****** ****** ******
      ****** ****** ****** ****** ****** ****** ****** ****** ****** ******
  18  ****** ****** ****** ****** ****** ****** ****** ****** ****** ******
      ****** ****** ****** ****** ****** ****** ****** ****** ****** ******
      ****** ****** ****** ****** ****** ****** ****** ****** ****** ******
  19  ****** ****** ****** ****** ****** ****** ****** ****** ****** ******
      ****** ****** ****** ****** ****** ****** ****** ****** ****** ******
      ****** ****** ****** ****** ****** ****** ****** ****** ****** ******
  20  ****** ****** ****** ****** ****** ****** ****** ****** ****** ******
      ****** ****** ****** ****** ****** ****** ****** ****** ****** ******
      ****** ****** ****** ****** ****** ****** ****** ****** ****** ******
  21  ****** ****** ****** ****** ****** ****** ****** ****** ****** ******
      ****** ****** ****** ****** ****** ****** ****** ****** ****** ******
      ****** ****** ****** ****** ****** ****** ****** ****** ****** ******
  22  ****** ****** ****** ****** ****** ****** ****** ****** ****** ******
      ****** ****** ****** ****** ****** ****** ****** ****** ****** ******
      ****** ****** ****** ****** ****** ****** ****** ****** ****** ******
  23  ****** ****** ****** ****** ****** ****** ****** ****** ****** ******
      ****** ****** ****** ****** ****** ****** ****** ****** ****** ******
      ****** ****** ****** ****** ****** ****** ****** ****** ****** ******
  24  ****** ****** ****** ****** ****** ****** ****** ****** ****** ******
      ****** ****** ****** ****** ****** ****** ****** ****** ****** ******
      ****** ****** ****** ****** ****** ****** ****** ****** ****** ******
  25  ****** ****** ****** ****** ****** ****** ****** ****** ****** ******
      ****** ****** ****** ****** ****** ****** ****** ****** ****** ******
      ****** ****** ****** ****** ****** ****** ****** ****** ****** ******

 HEAD WILL BE SAVED ON UNIT   51 AT END OF TIME STEP    1, STRESS PERIOD    8
1
  VOLUMETRIC BUDGET FOR ENTIRE MODEL AT END OF TIME STEP    1, STRESS PERIOD   8
  ------------------------------------------------------------------------------

     CUMULATIVE VOLUMES      L**3       RATES FOR THIS TIME STEP      L**3/T
     ------------------                 ------------------------

           IN:                                      IN:
           ---                                      ---
             STORAGE =    33816158.7336               STORAGE =        1692.3861
       CONSTANT HEAD =    19166478.2379         CONSTANT HEAD =       33067.5256
               WELLS =           0.0000                 WELLS =           0.0000
            RECHARGE =    17608800.0000              RECHARGE =       27600.0000
      STREAM LEAKAGE =     5621898.2933        STREAM LEAKAGE =       10076.1318

            TOTAL IN =    76213335.2648              TOTAL IN =       72436.0435

          OUT:                                     OUT:
          ----                                     ----
             STORAGE =      887459.9518               STORAGE =        1500.9384
       CONSTANT HEAD =           0.0000         CONSTANT HEAD =           0.0000
               WELLS =    20510403.3443                 WELLS =       28096.4429
            RECHARGE =           0.0000              RECHARGE =           0.0000
      STREAM LEAKAGE =    54815473.8288        STREAM LEAKAGE =       42838.6540

           TOTAL OUT =    76213337.1249             TOTAL OUT =       72436.0354

            IN - OUT =          -1.8601              IN - OUT =       8.0641E-03

 PERCENT DISCREPANCY =          -0.00     PERCENT DISCREPANCY =           0.00






         TIME SUMMARY AT END OF TIME STEP    1 IN STRESS PERIOD    8
                    SECONDS     MINUTES      HOURS       DAYS        YEARS
                    -----------------------------------------------------------
   TIME STEP LENGTH 7.86240E+06 1.31040E+05  2184.0      91.000     0.24914    
 STRESS PERIOD TIME 7.86240E+06 1.31040E+05  2184.0      91.000     0.24914    
         TOTAL TIME 6.30720E+07 1.05120E+06  17520.      730.00      1.9986    
1
1
                            STRESS PERIOD NO.    9, LENGTH =   92.00000    
                            -----------------------------------------------

                              NUMBER OF TIME STEPS =     1

                               MULTIPLIER FOR DELT =     1.500

                            INITIAL TIME STEP SIZE =   92.00000    

 WELL NO.  LAYER   ROW   COL   STRESS RATE         
 --------------------------------------------------
      1      1     18     24      -1560.    
      2      1     13      7      -1528.    
      3      1     19     17      -9348.    
      4      1     11     14     -0.1566E+05

      4 WELLS

                 RECHARGE =  5.000000E-04

 REUSING STREAM SEGMENT DATA FROM LAST STRESS PERIOD
 
 SOLVING FOR HEAD 


     6 CALLS TO PCG ROUTINE FOR TIME STEP   1 IN STRESS PERIOD    9
    23 TOTAL ITERATIONS

 OUTPUT CONTROL FOR STRESS PERIOD    9   TIME STEP    1
    SAVE BUDGET
    SAVE HEAD FOR ALL LAYERS
    PRINT HEAD FOR ALL LAYERS
 UBDSV2 SAVING "STREAMFLOW OUT  " ON UNIT  50 AT TIME STEP  1, STRESS PERIOD   9



 STREAM LISTING     PERIOD      9   STEP        1

 LAYER ROW COL. STREAM  RCH.  FLOW INTO     FLOW TO   FLOW OUT OF   OVRLND.     DIRECT     STREAM       STREAM     STREAM     STREAM   STREAMBED  STREAMBED
                SEG.NO.  NO.  STRM. RCH.    AQUIFER    STRM. RCH.    RUNOFF     PRECIP       ET          HEAD       DEPTH      WIDTH   CONDCTNC.   GRADIENT

   1   13    1     1     1    1.0000E+05 -1.4423E+03   1.0144E+05  0.000E+00  0.000E+00  0.000E+00  4.84066E+01  1.453E-01  2.000E+01  2.000E+04 -7.212E-02
   1   13    2     1     2    1.0144E+05 -2.3139E+03   1.0376E+05  0.000E+00  0.000E+00  0.000E+00  4.79310E+01  1.469E-01  2.000E+01  2.000E+04 -1.157E-01
   1   14    3     1     3    1.0376E+05 -3.0563E+02   1.0406E+05  0.000E+00  0.000E+00  0.000E+00  4.74548E+01  1.480E-01  2.000E+01  2.000E+04 -1.528E-02
   1   15    4     1     4    1.0406E+05 -2.5953E+02   1.0432E+05  0.000E+00  0.000E+00  0.000E+00  4.69778E+01  1.483E-01  2.000E+01  2.000E+04 -1.298E-02
   1   16    5     1     5    1.0432E+05 -1.2612E+03   1.0558E+05  0.000E+00  0.000E+00  0.000E+00  4.65012E+01  1.489E-01  2.000E+01  2.000E+04 -6.306E-02
   1   16    6     1     6    1.0558E+05 -7.0633E+02   1.0629E+05  0.000E+00  0.000E+00  0.000E+00  4.60247E+01  1.497E-01  2.000E+01  2.000E+04 -3.532E-02
   1   16    7     1     7    1.0629E+05 -6.3050E+02   1.0692E+05  0.000E+00  0.000E+00  0.000E+00  4.55480E+01  1.503E-01  2.000E+01  2.000E+04 -3.152E-02
   1   16    8     1     8    1.0692E+05 -6.2875E+02   1.0755E+05  0.000E+00  0.000E+00  0.000E+00  4.50713E+01  1.508E-01  2.000E+01  2.000E+04 -3.144E-02
   1   16    9     1     9    1.0755E+05 -6.1992E+02   1.0817E+05  0.000E+00  0.000E+00  0.000E+00  4.45946E+01  1.514E-01  2.000E+01  2.000E+04 -3.100E-02
   1   16   10     1    10    1.0817E+05 -5.7694E+02   1.0875E+05  0.000E+00  0.000E+00  0.000E+00  4.41178E+01  1.519E-01  2.000E+01  2.000E+04 -2.885E-02
   1   16   11     1    11    1.0875E+05 -4.9076E+02   1.0924E+05  0.000E+00  0.000E+00  0.000E+00  4.36410E+01  1.523E-01  2.000E+01  2.000E+04 -2.454E-02
   1   16   12     1    12    1.0924E+05 -3.4492E+02   1.0958E+05  0.000E+00  0.000E+00  0.000E+00  4.31640E+01  1.527E-01  2.000E+01  2.000E+04 -1.725E-02
   1   15   13     1    13    1.0958E+05  3.5522E+02   1.0923E+05  0.000E+00  0.000E+00  0.000E+00  4.26868E+01  1.527E-01  2.000E+01  2.000E+04  1.776E-02
   1   14   14     1    14    1.0923E+05  1.0051E+03   1.0822E+05  0.000E+00  0.000E+00  0.000E+00  4.22089E+01  1.521E-01  2.000E+01  2.000E+04  5.026E-02
   1   13   15     1    15    1.0822E+05  1.6279E+03   1.0659E+05  0.000E+00  0.000E+00  0.000E+00  4.17305E+01  1.510E-01  2.000E+01  2.000E+04  8.140E-02
   1   12   16     1    16    1.0659E+05  9.6101E+02   1.0563E+05  0.000E+00  0.000E+00  0.000E+00  4.12522E+01  1.499E-01  2.000E+01  2.000E+04  4.805E-02
   1   12   17     1    17    1.0563E+05 -5.2975E+02   1.0616E+05  0.000E+00  0.000E+00  0.000E+00  4.07747E+01  1.497E-01  2.000E+01  2.000E+04 -2.649E-02
   1   12   18     1    18    1.0616E+05 -8.6076E+02   1.0702E+05  0.000E+00  0.000E+00  0.000E+00  4.02980E+01  1.503E-01  2.000E+01  2.000E+04 -4.304E-02
   1   12   19     1    19    1.0702E+05 -1.5421E+03   1.0856E+05  0.000E+00  0.000E+00  0.000E+00  3.98218E+01  1.513E-01  2.000E+01  2.000E+04 -7.711E-02
   1   13   20     1    20    1.0856E+05 -9.6915E+02   1.0953E+05  0.000E+00  0.000E+00  0.000E+00  3.93456E+01  1.524E-01  2.000E+01  2.000E+04 -4.846E-02
   1   14   21     1    21    1.0953E+05 -4.9482E+02   1.1003E+05  0.000E+00  0.000E+00  0.000E+00  3.88689E+01  1.530E-01  2.000E+01  2.000E+04 -2.474E-02
   1   14   22     1    22    1.1003E+05  4.9585E+03   1.0507E+05  0.000E+00  0.000E+00  0.000E+00  3.83897E+01  1.511E-01  2.000E+01  2.000E+04  2.479E-01
   1    9   30     2     1    5.0000E+04 -5.2455E+02   5.0525E+04  0.000E+00  0.000E+00  0.000E+00  4.02412E+01  1.162E-01  2.000E+01  2.000E+04 -2.623E-02
   1    9   29     2     2    5.0525E+04 -8.1852E+02   5.1343E+04  0.000E+00  0.000E+00  0.000E+00  3.99922E+01  1.172E-01  2.000E+01  2.000E+04 -4.093E-02
   1    9   28     2     3    5.1343E+04 -1.0585E+03   5.2402E+04  0.000E+00  0.000E+00  0.000E+00  3.97434E+01  1.184E-01  2.000E+01  2.000E+04 -5.292E-02
   1    9   27     2     4    5.2402E+04 -2.1943E+03   5.4596E+04  0.000E+00  0.000E+00  0.000E+00  3.94957E+01  1.207E-01  2.000E+01  2.000E+04 -1.097E-01
   1   10   26     2     5    5.4596E+04 -1.4122E+03   5.6008E+04  0.000E+00  0.000E+00  0.000E+00  3.92481E+01  1.231E-01  2.000E+01  2.000E+04 -7.061E-02
   1   11   25     2     6    5.6008E+04 -1.2117E+03   5.7220E+04  0.000E+00  0.000E+00  0.000E+00  3.89998E+01  1.248E-01  2.000E+01  2.000E+04 -6.058E-02
   1   12   24     2     7    5.7220E+04 -1.2771E+03   5.8497E+04  0.000E+00  0.000E+00  0.000E+00  3.87515E+01  1.265E-01  2.000E+01  2.000E+04 -6.385E-02
   1   13   23     2     8    5.8497E+04 -1.9721E+02   5.8694E+04  0.000E+00  0.000E+00  0.000E+00  3.85024E+01  1.274E-01  2.000E+01  2.000E+04 -9.860E-03
   1   14   22     2     9    5.8694E+04  2.1862E+03   5.6508E+04  0.000E+00  0.000E+00  0.000E+00  3.82511E+01  1.261E-01  2.000E+01  2.000E+04  1.093E-01
   1   14   22     3     1    1.6158E+05 -8.4737E+03   1.7005E+05  0.000E+00  0.000E+00  0.000E+00  3.77181E+01  1.626E-01  2.000E+01  2.000E+04 -4.237E-01
   1   15   23     3     2    1.7005E+05 -2.7335E+02   1.7032E+05  0.000E+00  0.000E+00  0.000E+00  3.68318E+01  1.651E-01  2.000E+01  2.000E+04 -1.367E-02
   1   15   24     3     3    1.7032E+05 -1.0798E+02   1.7043E+05  0.000E+00  0.000E+00  0.000E+00  3.59430E+01  1.653E-01  2.000E+01  2.000E+04 -5.399E-03
   1   15   25     3     4    1.7043E+05 -1.3344E+02   1.7057E+05  0.000E+00  0.000E+00  0.000E+00  3.50542E+01  1.653E-01  2.000E+01  2.000E+04 -6.672E-03
   1   15   26     3     5    1.7057E+05 -2.3260E+02   1.7080E+05  0.000E+00  0.000E+00  0.000E+00  3.41654E+01  1.654E-01  2.000E+01  2.000E+04 -1.163E-02
   1   16   27     3     6    1.7080E+05 -2.1874E+02   1.7102E+05  0.000E+00  0.000E+00  0.000E+00  3.32767E+01  1.656E-01  2.000E+01  2.000E+04 -1.094E-02
   1   17   28     3     7    1.7102E+05 -1.1852E+03   1.7220E+05  0.000E+00  0.000E+00  0.000E+00  3.23882E+01  1.660E-01  2.000E+01  2.000E+04 -5.926E-02
   1   18   29     3     8    1.7220E+05 -2.3243E+03   1.7453E+05  0.000E+00  0.000E+00  0.000E+00  3.15003E+01  1.670E-01  2.000E+01  2.000E+04 -1.162E-01
   1   18   30     3     9    1.7453E+05 -2.8218E+03   1.7735E+05  0.000E+00  0.000E+00  0.000E+00  3.06129E+01  1.685E-01  2.000E+01  2.000E+04 -1.411E-01



1
              HEAD IN LAYER   1 AT END OF TIME STEP   1 IN STRESS PERIOD    9
  ---------------------------------------------------------------------------

          1      2      3      4      5      6      7      8      9     10
         11     12     13     14     15     16     17     18     19     20
         21     22     23     24     25     26     27     28     29     30
 .........................................................................
   1  ****** ****** ****** ****** ****** ****** ****** ****** ****** ******
      ****** ****** ****** ****** ****** ****** ****** ****** ****** ******
      ****** ****** ****** ****** ****** ****** ****** ****** ****** ******
   2  ****** ****** ****** ****** ****** ****** ****** ****** ****** ******
      ****** ****** ****** ****** ****** ****** ****** ****** ****** ******
      ****** ****** ****** ****** ****** ****** ****** ****** ****** ******
   3  ****** ****** ****** ****** ****** ****** ****** ****** ****** ******
      ****** ****** ****** ****** ****** ****** ****** ****** ****** ******
      ****** ****** ****** ****** ****** ****** ****** ****** ****** ******
   4  ****** ****** ****** ****** ****** ****** ****** ****** ****** ******
      ****** ****** ****** ****** ****** ****** ****** ****** ****** ******
      ****** ****** ****** ****** ****** ****** ****** ****** ****** ******
   5  ****** ****** ****** ****** ****** ****** ****** ****** ****** ******
      ****** ****** ****** ****** ****** ****** ****** ****** ****** ******
      ****** ****** ****** ****** ****** ****** ****** ****** ****** ******
   6  ****** ****** ****** ****** ****** ****** ****** ****** ****** ******
      ****** ****** ****** ****** ****** ****** ****** ****** ****** ******
      ****** ****** ****** ****** ****** ****** ****** ****** ****** ******
   7  ****** ****** ****** ****** ****** ****** ****** ****** ****** ******
      ****** ****** ****** ****** ****** ****** ****** ****** ****** ******
      ****** ****** ****** ****** ****** ****** ****** ****** ****** ******
   8  ****** ****** ****** ****** ****** ****** ****** ****** ****** ******
      ****** ****** ****** ****** ****** ****** ****** ****** ****** ******
      ****** ****** ****** ****** ****** ****** ****** ****** ****** ******
   9  ****** ****** ****** ****** ****** ****** ****** ****** ****** ******
      ****** ****** ****** ****** ****** ****** ****** ****** ****** ******
      ****** ****** ****** ****** ****** ****** ****** ****** ****** ******
  10  ****** ****** ****** ****** ****** ****** ****** ****** ****** ******
      ****** ****** ****** ****** ****** ****** ****** ****** ****** ******
      ****** ****** ****** ****** ****** ****** ****** ****** ****** ******
  11  ****** ****** ****** ****** ****** ****** ****** ****** ****** ******
      ****** ****** ****** ****** ****** ****** ****** ****** ****** ******
      ****** ****** ****** ****** ****** ****** ****** ****** ****** ******
  12  ****** ****** ****** ****** ****** ****** ****** ****** ****** ******
      ****** ****** ****** ****** ****** ****** ****** ****** ****** ******
      ****** ****** ****** ****** ****** ****** ****** ****** ****** ******
  13  ****** ****** ****** ****** ****** ****** ****** ****** ****** ******
      ****** ****** ****** ****** ****** ****** ****** ****** ****** ******
      ****** ****** ****** ****** ****** ****** ****** ****** ****** ******
  14  ****** ****** ****** ****** ****** ****** ****** ****** ****** ******
      ****** ****** ****** ****** ****** ****** ****** ****** ****** ******
      ****** ****** ****** ****** ****** ****** ****** ****** ****** ******
  15  ****** ****** ****** ****** ****** ****** ****** ****** ****** ******
      ****** ****** ****** ****** ****** ****** ****** ****** ****** ******
      ****** ****** ****** ****** ****** ****** ****** ****** ****** ******
  16  ****** ****** ****** ****** ****** ****** ****** ****** ****** ******
      ****** ****** ****** ****** ****** ****** ****** ****** ****** ******
      ****** ****** ****** ****** ****** ****** ****** ****** ****** ******
  17  ****** ****** ****** ****** ****** ****** ****** ****** ****** ******
      ****** ****** ****** ****** ****** ****** ****** ****** ****** ******
      ****** ****** ****** ****** ****** ****** ****** ****** ****** ******
  18  ****** ****** ****** ****** ****** ****** ****** ****** ****** ******
      ****** ****** ****** ****** ****** ****** ****** ****** ****** ******
      ****** ****** ****** ****** ****** ****** ****** ****** ****** ******
  19  ****** ****** ****** ****** ****** ****** ****** ****** ****** ******
      ****** ****** ****** ****** ****** ****** ****** ****** ****** ******
      ****** ****** ****** ****** ****** ****** ****** ****** ****** ******
  20  ****** ****** ****** ****** ****** ****** ****** ****** ****** ******
      ****** ****** ****** ****** ****** ****** ****** ****** ****** ******
      ****** ****** ****** ****** ****** ****** ****** ****** ****** ******
  21  ****** ****** ****** ****** ****** ****** ****** ****** ****** ******
      ****** ****** ****** ****** ****** ****** ****** ****** ****** ******
      ****** ****** ****** ****** ****** ****** ****** ****** ****** ******
  22  ****** ****** ****** ****** ****** ****** ****** ****** ****** ******
      ****** ****** ****** ****** ****** ****** ****** ****** ****** ******
      ****** ****** ****** ****** ****** ****** ****** ****** ****** ******
  23  ****** ****** ****** ****** ****** ****** ****** ****** ****** ******
      ****** ****** ****** ****** ****** ****** ****** ****** ****** ******
      ****** ****** ****** ****** ****** ****** ****** ****** ****** ******
  24  ****** ****** ****** ****** ****** ****** ****** ****** ****** ******
      ****** ****** ****** ****** ****** ****** ****** ****** ****** ******
      ****** ****** ****** ****** ****** ****** ****** ****** ****** ******
  25  ****** ****** ****** ****** ****** ****** ****** ****** ****** ******
      ****** ****** ****** ****** ****** ****** ****** ****** ****** ******
      ****** ****** ****** ****** ****** ****** ****** ****** ****** ******

 HEAD WILL BE SAVED ON UNIT   51 AT END OF TIME STEP    1, STRESS PERIOD    9
1
  VOLUMETRIC BUDGET FOR ENTIRE MODEL AT END OF TIME STEP    1, STRESS PERIOD   9
  ------------------------------------------------------------------------------

     CUMULATIVE VOLUMES      L**3       RATES FOR THIS TIME STEP      L**3/T
     ------------------                 ------------------------

           IN:                                      IN:
           ---                                      ---
             STORAGE =    34496155.8238               STORAGE =        7391.2727
       CONSTANT HEAD =    22317814.7947         CONSTANT HEAD =       34253.6582
               WELLS =           0.0000                 WELLS =           0.0000
            RECHARGE =    18878400.0000              RECHARGE =       13800.0000
      STREAM LEAKAGE =     6642541.7190        STREAM LEAKAGE =       11093.9503

            TOTAL IN =    82334912.3375              TOTAL IN =       66538.8812

          OUT:                                     OUT:
          ----                                     ----
             STORAGE =      887459.9518               STORAGE =           0.0000
       CONSTANT HEAD =           0.0000         CONSTANT HEAD =           0.0000
               WELLS =    23095276.0945                 WELLS =       28096.4429
            RECHARGE =           0.0000              RECHARGE =           0.0000
      STREAM LEAKAGE =    58352178.2254        STREAM LEAKAGE =       38442.4391

           TOTAL OUT =    82334914.2716             TOTAL OUT =       66538.8820

            IN - OUT =          -1.9342              IN - OUT =      -8.0518E-04

 PERCENT DISCREPANCY =          -0.00     PERCENT DISCREPANCY =          -0.00






         TIME SUMMARY AT END OF TIME STEP    1 IN STRESS PERIOD    9
                    SECONDS     MINUTES      HOURS       DAYS        YEARS
                    -----------------------------------------------------------
   TIME STEP LENGTH 7.94880E+06 1.32480E+05  2208.0      92.000     0.25188    
 STRESS PERIOD TIME 7.94880E+06 1.32480E+05  2208.0      92.000     0.25188    
         TOTAL TIME 7.10208E+07 1.18368E+06  19728.      822.00      2.2505    
1
1
                            STRESS PERIOD NO.   10, LENGTH =   91.00000    
                            -----------------------------------------------

                              NUMBER OF TIME STEPS =     1

                               MULTIPLIER FOR DELT =     1.500

                            INITIAL TIME STEP SIZE =   91.00000    

 WELL NO.  LAYER   ROW   COL   STRESS RATE         
 --------------------------------------------------
      1      1     18     24      -1560.    
      2      1     13      7      -1528.    
      3      1     19     17      -9348.    
      4      1     11     14     -0.1566E+05

      4 WELLS

                 RECHARGE =  2.000000E-03

 REUSING STREAM SEGMENT DATA FROM LAST STRESS PERIOD
 
 SOLVING FOR HEAD 


     7 CALLS TO PCG ROUTINE FOR TIME STEP   1 IN STRESS PERIOD   10
    26 TOTAL ITERATIONS

 OUTPUT CONTROL FOR STRESS PERIOD   10   TIME STEP    1
    SAVE BUDGET
    SAVE HEAD FOR ALL LAYERS
    PRINT HEAD FOR ALL LAYERS
 UBDSV2 SAVING "STREAMFLOW OUT  " ON UNIT  50 AT TIME STEP  1, STRESS PERIOD  10



 STREAM LISTING     PERIOD     10   STEP        1

 LAYER ROW COL. STREAM  RCH.  FLOW INTO     FLOW TO   FLOW OUT OF   OVRLND.     DIRECT     STREAM       STREAM     STREAM     STREAM   STREAMBED  STREAMBED
                SEG.NO.  NO.  STRM. RCH.    AQUIFER    STRM. RCH.    RUNOFF     PRECIP       ET          HEAD       DEPTH      WIDTH   CONDCTNC.   GRADIENT

   1   13    1     1     1    1.0000E+05 -1.8906E+03   1.0189E+05  0.000E+00  0.000E+00  0.000E+00  4.84068E+01  1.455E-01  2.000E+01  2.000E+04 -9.453E-02
   1   13    2     1     2    1.0189E+05 -2.8101E+03   1.0470E+05  0.000E+00  0.000E+00  0.000E+00  4.79316E+01  1.475E-01  2.000E+01  2.000E+04 -1.405E-01
   1   14    3     1     3    1.0470E+05 -4.9109E+02   1.0519E+05  0.000E+00  0.000E+00  0.000E+00  4.74557E+01  1.489E-01  2.000E+01  2.000E+04 -2.455E-02
   1   15    4     1     4    1.0519E+05 -4.5801E+02   1.0565E+05  0.000E+00  0.000E+00  0.000E+00  4.69789E+01  1.493E-01  2.000E+01  2.000E+04 -2.290E-02
   1   16    5     1     5    1.0565E+05 -1.8793E+03   1.0753E+05  0.000E+00  0.000E+00  0.000E+00  4.65026E+01  1.503E-01  2.000E+01  2.000E+04 -9.396E-02
   1   16    6     1     6    1.0753E+05 -1.0675E+03   1.0860E+05  0.000E+00  0.000E+00  0.000E+00  4.60265E+01  1.515E-01  2.000E+01  2.000E+04 -5.338E-02
   1   16    7     1     7    1.0860E+05 -9.7378E+02   1.0957E+05  0.000E+00  0.000E+00  0.000E+00  4.55501E+01  1.524E-01  2.000E+01  2.000E+04 -4.869E-02
   1   16    8     1     8    1.0957E+05 -9.6659E+02   1.1054E+05  0.000E+00  0.000E+00  0.000E+00  4.50737E+01  1.532E-01  2.000E+01  2.000E+04 -4.833E-02
   1   16    9     1     9    1.1054E+05 -9.5634E+02   1.1149E+05  0.000E+00  0.000E+00  0.000E+00  4.45972E+01  1.540E-01  2.000E+01  2.000E+04 -4.782E-02
   1   16   10     1    10    1.1149E+05 -9.1372E+02   1.1241E+05  0.000E+00  0.000E+00  0.000E+00  4.41207E+01  1.548E-01  2.000E+01  2.000E+04 -4.569E-02
   1   16   11     1    11    1.1241E+05 -8.3122E+02   1.1324E+05  0.000E+00  0.000E+00  0.000E+00  4.36441E+01  1.555E-01  2.000E+01  2.000E+04 -4.156E-02
   1   16   12     1    12    1.1324E+05 -9.1305E+02   1.1415E+05  0.000E+00  0.000E+00  0.000E+00  4.31676E+01  1.562E-01  2.000E+01  2.000E+04 -4.565E-02
   1   15   13     1    13    1.1415E+05 -2.2911E+02   1.1438E+05  0.000E+00  0.000E+00  0.000E+00  4.26908E+01  1.567E-01  2.000E+01  2.000E+04 -1.146E-02
   1   14   14     1    14    1.1438E+05  4.1402E+02   1.1397E+05  0.000E+00  0.000E+00  0.000E+00  4.22134E+01  1.566E-01  2.000E+01  2.000E+04  2.070E-02
   1   13   15     1    15    1.1397E+05  1.0471E+03   1.1292E+05  0.000E+00  0.000E+00  0.000E+00  4.17356E+01  1.560E-01  2.000E+01  2.000E+04  5.236E-02
   1   12   16     1    16    1.1292E+05  4.0215E+02   1.1252E+05  0.000E+00  0.000E+00  0.000E+00  4.12577E+01  1.554E-01  2.000E+01  2.000E+04  2.011E-02
   1   12   17     1    17    1.1252E+05 -9.5369E+02   1.1347E+05  0.000E+00  0.000E+00  0.000E+00  4.07807E+01  1.557E-01  2.000E+01  2.000E+04 -4.768E-02
   1   12   18     1    18    1.1347E+05 -1.2808E+03   1.1475E+05  0.000E+00  0.000E+00  0.000E+00  4.03043E+01  1.566E-01  2.000E+01  2.000E+04 -6.404E-02
   1   12   19     1    19    1.1475E+05 -2.0593E+03   1.1681E+05  0.000E+00  0.000E+00  0.000E+00  3.98284E+01  1.579E-01  2.000E+01  2.000E+04 -1.030E-01
   1   13   20     1    20    1.1681E+05 -1.4895E+03   1.1830E+05  0.000E+00  0.000E+00  0.000E+00  3.93526E+01  1.594E-01  2.000E+01  2.000E+04 -7.448E-02
   1   14   21     1    21    1.1830E+05 -1.0188E+03   1.1932E+05  0.000E+00  0.000E+00  0.000E+00  3.88763E+01  1.604E-01  2.000E+01  2.000E+04 -5.094E-02
   1   14   22     1    22    1.1932E+05  4.8350E+03   1.1448E+05  0.000E+00  0.000E+00  0.000E+00  3.83975E+01  1.589E-01  2.000E+01  2.000E+04  2.418E-01
   1    9   30     2     1    5.0000E+04 -9.3861E+02   5.0939E+04  0.000E+00  0.000E+00  0.000E+00  4.02415E+01  1.165E-01  2.000E+01  2.000E+04 -4.693E-02
   1    9   29     2     2    5.0939E+04 -1.2303E+03   5.2169E+04  0.000E+00  0.000E+00  0.000E+00  3.99930E+01  1.180E-01  2.000E+01  2.000E+04 -6.151E-02
   1    9   28     2     3    5.2169E+04 -1.4693E+03   5.3638E+04  0.000E+00  0.000E+00  0.000E+00  3.97449E+01  1.199E-01  2.000E+01  2.000E+04 -7.347E-02
   1    9   27     2     4    5.3638E+04 -2.7466E+03   5.6385E+04  0.000E+00  0.000E+00  0.000E+00  3.94977E+01  1.227E-01  2.000E+01  2.000E+04 -1.373E-01
   1   10   26     2     5    5.6385E+04 -1.9647E+03   5.8350E+04  0.000E+00  0.000E+00  0.000E+00  3.92508E+01  1.258E-01  2.000E+01  2.000E+04 -9.823E-02
   1   11   25     2     6    5.8350E+04 -1.7396E+03   6.0089E+04  0.000E+00  0.000E+00  0.000E+00  3.90032E+01  1.282E-01  2.000E+01  2.000E+04 -8.698E-02
   1   12   24     2     7    6.0089E+04 -1.7549E+03   6.1844E+04  0.000E+00  0.000E+00  0.000E+00  3.87555E+01  1.305E-01  2.000E+01  2.000E+04 -8.774E-02
   1   13   23     2     8    6.1844E+04 -3.4586E+02   6.2190E+04  0.000E+00  0.000E+00  0.000E+00  3.85068E+01  1.318E-01  2.000E+01  2.000E+04 -1.729E-02
   1   14   22     2     9    6.2190E+04  2.0009E+03   6.0189E+04  0.000E+00  0.000E+00  0.000E+00  3.82558E+01  1.308E-01  2.000E+01  2.000E+04  1.000E-01
   1   14   22     3     1    1.7467E+05 -8.5997E+03   1.8327E+05  0.000E+00  0.000E+00  0.000E+00  3.77258E+01  1.702E-01  2.000E+01  2.000E+04 -4.300E-01
   1   15   23     3     2    1.8327E+05 -4.3570E+02   1.8371E+05  0.000E+00  0.000E+00  0.000E+00  3.68394E+01  1.728E-01  2.000E+01  2.000E+04 -2.179E-02
   1   15   24     3     3    1.8371E+05 -2.4504E+02   1.8395E+05  0.000E+00  0.000E+00  0.000E+00  3.59507E+01  1.730E-01  2.000E+01  2.000E+04 -1.225E-02
   1   15   25     3     4    1.8395E+05 -2.7393E+02   1.8423E+05  0.000E+00  0.000E+00  0.000E+00  3.50620E+01  1.731E-01  2.000E+01  2.000E+04 -1.370E-02
   1   15   26     3     5    1.8423E+05 -3.9478E+02   1.8462E+05  0.000E+00  0.000E+00  0.000E+00  3.41733E+01  1.733E-01  2.000E+01  2.000E+04 -1.974E-02
   1   16   27     3     6    1.8462E+05 -4.0448E+02   1.8503E+05  0.000E+00  0.000E+00  0.000E+00  3.32846E+01  1.735E-01  2.000E+01  2.000E+04 -2.022E-02
   1   17   28     3     7    1.8503E+05 -1.7055E+03   1.8673E+05  0.000E+00  0.000E+00  0.000E+00  3.23963E+01  1.741E-01  2.000E+01  2.000E+04 -8.528E-02
   1   18   29     3     8    1.8673E+05 -2.8749E+03   1.8961E+05  0.000E+00  0.000E+00  0.000E+00  3.15087E+01  1.754E-01  2.000E+01  2.000E+04 -1.437E-01
   1   18   30     3     9    1.8961E+05 -3.2467E+03   1.9285E+05  0.000E+00  0.000E+00  0.000E+00  3.06216E+01  1.771E-01  2.000E+01  2.000E+04 -1.623E-01



1
              HEAD IN LAYER   1 AT END OF TIME STEP   1 IN STRESS PERIOD   10
  ---------------------------------------------------------------------------

          1      2      3      4      5      6      7      8      9     10
         11     12     13     14     15     16     17     18     19     20
         21     22     23     24     25     26     27     28     29     30
 .........................................................................
   1  ****** ****** ****** ****** ****** ****** ****** ****** ****** ******
      ****** ****** ****** ****** ****** ****** ****** ****** ****** ******
      ****** ****** ****** ****** ****** ****** ****** ****** ****** ******
   2  ****** ****** ****** ****** ****** ****** ****** ****** ****** ******
      ****** ****** ****** ****** ****** ****** ****** ****** ****** ******
      ****** ****** ****** ****** ****** ****** ****** ****** ****** ******
   3  ****** ****** ****** ****** ****** ****** ****** ****** ****** ******
      ****** ****** ****** ****** ****** ****** ****** ****** ****** ******
      ****** ****** ****** ****** ****** ****** ****** ****** ****** ******
   4  ****** ****** ****** ****** ****** ****** ****** ****** ****** ******
      ****** ****** ****** ****** ****** ****** ****** ****** ****** ******
      ****** ****** ****** ****** ****** ****** ****** ****** ****** ******
   5  ****** ****** ****** ****** ****** ****** ****** ****** ****** ******
      ****** ****** ****** ****** ****** ****** ****** ****** ****** ******
      ****** ****** ****** ****** ****** ****** ****** ****** ****** ******
   6  ****** ****** ****** ****** ****** ****** ****** ****** ****** ******
      ****** ****** ****** ****** ****** ****** ****** ****** ****** ******
      ****** ****** ****** ****** ****** ****** ****** ****** ****** ******
   7  ****** ****** ****** ****** ****** ****** ****** ****** ****** ******
      ****** ****** ****** ****** ****** ****** ****** ****** ****** ******
      ****** ****** ****** ****** ****** ****** ****** ****** ****** ******
   8  ****** ****** ****** ****** ****** ****** ****** ****** ****** ******
      ****** ****** ****** ****** ****** ****** ****** ****** ****** ******
      ****** ****** ****** ****** ****** ****** ****** ****** ****** ******
   9  ****** ****** ****** ****** ****** ****** ****** ****** ****** ******
      ****** ****** ****** ****** ****** ****** ****** ****** ****** ******
      ****** ****** ****** ****** ****** ****** ****** ****** ****** ******
  10  ****** ****** ****** ****** ****** ****** ****** ****** ****** ******
      ****** ****** ****** ****** ****** ****** ****** ****** ****** ******
      ****** ****** ****** ****** ****** ****** ****** ****** ****** ******
  11  ****** ****** ****** ****** ****** ****** ****** ****** ****** ******
      ****** ****** ****** ****** ****** ****** ****** ****** ****** ******
      ****** ****** ****** ****** ****** ****** ****** ****** ****** ******
  12  ****** ****** ****** ****** ****** ****** ****** ****** ****** ******
      ****** ****** ****** ****** ****** ****** ****** ****** ****** ******
      ****** ****** ****** ****** ****** ****** ****** ****** ****** ******
  13  ****** ****** ****** ****** ****** ****** ****** ****** ****** ******
      ****** ****** ****** ****** ****** ****** ****** ****** ****** ******
      ****** ****** ****** ****** ****** ****** ****** ****** ****** ******
  14  ****** ****** ****** ****** ****** ****** ****** ****** ****** ******
      ****** ****** ****** ****** ****** ****** ****** ****** ****** ******
      ****** ****** ****** ****** ****** ****** ****** ****** ****** ******
  15  ****** ****** ****** ****** ****** ****** ****** ****** ****** ******
      ****** ****** ****** ****** ****** ****** ****** ****** ****** ******
      ****** ****** ****** ****** ****** ****** ****** ****** ****** ******
  16  ****** ****** ****** ****** ****** ****** ****** ****** ****** ******
      ****** ****** ****** ****** ****** ****** ****** ****** ****** ******
      ****** ****** ****** ****** ****** ****** ****** ****** ****** ******
  17  ****** ****** ****** ****** ****** ****** ****** ****** ****** ******
      ****** ****** ****** ****** ****** ****** ****** ****** ****** ******
      ****** ****** ****** ****** ****** ****** ****** ****** ****** ******
  18  ****** ****** ****** ****** ****** ****** ****** ****** ****** ******
      ****** ****** ****** ****** ****** ****** ****** ****** ****** ******
      ****** ****** ****** ****** ****** ****** ****** ****** ****** ******
  19  ****** ****** ****** ****** ****** ****** ****** ****** ****** ******
      ****** ****** ****** ****** ****** ****** ****** ****** ****** ******
      ****** ****** ****** ****** ****** ****** ****** ****** ****** ******
  20  ****** ****** ****** ****** ****** ****** ****** ****** ****** ******
      ****** ****** ****** ****** ****** ****** ****** ****** ****** ******
      ****** ****** ****** ****** ****** ****** ****** ****** ****** ******
  21  ****** ****** ****** ****** ****** ****** ****** ****** ****** ******
      ****** ****** ****** ****** ****** ****** ****** ****** ****** ******
      ****** ****** ****** ****** ****** ****** ****** ****** ****** ******
  22  ****** ****** ****** ****** ****** ****** ****** ****** ****** ******
      ****** ****** ****** ****** ****** ****** ****** ****** ****** ******
      ****** ****** ****** ****** ****** ****** ****** ****** ****** ******
  23  ****** ****** ****** ****** ****** ****** ****** ****** ****** ******
      ****** ****** ****** ****** ****** ****** ****** ****** ****** ******
      ****** ****** ****** ****** ****** ****** ****** ****** ****** ******
  24  ****** ****** ****** ****** ****** ****** ****** ****** ****** ******
      ****** ****** ****** ****** ****** ****** ****** ****** ****** ******
      ****** ****** ****** ****** ****** ****** ****** ****** ****** ******
  25  ****** ****** ****** ****** ****** ****** ****** ****** ****** ******
      ****** ****** ****** ****** ****** ****** ****** ****** ****** ******
      ****** ****** ****** ****** ****** ****** ****** ****** ****** ******

 HEAD WILL BE SAVED ON UNIT   51 AT END OF TIME STEP    1, STRESS PERIOD   10
1
  VOLUMETRIC BUDGET FOR ENTIRE MODEL AT END OF TIME STEP    1, STRESS PERIOD  10
  ------------------------------------------------------------------------------

     CUMULATIVE VOLUMES      L**3       RATES FOR THIS TIME STEP      L**3/T
     ------------------                 ------------------------

           IN:                                      IN:
           ---                                      ---
             STORAGE =    34496155.8238               STORAGE =           0.0000
       CONSTANT HEAD =    25167374.9607         CONSTANT HEAD =       31313.8480
               WELLS =           0.0000                 WELLS =           0.0000
            RECHARGE =    23901600.0000              RECHARGE =       55200.0000
      STREAM LEAKAGE =     7434165.8381        STREAM LEAKAGE =        8699.1661

            TOTAL IN =    90999296.6226              TOTAL IN =       95213.0141

          OUT:                                     OUT:
          ----                                     ----
             STORAGE =     2303721.6156               STORAGE =       15563.3150
       CONSTANT HEAD =           0.0000         CONSTANT HEAD =           0.0000
               WELLS =    25652052.4018                 WELLS =       28096.4429
            RECHARGE =           0.0000              RECHARGE =           0.0000
      STREAM LEAKAGE =    63043524.1887        STREAM LEAKAGE =       51553.2523

           TOTAL OUT =    90999298.2061             TOTAL OUT =       95213.0103

            IN - OUT =          -1.5835              IN - OUT =       3.8534E-03

 PERCENT DISCREPANCY =          -0.00     PERCENT DISCREPANCY =           0.00






         TIME SUMMARY AT END OF TIME STEP    1 IN STRESS PERIOD   10
                    SECONDS     MINUTES      HOURS       DAYS        YEARS
                    -----------------------------------------------------------
   TIME STEP LENGTH 7.86240E+06 1.31040E+05  2184.0      91.000     0.24914    
 STRESS PERIOD TIME 7.86240E+06 1.31040E+05  2184.0      91.000     0.24914    
         TOTAL TIME 7.88832E+07 1.31472E+06  21912.      913.00      2.4997    
1
1
                            STRESS PERIOD NO.   11, LENGTH =   91.00000    
                            -----------------------------------------------

                              NUMBER OF TIME STEPS =     1

                               MULTIPLIER FOR DELT =     1.500

                            INITIAL TIME STEP SIZE =   91.00000    

 WELL NO.  LAYER   ROW   COL   STRESS RATE         
 --------------------------------------------------
      1      1     18     24      -1560.    
      2      1     13      7      -1528.    
      3      1     19     17      -9348.    
      4      1     11     14     -0.1566E+05

      4 WELLS

                 RECHARGE =   0.00000    

 REUSING STREAM SEGMENT DATA FROM LAST STRESS PERIOD
 
 SOLVING FOR HEAD 


     7 CALLS TO PCG ROUTINE FOR TIME STEP   1 IN STRESS PERIOD   11
    26 TOTAL ITERATIONS

 OUTPUT CONTROL FOR STRESS PERIOD   11   TIME STEP    1
    SAVE BUDGET
    SAVE HEAD FOR ALL LAYERS
    PRINT HEAD FOR ALL LAYERS
 UBDSV2 SAVING "STREAMFLOW OUT  " ON UNIT  50 AT TIME STEP  1, STRESS PERIOD  11



 STREAM LISTING     PERIOD     11   STEP        1

 LAYER ROW COL. STREAM  RCH.  FLOW INTO     FLOW TO   FLOW OUT OF   OVRLND.     DIRECT     STREAM       STREAM     STREAM     STREAM   STREAMBED  STREAMBED
                SEG.NO.  NO.  STRM. RCH.    AQUIFER    STRM. RCH.    RUNOFF     PRECIP       ET          HEAD       DEPTH      WIDTH   CONDCTNC.   GRADIENT

   1   13    1     1     1    1.0000E+05 -1.3198E+03   1.0132E+05  0.000E+00  0.000E+00  0.000E+00  4.84066E+01  1.452E-01  2.000E+01  2.000E+04 -6.599E-02
   1   13    2     1     2    1.0132E+05 -2.1742E+03   1.0349E+05  0.000E+00  0.000E+00  0.000E+00  4.79308E+01  1.467E-01  2.000E+01  2.000E+04 -1.087E-01
   1   14    3     1     3    1.0349E+05 -2.5946E+02   1.0375E+05  0.000E+00  0.000E+00  0.000E+00  4.74546E+01  1.478E-01  2.000E+01  2.000E+04 -1.297E-02
   1   15    4     1     4    1.0375E+05 -2.1547E+02   1.0397E+05  0.000E+00  0.000E+00  0.000E+00  4.69775E+01  1.480E-01  2.000E+01  2.000E+04 -1.077E-02
   1   16    5     1     5    1.0397E+05 -1.1908E+03   1.0516E+05  0.000E+00  0.000E+00  0.000E+00  4.65009E+01  1.486E-01  2.000E+01  2.000E+04 -5.954E-02
   1   16    6     1     6    1.0516E+05 -6.5254E+02   1.0581E+05  0.000E+00  0.000E+00  0.000E+00  4.60244E+01  1.494E-01  2.000E+01  2.000E+04 -3.263E-02
   1   16    7     1     7    1.0581E+05 -5.7636E+02   1.0639E+05  0.000E+00  0.000E+00  0.000E+00  4.55476E+01  1.499E-01  2.000E+01  2.000E+04 -2.882E-02
   1   16    8     1     8    1.0639E+05 -5.7469E+02   1.0696E+05  0.000E+00  0.000E+00  0.000E+00  4.50708E+01  1.504E-01  2.000E+01  2.000E+04 -2.873E-02
   1   16    9     1     9    1.0696E+05 -5.6674E+02   1.0753E+05  0.000E+00  0.000E+00  0.000E+00  4.45940E+01  1.509E-01  2.000E+01  2.000E+04 -2.834E-02
   1   16   10     1    10    1.0753E+05 -5.2533E+02   1.0806E+05  0.000E+00  0.000E+00  0.000E+00  4.41172E+01  1.513E-01  2.000E+01  2.000E+04 -2.627E-02
   1   16   11     1    11    1.0806E+05 -4.4117E+02   1.0850E+05  0.000E+00  0.000E+00  0.000E+00  4.36404E+01  1.517E-01  2.000E+01  2.000E+04 -2.206E-02
   1   16   12     1    12    1.0850E+05 -2.6658E+02   1.0876E+05  0.000E+00  0.000E+00  0.000E+00  4.31634E+01  1.520E-01  2.000E+01  2.000E+04 -1.333E-02
   1   15   13     1    13    1.0876E+05  4.6083E+02   1.0830E+05  0.000E+00  0.000E+00  0.000E+00  4.26860E+01  1.519E-01  2.000E+01  2.000E+04  2.304E-02
   1   14   14     1    14    1.0830E+05  1.1220E+03   1.0718E+05  0.000E+00  0.000E+00  0.000E+00  4.22081E+01  1.513E-01  2.000E+01  2.000E+04  5.610E-02
   1   13   15     1    15    1.0718E+05  1.7497E+03   1.0543E+05  0.000E+00  0.000E+00  0.000E+00  4.17296E+01  1.501E-01  2.000E+01  2.000E+04  8.749E-02
   1   12   16     1    16    1.0543E+05  1.0816E+03   1.0435E+05  0.000E+00  0.000E+00  0.000E+00  4.12511E+01  1.489E-01  2.000E+01  2.000E+04  5.408E-02
   1   12   17     1    17    1.0435E+05 -4.4595E+02   1.0479E+05  0.000E+00  0.000E+00  0.000E+00  4.07736E+01  1.486E-01  2.000E+01  2.000E+04 -2.230E-02
   1   12   18     1    18    1.0479E+05 -7.8099E+02   1.0558E+05  0.000E+00  0.000E+00  0.000E+00  4.02968E+01  1.491E-01  2.000E+01  2.000E+04 -3.905E-02
   1   12   19     1    19    1.0558E+05 -1.4458E+03   1.0702E+05  0.000E+00  0.000E+00  0.000E+00  3.98205E+01  1.501E-01  2.000E+01  2.000E+04 -7.229E-02
   1   13   20     1    20    1.0702E+05 -8.7682E+02   1.0790E+05  0.000E+00  0.000E+00  0.000E+00  3.93442E+01  1.510E-01  2.000E+01  2.000E+04 -4.384E-02
   1   14   21     1    21    1.0790E+05 -4.2174E+02   1.0832E+05  0.000E+00  0.000E+00  0.000E+00  3.88675E+01  1.516E-01  2.000E+01  2.000E+04 -2.109E-02
   1   14   22     1    22    1.0832E+05  4.9774E+03   1.0334E+05  0.000E+00  0.000E+00  0.000E+00  3.83883E+01  1.497E-01  2.000E+01  2.000E+04  2.489E-01
   1    9   30     2     1    5.0000E+04 -4.5046E+02   5.0450E+04  0.000E+00  0.000E+00  0.000E+00  4.02412E+01  1.162E-01  2.000E+01  2.000E+04 -2.252E-02
   1    9   29     2     2    5.0450E+04 -7.4517E+02   5.1196E+04  0.000E+00  0.000E+00  0.000E+00  3.99920E+01  1.170E-01  2.000E+01  2.000E+04 -3.726E-02
   1    9   28     2     3    5.1196E+04 -9.8639E+02   5.2182E+04  0.000E+00  0.000E+00  0.000E+00  3.97432E+01  1.182E-01  2.000E+01  2.000E+04 -4.932E-02
   1    9   27     2     4    5.2182E+04 -2.1065E+03   5.4289E+04  0.000E+00  0.000E+00  0.000E+00  3.94953E+01  1.203E-01  2.000E+01  2.000E+04 -1.053E-01
   1   10   26     2     5    5.4289E+04 -1.3101E+03   5.5599E+04  0.000E+00  0.000E+00  0.000E+00  3.92476E+01  1.226E-01  2.000E+01  2.000E+04 -6.551E-02
   1   11   25     2     6    5.5599E+04 -1.1089E+03   5.6708E+04  0.000E+00  0.000E+00  0.000E+00  3.89992E+01  1.242E-01  2.000E+01  2.000E+04 -5.544E-02
   1   12   24     2     7    5.6708E+04 -1.1810E+03   5.7889E+04  0.000E+00  0.000E+00  0.000E+00  3.87507E+01  1.257E-01  2.000E+01  2.000E+04 -5.905E-02
   1   13   23     2     8    5.7889E+04 -1.5989E+02   5.8049E+04  0.000E+00  0.000E+00  0.000E+00  3.85016E+01  1.266E-01  2.000E+01  2.000E+04 -7.994E-03
   1   14   22     2     9    5.8049E+04  2.2168E+03   5.5832E+04  0.000E+00  0.000E+00  0.000E+00  3.82503E+01  1.253E-01  2.000E+01  2.000E+04  1.108E-01
   1   14   22     3     1    1.5917E+05 -8.4542E+03   1.6763E+05  0.000E+00  0.000E+00  0.000E+00  3.77167E+01  1.612E-01  2.000E+01  2.000E+04 -4.227E-01
   1   15   23     3     2    1.6763E+05 -2.4358E+02   1.6787E+05  0.000E+00  0.000E+00  0.000E+00  3.68304E+01  1.637E-01  2.000E+01  2.000E+04 -1.218E-02
   1   15   24     3     3    1.6787E+05 -7.9873E+01   1.6795E+05  0.000E+00  0.000E+00  0.000E+00  3.59416E+01  1.638E-01  2.000E+01  2.000E+04 -3.994E-03
   1   15   25     3     4    1.6795E+05 -1.0493E+02   1.6806E+05  0.000E+00  0.000E+00  0.000E+00  3.50528E+01  1.639E-01  2.000E+01  2.000E+04 -5.247E-03
   1   15   26     3     5    1.6806E+05 -1.9907E+02   1.6826E+05  0.000E+00  0.000E+00  0.000E+00  3.41640E+01  1.640E-01  2.000E+01  2.000E+04 -9.953E-03
   1   16   27     3     6    1.6826E+05 -1.8143E+02   1.6844E+05  0.000E+00  0.000E+00  0.000E+00  3.32752E+01  1.641E-01  2.000E+01  2.000E+04 -9.072E-03
   1   17   28     3     7    1.6844E+05 -1.0956E+03   1.6953E+05  0.000E+00  0.000E+00  0.000E+00  3.23867E+01  1.644E-01  2.000E+01  2.000E+04 -5.478E-02
   1   18   29     3     8    1.6953E+05 -2.2527E+03   1.7179E+05  0.000E+00  0.000E+00  0.000E+00  3.14987E+01  1.654E-01  2.000E+01  2.000E+04 -1.126E-01
   1   18   30     3     9    1.7179E+05 -2.7573E+03   1.7454E+05  0.000E+00  0.000E+00  0.000E+00  3.06113E+01  1.669E-01  2.000E+01  2.000E+04 -1.379E-01



1
              HEAD IN LAYER   1 AT END OF TIME STEP   1 IN STRESS PERIOD   11
  ---------------------------------------------------------------------------

          1      2      3      4      5      6      7      8      9     10
         11     12     13     14     15     16     17     18     19     20
         21     22     23     24     25     26     27     28     29     30
 .........................................................................
   1  ****** ****** ****** ****** ****** ****** ****** ****** ****** ******
      ****** ****** ****** ****** ****** ****** ****** ****** ****** ******
      ****** ****** ****** ****** ****** ****** ****** ****** ****** ******
   2  ****** ****** ****** ****** ****** ****** ****** ****** ****** ******
      ****** ****** ****** ****** ****** ****** ****** ****** ****** ******
      ****** ****** ****** ****** ****** ****** ****** ****** ****** ******
   3  ****** ****** ****** ****** ****** ****** ****** ****** ****** ******
      ****** ****** ****** ****** ****** ****** ****** ****** ****** ******
      ****** ****** ****** ****** ****** ****** ****** ****** ****** ******
   4  ****** ****** ****** ****** ****** ****** ****** ****** ****** ******
      ****** ****** ****** ****** ****** ****** ****** ****** ****** ******
      ****** ****** ****** ****** ****** ****** ****** ****** ****** ******
   5  ****** ****** ****** ****** ****** ****** ****** ****** ****** ******
      ****** ****** ****** ****** ****** ****** ****** ****** ****** ******
      ****** ****** ****** ****** ****** ****** ****** ****** ****** ******
   6  ****** ****** ****** ****** ****** ****** ****** ****** ****** ******
      ****** ****** ****** ****** ****** ****** ****** ****** ****** ******
      ****** ****** ****** ****** ****** ****** ****** ****** ****** ******
   7  ****** ****** ****** ****** ****** ****** ****** ****** ****** ******
      ****** ****** ****** ****** ****** ****** ****** ****** ****** ******
      ****** ****** ****** ****** ****** ****** ****** ****** ****** ******
   8  ****** ****** ****** ****** ****** ****** ****** ****** ****** ******
      ****** ****** ****** ****** ****** ****** ****** ****** ****** ******
      ****** ****** ****** ****** ****** ****** ****** ****** ****** ******
   9  ****** ****** ****** ****** ****** ****** ****** ****** ****** ******
      ****** ****** ****** ****** ****** ****** ****** ****** ****** ******
      ****** ****** ****** ****** ****** ****** ****** ****** ****** ******
  10  ****** ****** ****** ****** ****** ****** ****** ****** ****** ******
      ****** ****** ****** ****** ****** ****** ****** ****** ****** ******
      ****** ****** ****** ****** ****** ****** ****** ****** ****** ******
  11  ****** ****** ****** ****** ****** ****** ****** ****** ****** ******
      ****** ****** ****** ****** ****** ****** ****** ****** ****** ******
      ****** ****** ****** ****** ****** ****** ****** ****** ****** ******
  12  ****** ****** ****** ****** ****** ****** ****** ****** ****** ******
      ****** ****** ****** ****** ****** ****** ****** ****** ****** ******
      ****** ****** ****** ****** ****** ****** ****** ****** ****** ******
  13  ****** ****** ****** ****** ****** ****** ****** ****** ****** ******
      ****** ****** ****** ****** ****** ****** ****** ****** ****** ******
      ****** ****** ****** ****** ****** ****** ****** ****** ****** ******
  14  ****** ****** ****** ****** ****** ****** ****** ****** ****** ******
      ****** ****** ****** ****** ****** ****** ****** ****** ****** ******
      ****** ****** ****** ****** ****** ****** ****** ****** ****** ******
  15  ****** ****** ****** ****** ****** ****** ****** ****** ****** ******
      ****** ****** ****** ****** ****** ****** ****** ****** ****** ******
      ****** ****** ****** ****** ****** ****** ****** ****** ****** ******
  16  ****** ****** ****** ****** ****** ****** ****** ****** ****** ******
      ****** ****** ****** ****** ****** ****** ****** ****** ****** ******
      ****** ****** ****** ****** ****** ****** ****** ****** ****** ******
  17  ****** ****** ****** ****** ****** ****** ****** ****** ****** ******
      ****** ****** ****** ****** ****** ****** ****** ****** ****** ******
      ****** ****** ****** ****** ****** ****** ****** ****** ****** ******
  18  ****** ****** ****** ****** ****** ****** ****** ****** ****** ******
      ****** ****** ****** ****** ****** ****** ****** ****** ****** ******
      ****** ****** ****** ****** ****** ****** ****** ****** ****** ******
  19  ****** ****** ****** ****** ****** ****** ****** ****** ****** ******
      ****** ****** ****** ****** ****** ****** ****** ****** ****** ******
      ****** ****** ****** ****** ****** ****** ****** ****** ****** ******
  20  ****** ****** ****** ****** ****** ****** ****** ****** ****** ******
      ****** ****** ****** ****** ****** ****** ****** ****** ****** ******
      ****** ****** ****** ****** ****** ****** ****** ****** ****** ******
  21  ****** ****** ****** ****** ****** ****** ****** ****** ****** ******
      ****** ****** ****** ****** ****** ****** ****** ****** ****** ******
      ****** ****** ****** ****** ****** ****** ****** ****** ****** ******
  22  ****** ****** ****** ****** ****** ****** ****** ****** ****** ******
      ****** ****** ****** ****** ****** ****** ****** ****** ****** ******
      ****** ****** ****** ****** ****** ****** ****** ****** ****** ******
  23  ****** ****** ****** ****** ****** ****** ****** ****** ****** ******
      ****** ****** ****** ****** ****** ****** ****** ****** ****** ******
      ****** ****** ****** ****** ****** ****** ****** ****** ****** ******
  24  ****** ****** ****** ****** ****** ****** ****** ****** ****** ******
      ****** ****** ****** ****** ****** ****** ****** ****** ****** ******
      ****** ****** ****** ****** ****** ****** ****** ****** ****** ******
  25  ****** ****** ****** ****** ****** ****** ****** ****** ****** ******
      ****** ****** ****** ****** ****** ****** ****** ****** ****** ******
      ****** ****** ****** ****** ****** ****** ****** ****** ****** ******

 HEAD WILL BE SAVED ON UNIT   51 AT END OF TIME STEP    1, STRESS PERIOD   11
1
  VOLUMETRIC BUDGET FOR ENTIRE MODEL AT END OF TIME STEP    1, STRESS PERIOD  11
  ------------------------------------------------------------------------------

     CUMULATIVE VOLUMES      L**3       RATES FOR THIS TIME STEP      L**3/T
     ------------------                 ------------------------

           IN:                                      IN:
           ---                                      ---
             STORAGE =    36136952.9265               STORAGE =       18030.7374
       CONSTANT HEAD =    28316798.1701         CONSTANT HEAD =       34609.0463
               WELLS =           0.0000                 WELLS =           0.0000
            RECHARGE =    23901600.0000              RECHARGE =           0.0000
      STREAM LEAKAGE =     8490528.3053        STREAM LEAKAGE =       11608.3788

            TOTAL IN =    96845879.4019              TOTAL IN =       64248.1624

          OUT:                                     OUT:
          ----                                     ----
             STORAGE =     2303721.6156               STORAGE =           0.0000
       CONSTANT HEAD =           0.0000         CONSTANT HEAD =           0.0000
               WELLS =    28208828.7091                 WELLS =       28096.4429
            RECHARGE =           0.0000              RECHARGE =           0.0000
      STREAM LEAKAGE =    66333331.1200        STREAM LEAKAGE =       36151.7245

           TOTAL OUT =    96845881.4447             TOTAL OUT =       64248.1675

            IN - OUT =          -2.0427              IN - OUT =      -5.0465E-03

 PERCENT DISCREPANCY =          -0.00     PERCENT DISCREPANCY =          -0.00






         TIME SUMMARY AT END OF TIME STEP    1 IN STRESS PERIOD   11
                    SECONDS     MINUTES      HOURS       DAYS        YEARS
                    -----------------------------------------------------------
   TIME STEP LENGTH 7.86240E+06 1.31040E+05  2184.0      91.000     0.24914    
 STRESS PERIOD TIME 7.86240E+06 1.31040E+05  2184.0      91.000     0.24914    
         TOTAL TIME 8.67456E+07 1.44576E+06  24096.      1004.0      2.7488    
1
1
                            STRESS PERIOD NO.   12, LENGTH =   91.00000    
                            -----------------------------------------------

                              NUMBER OF TIME STEPS =     1

                               MULTIPLIER FOR DELT =     1.500

                            INITIAL TIME STEP SIZE =   91.00000    

 WELL NO.  LAYER   ROW   COL   STRESS RATE         
 --------------------------------------------------
      1      1     18     24      -1560.    
      2      1     13      7      -1528.    
      3      1     19     17      -9348.    
      4      1     11     14     -0.1566E+05

      4 WELLS

                 RECHARGE =  1.000000E-03

 REUSING STREAM SEGMENT DATA FROM LAST STRESS PERIOD
 
 SOLVING FOR HEAD 


     7 CALLS TO PCG ROUTINE FOR TIME STEP   1 IN STRESS PERIOD   12
    24 TOTAL ITERATIONS

 OUTPUT CONTROL FOR STRESS PERIOD   12   TIME STEP    1
    SAVE BUDGET
    SAVE HEAD FOR ALL LAYERS
    PRINT HEAD FOR ALL LAYERS
 UBDSV2 SAVING "STREAMFLOW OUT  " ON UNIT  50 AT TIME STEP  1, STRESS PERIOD  12



 STREAM LISTING     PERIOD     12   STEP        1

 LAYER ROW COL. STREAM  RCH.  FLOW INTO     FLOW TO   FLOW OUT OF   OVRLND.     DIRECT     STREAM       STREAM     STREAM     STREAM   STREAMBED  STREAMBED
                SEG.NO.  NO.  STRM. RCH.    AQUIFER    STRM. RCH.    RUNOFF     PRECIP       ET          HEAD       DEPTH      WIDTH   CONDCTNC.   GRADIENT

   1   13    1     1     1    1.0000E+05 -1.4618E+03   1.0146E+05  0.000E+00  0.000E+00  0.000E+00  4.84066E+01  1.453E-01  2.000E+01  2.000E+04 -7.309E-02
   1   13    2     1     2    1.0146E+05 -2.3266E+03   1.0379E+05  0.000E+00  0.000E+00  0.000E+00  4.79310E+01  1.469E-01  2.000E+01  2.000E+04 -1.163E-01
   1   14    3     1     3    1.0379E+05 -3.3750E+02   1.0413E+05  0.000E+00  0.000E+00  0.000E+00  4.74549E+01  1.481E-01  2.000E+01  2.000E+04 -1.687E-02
   1   15    4     1     4    1.0413E+05 -2.9738E+02   1.0442E+05  0.000E+00  0.000E+00  0.000E+00  4.69779E+01  1.483E-01  2.000E+01  2.000E+04 -1.487E-02
   1   16    5     1     5    1.0442E+05 -1.4002E+03   1.0582E+05  0.000E+00  0.000E+00  0.000E+00  4.65013E+01  1.491E-01  2.000E+01  2.000E+04 -7.001E-02
   1   16    6     1     6    1.0582E+05 -7.8254E+02   1.0661E+05  0.000E+00  0.000E+00  0.000E+00  4.60250E+01  1.500E-01  2.000E+01  2.000E+04 -3.913E-02
   1   16    7     1     7    1.0661E+05 -7.0124E+02   1.0731E+05  0.000E+00  0.000E+00  0.000E+00  4.55483E+01  1.506E-01  2.000E+01  2.000E+04 -3.506E-02
   1   16    8     1     8    1.0731E+05 -6.9853E+02   1.0801E+05  0.000E+00  0.000E+00  0.000E+00  4.50717E+01  1.512E-01  2.000E+01  2.000E+04 -3.493E-02
   1   16    9     1     9    1.0801E+05 -6.9107E+02   1.0870E+05  0.000E+00  0.000E+00  0.000E+00  4.45950E+01  1.518E-01  2.000E+01  2.000E+04 -3.455E-02
   1   16   10     1    10    1.0870E+05 -6.5106E+02   1.0935E+05  0.000E+00  0.000E+00  0.000E+00  4.41183E+01  1.523E-01  2.000E+01  2.000E+04 -3.255E-02
   1   16   11     1    11    1.0935E+05 -5.6922E+02   1.0992E+05  0.000E+00  0.000E+00  0.000E+00  4.36415E+01  1.529E-01  2.000E+01  2.000E+04 -2.846E-02
   1   16   12     1    12    1.0992E+05 -4.6776E+02   1.1038E+05  0.000E+00  0.000E+00  0.000E+00  4.31647E+01  1.533E-01  2.000E+01  2.000E+04 -2.339E-02
   1   15   13     1    13    1.1038E+05  2.4482E+02   1.1014E+05  0.000E+00  0.000E+00  0.000E+00  4.26875E+01  1.534E-01  2.000E+01  2.000E+04  1.224E-02
   1   14   14     1    14    1.1014E+05  9.0570E+02   1.0923E+05  0.000E+00  0.000E+00  0.000E+00  4.22097E+01  1.529E-01  2.000E+01  2.000E+04  4.528E-02
   1   13   15     1    15    1.0923E+05  1.5409E+03   1.0769E+05  0.000E+00  0.000E+00  0.000E+00  4.17314E+01  1.519E-01  2.000E+01  2.000E+04  7.704E-02
   1   12   16     1    16    1.0769E+05  8.9952E+02   1.0679E+05  0.000E+00  0.000E+00  0.000E+00  4.12531E+01  1.509E-01  2.000E+01  2.000E+04  4.498E-02
   1   12   17     1    17    1.0679E+05 -5.9873E+02   1.0739E+05  0.000E+00  0.000E+00  0.000E+00  4.07757E+01  1.507E-01  2.000E+01  2.000E+04 -2.994E-02
   1   12   18     1    18    1.0739E+05 -9.3607E+02   1.0833E+05  0.000E+00  0.000E+00  0.000E+00  4.02991E+01  1.514E-01  2.000E+01  2.000E+04 -4.680E-02
   1   12   19     1    19    1.0833E+05 -1.6376E+03   1.0997E+05  0.000E+00  0.000E+00  0.000E+00  3.98229E+01  1.525E-01  2.000E+01  2.000E+04 -8.188E-02
   1   13   20     1    20    1.0997E+05 -1.0868E+03   1.1105E+05  0.000E+00  0.000E+00  0.000E+00  3.93468E+01  1.536E-01  2.000E+01  2.000E+04 -5.434E-02
   1   14   21     1    21    1.1105E+05 -6.1548E+02   1.1167E+05  0.000E+00  0.000E+00  0.000E+00  3.88702E+01  1.543E-01  2.000E+01  2.000E+04 -3.077E-02
   1   14   22     1    22    1.1167E+05  4.9257E+03   1.0674E+05  0.000E+00  0.000E+00  0.000E+00  3.83911E+01  1.525E-01  2.000E+01  2.000E+04  2.463E-01
   1    9   30     2     1    5.0000E+04 -6.2680E+02   5.0627E+04  0.000E+00  0.000E+00  0.000E+00  4.02413E+01  1.163E-01  2.000E+01  2.000E+04 -3.134E-02
   1    9   29     2     2    5.0627E+04 -9.1945E+02   5.1546E+04  0.000E+00  0.000E+00  0.000E+00  3.99924E+01  1.174E-01  2.000E+01  2.000E+04 -4.597E-02
   1    9   28     2     3    5.1546E+04 -1.1571E+03   5.2703E+04  0.000E+00  0.000E+00  0.000E+00  3.97438E+01  1.188E-01  2.000E+01  2.000E+04 -5.786E-02
   1    9   27     2     4    5.2703E+04 -2.3154E+03   5.5019E+04  0.000E+00  0.000E+00  0.000E+00  3.94962E+01  1.212E-01  2.000E+01  2.000E+04 -1.158E-01
   1   10   26     2     5    5.5019E+04 -1.5397E+03   5.6559E+04  0.000E+00  0.000E+00  0.000E+00  3.92487E+01  1.237E-01  2.000E+01  2.000E+04 -7.699E-02
   1   11   25     2     6    5.6559E+04 -1.3346E+03   5.7893E+04  0.000E+00  0.000E+00  0.000E+00  3.90006E+01  1.256E-01  2.000E+01  2.000E+04 -6.673E-02
   1   12   24     2     7    5.7893E+04 -1.3870E+03   5.9280E+04  0.000E+00  0.000E+00  0.000E+00  3.87524E+01  1.274E-01  2.000E+01  2.000E+04 -6.935E-02
   1   13   23     2     8    5.9280E+04 -2.3750E+02   5.9518E+04  0.000E+00  0.000E+00  0.000E+00  3.85035E+01  1.285E-01  2.000E+01  2.000E+04 -1.188E-02
   1   14   22     2     9    5.9518E+04  2.1477E+03   5.7370E+04  0.000E+00  0.000E+00  0.000E+00  3.82522E+01  1.272E-01  2.000E+01  2.000E+04  1.074E-01
   1   14   22     3     1    1.6411E+05 -8.5043E+03   1.7262E+05  0.000E+00  0.000E+00  0.000E+00  3.77196E+01  1.641E-01  2.000E+01  2.000E+04 -4.252E-01
   1   15   23     3     2    1.7262E+05 -3.1556E+02   1.7293E+05  0.000E+00  0.000E+00  0.000E+00  3.68333E+01  1.666E-01  2.000E+01  2.000E+04 -1.578E-02
   1   15   24     3     3    1.7293E+05 -1.4493E+02   1.7308E+05  0.000E+00  0.000E+00  0.000E+00  3.59446E+01  1.668E-01  2.000E+01  2.000E+04 -7.246E-03
   1   15   25     3     4    1.7308E+05 -1.7127E+02   1.7325E+05  0.000E+00  0.000E+00  0.000E+00  3.50558E+01  1.669E-01  2.000E+01  2.000E+04 -8.563E-03
   1   15   26     3     5    1.7325E+05 -2.7653E+02   1.7353E+05  0.000E+00  0.000E+00  0.000E+00  3.41670E+01  1.670E-01  2.000E+01  2.000E+04 -1.383E-02
   1   16   27     3     6    1.7353E+05 -2.6818E+02   1.7379E+05  0.000E+00  0.000E+00  0.000E+00  3.32783E+01  1.672E-01  2.000E+01  2.000E+04 -1.341E-02
   1   17   28     3     7    1.7379E+05 -1.3163E+03   1.7511E+05  0.000E+00  0.000E+00  0.000E+00  3.23898E+01  1.676E-01  2.000E+01  2.000E+04 -6.581E-02
   1   18   29     3     8    1.7511E+05 -2.4531E+03   1.7756E+05  0.000E+00  0.000E+00  0.000E+00  3.15020E+01  1.687E-01  2.000E+01  2.000E+04 -1.227E-01
   1   18   30     3     9    1.7756E+05 -2.9253E+03   1.8049E+05  0.000E+00  0.000E+00  0.000E+00  3.06147E+01  1.702E-01  2.000E+01  2.000E+04 -1.463E-01



1
              HEAD IN LAYER   1 AT END OF TIME STEP   1 IN STRESS PERIOD   12
  ---------------------------------------------------------------------------

          1      2      3      4      5      6      7      8      9     10
         11     12     13     14     15     16     17     18     19     20
         21     22     23     24     25     26     27     28     29     30
 .........................................................................
   1  ****** ****** ****** ****** ****** ****** ****** ****** ****** ******
      ****** ****** ****** ****** ****** ****** ****** ****** ****** ******
      ****** ****** ****** ****** ****** ****** ****** ****** ****** ******
   2  ****** ****** ****** ****** ****** ****** ****** ****** ****** ******
      ****** ****** ****** ****** ****** ****** ****** ****** ****** ******
      ****** ****** ****** ****** ****** ****** ****** ****** ****** ******
   3  ****** ****** ****** ****** ****** ****** ****** ****** ****** ******
      ****** ****** ****** ****** ****** ****** ****** ****** ****** ******
      ****** ****** ****** ****** ****** ****** ****** ****** ****** ******
   4  ****** ****** ****** ****** ****** ****** ****** ****** ****** ******
      ****** ****** ****** ****** ****** ****** ****** ****** ****** ******
      ****** ****** ****** ****** ****** ****** ****** ****** ****** ******
   5  ****** ****** ****** ****** ****** ****** ****** ****** ****** ******
      ****** ****** ****** ****** ****** ****** ****** ****** ****** ******
      ****** ****** ****** ****** ****** ****** ****** ****** ****** ******
   6  ****** ****** ****** ****** ****** ****** ****** ****** ****** ******
      ****** ****** ****** ****** ****** ****** ****** ****** ****** ******
      ****** ****** ****** ****** ****** ****** ****** ****** ****** ******
   7  ****** ****** ****** ****** ****** ****** ****** ****** ****** ******
      ****** ****** ****** ****** ****** ****** ****** ****** ****** ******
      ****** ****** ****** ****** ****** ****** ****** ****** ****** ******
   8  ****** ****** ****** ****** ****** ****** ****** ****** ****** ******
      ****** ****** ****** ****** ****** ****** ****** ****** ****** ******
      ****** ****** ****** ****** ****** ****** ****** ****** ****** ******
   9  ****** ****** ****** ****** ****** ****** ****** ****** ****** ******
      ****** ****** ****** ****** ****** ****** ****** ****** ****** ******
      ****** ****** ****** ****** ****** ****** ****** ****** ****** ******
  10  ****** ****** ****** ****** ****** ****** ****** ****** ****** ******
      ****** ****** ****** ****** ****** ****** ****** ****** ****** ******
      ****** ****** ****** ****** ****** ****** ****** ****** ****** ******
  11  ****** ****** ****** ****** ****** ****** ****** ****** ****** ******
      ****** ****** ****** ****** ****** ****** ****** ****** ****** ******
      ****** ****** ****** ****** ****** ****** ****** ****** ****** ******
  12  ****** ****** ****** ****** ****** ****** ****** ****** ****** ******
      ****** ****** ****** ****** ****** ****** ****** ****** ****** ******
      ****** ****** ****** ****** ****** ****** ****** ****** ****** ******
  13  ****** ****** ****** ****** ****** ****** ****** ****** ****** ******
      ****** ****** ****** ****** ****** ****** ****** ****** ****** ******
      ****** ****** ****** ****** ****** ****** ****** ****** ****** ******
  14  ****** ****** ****** ****** ****** ****** ****** ****** ****** ******
      ****** ****** ****** ****** ****** ****** ****** ****** ****** ******
      ****** ****** ****** ****** ****** ****** ****** ****** ****** ******
  15  ****** ****** ****** ****** ****** ****** ****** ****** ****** ******
      ****** ****** ****** ****** ****** ****** ****** ****** ****** ******
      ****** ****** ****** ****** ****** ****** ****** ****** ****** ******
  16  ****** ****** ****** ****** ****** ****** ****** ****** ****** ******
      ****** ****** ****** ****** ****** ****** ****** ****** ****** ******
      ****** ****** ****** ****** ****** ****** ****** ****** ****** ******
  17  ****** ****** ****** ****** ****** ****** ****** ****** ****** ******
      ****** ****** ****** ****** ****** ****** ****** ****** ****** ******
      ****** ****** ****** ****** ****** ****** ****** ****** ****** ******
  18  ****** ****** ****** ****** ****** ****** ****** ****** ****** ******
      ****** ****** ****** ****** ****** ****** ****** ****** ****** ******
      ****** ****** ****** ****** ****** ****** ****** ****** ****** ******
  19  ****** ****** ****** ****** ****** ****** ****** ****** ****** ******
      ****** ****** ****** ****** ****** ****** ****** ****** ****** ******
      ****** ****** ****** ****** ****** ****** ****** ****** ****** ******
  20  ****** ****** ****** ****** ****** ****** ****** ****** ****** ******
      ****** ****** ****** ****** ****** ****** ****** ****** ****** ******
      ****** ****** ****** ****** ****** ****** ****** ****** ****** ******
  21  ****** ****** ****** ****** ****** ****** ****** ****** ****** ******
      ****** ****** ****** ****** ****** ****** ****** ****** ****** ******
      ****** ****** ****** ****** ****** ****** ****** ****** ****** ******
  22  ****** ****** ****** ****** ****** ****** ****** ****** ****** ******
      ****** ****** ****** ****** ****** ****** ****** ****** ****** ******
      ****** ****** ****** ****** ****** ****** ****** ****** ****** ******
  23  ****** ****** ****** ****** ****** ****** ****** ****** ****** ******
      ****** ****** ****** ****** ****** ****** ****** ****** ****** ******
      ****** ****** ****** ****** ****** ****** ****** ****** ****** ******
  24  ****** ****** ****** ****** ****** ****** ****** ****** ****** ******
      ****** ****** ****** ****** ****** ****** ****** ****** ****** ******
      ****** ****** ****** ****** ****** ****** ****** ****** ****** ******
  25  ****** ****** ****** ****** ****** ****** ****** ****** ****** ******
      ****** ****** ****** ****** ****** ****** ****** ****** ****** ******
      ****** ****** ****** ****** ****** ****** ****** ****** ****** ******

 HEAD WILL BE SAVED ON UNIT   51 AT END OF TIME STEP    1, STRESS PERIOD   12
1
  VOLUMETRIC BUDGET FOR ENTIRE MODEL AT END OF TIME STEP    1, STRESS PERIOD  12
  ------------------------------------------------------------------------------

     CUMULATIVE VOLUMES      L**3       RATES FOR THIS TIME STEP      L**3/T
     ------------------                 ------------------------

           IN:                                      IN:
           ---                                      ---
             STORAGE =    36138990.1593               STORAGE =          22.3872
       CONSTANT HEAD =    31403495.6116         CONSTANT HEAD =       33919.7521
               WELLS =           0.0000                 WELLS =           0.0000
            RECHARGE =    26413200.0000              RECHARGE =       27600.0000
      STREAM LEAKAGE =     9460982.3153        STREAM LEAKAGE =       10664.3298

            TOTAL IN =   103416668.0862              TOTAL IN =       72206.4691

          OUT:                                     OUT:
          ----                                     ----
             STORAGE =     2572822.6711               STORAGE =        2957.1545
       CONSTANT HEAD =           0.0000         CONSTANT HEAD =           0.0000
               WELLS =    30765605.0164                 WELLS =       28096.4429
            RECHARGE =           0.0000              RECHARGE =           0.0000
      STREAM LEAKAGE =    70078242.3524        STREAM LEAKAGE =       41152.8707

           TOTAL OUT =   103416670.0399             TOTAL OUT =       72206.4681

            IN - OUT =          -1.9537              IN - OUT =       9.7895E-04

 PERCENT DISCREPANCY =          -0.00     PERCENT DISCREPANCY =           0.00






         TIME SUMMARY AT END OF TIME STEP    1 IN STRESS PERIOD   12
                    SECONDS     MINUTES      HOURS       DAYS        YEARS
                    -----------------------------------------------------------
   TIME STEP LENGTH 7.86240E+06 1.31040E+05  2184.0      91.000     0.24914    
 STRESS PERIOD TIME 7.86240E+06 1.31040E+05  2184.0      91.000     0.24914    
         TOTAL TIME 9.46080E+07 1.57680E+06  26280.      1095.0      2.9979    
1

 Run end date and time (yyyy/mm/dd hh:mm:ss): 2019/02/11 13:00:43
 Elapsed run time:  0.073 Seconds

