                                  MODFLOW-2005     
      U.S. GEOLOGICAL SURVEY MODULAR FINITE-DIFFERENCE GROUND-WATER FLOW MODEL
                            VERSION 1.11.00 8/8/2013

 LIST FILE: supply2.lst
                         UNIT   10

 OPENING ..\data\supply.dis
 FILE TYPE:DIS   UNIT   11   STATUS:OLD    
 FORMAT:FORMATTED              ACCESS:SEQUENTIAL          

 OPENING ..\data\supply.ba6
 FILE TYPE:BAS6   UNIT   12   STATUS:OLD    
 FORMAT:FORMATTED              ACCESS:SEQUENTIAL          

 OPENING ..\data\supply.bc6
 FILE TYPE:BCF6   UNIT   13   STATUS:OLD    
 FORMAT:FORMATTED              ACCESS:SEQUENTIAL          

 OPENING ..\data\supply.rch
 FILE TYPE:RCH   UNIT   15   STATUS:OLD    
 FORMAT:FORMATTED              ACCESS:SEQUENTIAL          

 OPENING ..\data\supply2.sfr
 FILE TYPE:SFR   UNIT   16   STATUS:OLD    
 FORMAT:FORMATTED              ACCESS:SEQUENTIAL          

 OPENING ..\data\supply.oc
 FILE TYPE:OC   UNIT   17   STATUS:OLD    
 FORMAT:FORMATTED              ACCESS:SEQUENTIAL          

 OPENING ..\data\supply.pcg
 FILE TYPE:PCG   UNIT   18   STATUS:OLD    
 FORMAT:FORMATTED              ACCESS:SEQUENTIAL          

 OPENING supply2.wel
 FILE TYPE:WEL   UNIT   19   STATUS:OLD    
 FORMAT:FORMATTED              ACCESS:SEQUENTIAL          

 OPENING supply2sf.cbc
 FILE TYPE:DATA(BINARY)   UNIT   50   STATUS:UNKNOWN
 FORMAT:BINARY                 ACCESS:SEQUENTIAL          

 OPENING supply2hd.bhd
 FILE TYPE:DATA(BINARY)   UNIT   51   STATUS:UNKNOWN
 FORMAT:BINARY                 ACCESS:SEQUENTIAL          

 BAS -- BASIC PACKAGE, VERSION 7, 5/2/2005 INPUT READ FROM UNIT   12
 
 MODFLOW was compiled using uniform precision
 Precision of REAL and DOUBLE PRECISION variables:          15

 DISCRETIZATION INPUT DATA READ FROM UNIT   11
    1 LAYERS        25 ROWS        30 COLUMNS
   12 STRESS PERIOD(S) IN SIMULATION
 MODEL TIME UNIT IS DAYS
 MODEL LENGTH UNIT IS UNDEFINED
  Confining bed flag for each layer:
   0

                     DELR =   200.000    

                     DELC =   200.000    

 TOP ELEVATION OF LAYER 1 =  100.0000    

   MODEL LAYER BOTTOM EL. =   0.00000     FOR LAYER   1


 STRESS PERIOD     LENGTH       TIME STEPS     MULTIPLIER FOR DELT    SS FLAG
 ----------------------------------------------------------------------------
        1         92.00000          1                    1.500         TR
        2         91.00000          1                    1.500         TR
        3         91.00000          1                    1.500         TR
        4         91.00000          1                    1.500         TR
        5         92.00000          1                    1.500         TR
        6         91.00000          1                    1.500         TR
        7         91.00000          1                    1.500         TR
        8         91.00000          1                    1.500         TR
        9         92.00000          1                    1.500         TR
       10         91.00000          1                    1.500         TR
       11         91.00000          1                    1.500         TR
       12         91.00000          1                    1.500         TR

 TRANSIENT SIMULATION



 
 #MODOFC transient water supply sample problem                                   
 #                                                                               
 THE FREE FORMAT OPTION HAS BEEN SELECTED



                     BOUNDARY ARRAY FOR LAYER   1
 READING ON UNIT   12 WITH FORMAT: (20I4)              

 AQUIFER HEAD WILL BE SET TO   0.0000     AT ALL NO-FLOW NODES (IBOUND=0).



                       INITIAL HEAD FOR LAYER   1
 READING ON UNIT   12 WITH FORMAT: (10F13.0)           

 OUTPUT CONTROL IS SPECIFIED ONLY AT TIME STEPS FOR WHICH OUTPUT IS DESIRED
 COMPACT CELL-BY-CELL BUDGET FILES WILL BE WRITTEN
 HEAD PRINT FORMAT CODE IS  18    DRAWDOWN PRINT FORMAT CODE IS   0
 HEADS WILL BE SAVED ON UNIT   51    DRAWDOWNS WILL BE SAVED ON UNIT    0

 BCF -- BLOCK-CENTERED FLOW PACKAGE, VERSION 7, 5/2/2005
         INPUT READ FROM UNIT 13
 TRANSIENT SIMULATION
 HEAD AT CELLS THAT CONVERT TO DRY=   0.0000    
 WETTING CAPABILITY IS NOT ACTIVE
      LAYER  LAYER-TYPE CODE     INTERBLOCK T
      --------------------------------------------
         1            0          0 -- HARMONIC    

 COLUMN TO ROW ANISOTROPY =  1.000000    

     PRIMARY STORAGE COEF =  5.000000E-02 FOR LAYER   1

     TRANSMIS. ALONG ROWS =   500.000     FOR LAYER   1

 WEL -- WELL PACKAGE, VERSION 7, 5/2/2005 INPUT READ FROM UNIT   19
 # Well package input file written by MMProc
 No named parameters
 MAXIMUM OF      4 ACTIVE WELLS AT ONE TIME


     0 Well parameters

 RCH -- RECHARGE PACKAGE, VERSION 7, 5/2/2005 INPUT READ FROM UNIT   15
 No named parameters
 OPTION 1 -- RECHARGE TO TOP LAYER


     0 Recharge parameters

 SFR7 -- STREAMFLOW ROUTING PACKAGE, VERSION 1.0.7, 2013-01-15
         INPUT READ FROM UNIT  16
 #  Supply2 test problem for GWM-VI
 #  The eighth entry in the first data line is ISTCB2 -
 #    Setting this to a negative number indicates that
 #    streamflows out of the reach will be saved to a
 #    binary file.  The absolute value of ISTCB2 is the
 #    unit to which unformatted flows will be written.
 #
 No named parameters
 Segment information will not be 
 read by reach
 No named parameters
 No specifed inflow files


 NUMBER OF STREAM REACHES IS   40

 NUMBER OF STREAM SEGMENTS IS    3

 NUMBER OF STREAM PARAMETERS IS    0

 NUMBER OF STREAM SEGMENTS DEFINED USING PARAMETERS IS              0

 MAXIMUM ERROR FOR STREAM LEAKAGE RATES IS  1.00E-04

 CONSTANT FOR MANNINGS EQUATION IS  1.2839E+05





   STREAM NETWORK DESCRIPTION: 

   LAYER    ROW    COL   SEGMENT   REACH     LENGTH
                          NUMBER   NUMBER    IN CELL        
   --------------------------------------------------
      1     13      1       1        1    2.0000E+02
      1     13      2       1        2    2.0000E+02
      1     14      3       1        3    2.0000E+02
      1     15      4       1        4    2.0000E+02
      1     16      5       1        5    2.0000E+02
      1     16      6       1        6    2.0000E+02
      1     16      7       1        7    2.0000E+02
      1     16      8       1        8    2.0000E+02
      1     16      9       1        9    2.0000E+02
      1     16     10       1       10    2.0000E+02
      1     16     11       1       11    2.0000E+02
      1     16     12       1       12    2.0000E+02
      1     15     13       1       13    2.0000E+02
      1     14     14       1       14    2.0000E+02
      1     13     15       1       15    2.0000E+02
      1     12     16       1       16    2.0000E+02
      1     12     17       1       17    2.0000E+02
      1     12     18       1       18    2.0000E+02
      1     12     19       1       19    2.0000E+02
      1     13     20       1       20    2.0000E+02
      1     14     21       1       21    2.0000E+02
      1     14     22       1       22    2.0000E+02
      1      9     30       2        1    2.0000E+02
      1      9     29       2        2    2.0000E+02
      1      9     28       2        3    2.0000E+02
      1      9     27       2        4    2.0000E+02
      1     10     26       2        5    2.0000E+02
      1     11     25       2        6    2.0000E+02
      1     12     24       2        7    2.0000E+02
      1     13     23       2        8    2.0000E+02
      1     14     22       2        9    2.0000E+02
      1     14     22       3        1    2.0000E+02
      1     15     23       3        2    2.0000E+02
      1     15     24       3        3    2.0000E+02
      1     15     25       3        4    2.0000E+02
      1     15     26       3        5    2.0000E+02
      1     16     27       3        6    2.0000E+02
      1     17     28       3        7    2.0000E+02
      1     18     29       3        8    2.0000E+02
      1     18     30       3        9    2.0000E+02




 PCG -- CONJUGATE-GRADIENT SOLUTION PACKAGE, VERSION 7, 5/2/2005
 MAXIMUM OF    500 CALLS OF SOLUTION ROUTINE
 MAXIMUM OF      5 INTERNAL ITERATIONS PER CALL TO SOLUTION ROUTINE
 MATRIX PRECONDITIONING TYPE :    1



                                    SOLUTION BY THE CONJUGATE-GRADIENT METHOD
                                   -------------------------------------------
                    MAXIMUM NUMBER OF CALLS TO PCG ROUTINE =      500
                        MAXIMUM ITERATIONS PER CALL TO PCG =        5
                               MATRIX PRECONDITIONING TYPE =        1
        RELAXATION FACTOR (ONLY USED WITH PRECOND. TYPE 1) =    0.10000E+01
 PARAMETER OF POLYNOMIAL PRECOND. = 2 (2) OR IS CALCULATED :        0
                         HEAD CHANGE CRITERION FOR CLOSURE =    0.10000E-05
                     RESIDUAL CHANGE CRITERION FOR CLOSURE =    0.10000E+01
            PCG HEAD AND RESIDUAL CHANGE PRINTOUT INTERVAL =        1
     PRINTING FROM SOLVER IS LIMITED(1) OR SUPPRESSED (>1) =        1
                            STEADY-STATE DAMPING PARAMETER =    0.10000E+01
                               TRANSIENT DAMPING PARAMETER =    0.10000E+01
1
                            STRESS PERIOD NO.    1, LENGTH =   92.00000    
                            -----------------------------------------------

                              NUMBER OF TIME STEPS =     1

                               MULTIPLIER FOR DELT =     1.500

                            INITIAL TIME STEP SIZE =   92.00000    

 WELL NO.  LAYER   ROW   COL   STRESS RATE         
 --------------------------------------------------
      1      1     23     20     -0.3361E+05
      2      1     23      4     -0.3381E+05
      3      1      5     26     -0.3582E+05
      4      1     21     27     -0.3006E+05

      4 WELLS

                 RECHARGE =  5.000000E-04



 CLASSIFICATION & COUNT OF STREAM SEGMENTS BASED ON SOURCE OF INFLOW:

                HEADWATER     DIVERSION     RECEIVES TRIBUTARY FLOW
                ---------     ---------     -----------------------
                     2              0               1



                    INPUT DATA FOR EACH STREAM SEGMENT
 ---------------------------------------------------------------------------------------------

 SEGMENT    SEG.     INFLOW   OVERLAND   STREAM    STREAM   ICALC  OUTFLOW  DIVERSION PRIORITY
    NO.    LENGTH     RATE     RUNOFF      ET       PPT.    METH.  TO SEG.  FROM SEG.    NO.

      1  4.400E+03 1.000E+05 0.000E+00 0.000E+00 0.000E+00    1        3        0        0
      2  1.800E+03 5.000E+04 0.000E+00 0.000E+00 0.000E+00    1        3        0        0
      3  1.800E+03 0.000E+00 0.000E+00 0.000E+00 0.000E+00    1        0        0        0


         STREAMBED PROPERTIES AND STREAM DIMENSIONS

 SEGMENT     BED HYD. COND.      BED THICKNESS     ELEV.-TOP OF BED     WIDTH OF STREAM     DEPTH OF STREAM    STREAM ROUGHNESS
    No.     UPPER     LOWER     UPPER     LOWER     UPPER     LOWER     UPPER     LOWER     UPPER     LOWER   CHANNEL      BANK

     1  5.000E+00 5.000E+00 1.000E+00 1.000E+00 4.850E+01 3.800E+01 2.000E+01 2.000E+01                     5.000E-02
     2  5.000E+00 5.000E+00 1.000E+00 1.000E+00 4.025E+01 3.800E+01 2.000E+01 2.000E+01                     5.000E-02
     3  5.000E+00 5.000E+00 1.000E+00 1.000E+00 3.800E+01 3.000E+01 2.000E+01 2.000E+01                     5.000E-02



 
 SOLVING FOR HEAD 


     8 CALLS TO PCG ROUTINE FOR TIME STEP   1 IN STRESS PERIOD    1
    34 TOTAL ITERATIONS

 OUTPUT CONTROL FOR STRESS PERIOD    1   TIME STEP    1
    SAVE BUDGET
    SAVE HEAD FOR ALL LAYERS
    PRINT HEAD FOR ALL LAYERS
 UBDSV2 SAVING "STREAMFLOW OUT  " ON UNIT  50 AT TIME STEP  1, STRESS PERIOD   1



 STREAM LISTING     PERIOD      1   STEP        1

 LAYER ROW COL. STREAM  RCH.  FLOW INTO     FLOW TO   FLOW OUT OF   OVRLND.     DIRECT     STREAM       STREAM     STREAM     STREAM   STREAMBED  STREAMBED
                SEG.NO.  NO.  STRM. RCH.    AQUIFER    STRM. RCH.    RUNOFF     PRECIP       ET          HEAD       DEPTH      WIDTH   CONDCTNC.   GRADIENT

   1   13    1     1     1    1.0000E+05 -5.5865E+03   1.0559E+05  0.000E+00  0.000E+00  0.000E+00  4.84084E+01  1.471E-01  2.000E+01  2.000E+04 -2.793E-01
   1   13    2     1     2    1.0559E+05 -8.4716E+03   1.1406E+05  0.000E+00  0.000E+00  0.000E+00  4.79371E+01  1.530E-01  2.000E+01  2.000E+04 -4.236E-01
   1   14    3     1     3    1.1406E+05 -7.5456E+03   1.2160E+05  0.000E+00  0.000E+00  0.000E+00  4.74664E+01  1.596E-01  2.000E+01  2.000E+04 -3.773E-01
   1   15    4     1     4    1.2160E+05 -7.1765E+03   1.2878E+05  0.000E+00  0.000E+00  0.000E+00  4.69951E+01  1.655E-01  2.000E+01  2.000E+04 -3.588E-01
   1   16    5     1     5    1.2878E+05 -6.5985E+03   1.3538E+05  0.000E+00  0.000E+00  0.000E+00  4.65232E+01  1.709E-01  2.000E+01  2.000E+04 -3.299E-01
   1   16    6     1     6    1.3538E+05 -5.5153E+03   1.4089E+05  0.000E+00  0.000E+00  0.000E+00  4.60506E+01  1.756E-01  2.000E+01  2.000E+04 -2.758E-01
   1   16    7     1     7    1.4089E+05 -5.7612E+03   1.4666E+05  0.000E+00  0.000E+00  0.000E+00  4.55776E+01  1.799E-01  2.000E+01  2.000E+04 -2.881E-01
   1   16    8     1     8    1.4666E+05 -5.9304E+03   1.5259E+05  0.000E+00  0.000E+00  0.000E+00  4.51047E+01  1.842E-01  2.000E+01  2.000E+04 -2.965E-01
   1   16    9     1     9    1.5259E+05 -6.0108E+03   1.5860E+05  0.000E+00  0.000E+00  0.000E+00  4.46318E+01  1.886E-01  2.000E+01  2.000E+04 -3.005E-01
   1   16   10     1    10    1.5860E+05 -6.0051E+03   1.6460E+05  0.000E+00  0.000E+00  0.000E+00  4.41588E+01  1.929E-01  2.000E+01  2.000E+04 -3.003E-01
   1   16   11     1    11    1.6460E+05 -5.9422E+03   1.7054E+05  0.000E+00  0.000E+00  0.000E+00  4.36858E+01  1.972E-01  2.000E+01  2.000E+04 -2.971E-01
   1   16   12     1    12    1.7054E+05 -7.6300E+03   1.7817E+05  0.000E+00  0.000E+00  0.000E+00  4.32133E+01  2.019E-01  2.000E+01  2.000E+04 -3.815E-01
   1   15   13     1    13    1.7817E+05 -8.0013E+03   1.8617E+05  0.000E+00  0.000E+00  0.000E+00  4.27414E+01  2.073E-01  2.000E+01  2.000E+04 -4.001E-01
   1   14   14     1    14    1.8617E+05 -8.2623E+03   1.9444E+05  0.000E+00  0.000E+00  0.000E+00  4.22696E+01  2.128E-01  2.000E+01  2.000E+04 -4.131E-01
   1   13   15     1    15    1.9444E+05 -8.5135E+03   2.0295E+05  0.000E+00  0.000E+00  0.000E+00  4.17979E+01  2.184E-01  2.000E+01  2.000E+04 -4.257E-01
   1   12   16     1    16    2.0295E+05 -9.3180E+03   2.1227E+05  0.000E+00  0.000E+00  0.000E+00  4.13265E+01  2.242E-01  2.000E+01  2.000E+04 -4.659E-01
   1   12   17     1    17    2.1227E+05 -6.5003E+03   2.1877E+05  0.000E+00  0.000E+00  0.000E+00  4.08543E+01  2.293E-01  2.000E+01  2.000E+04 -3.250E-01
   1   12   18     1    18    2.1877E+05 -6.2831E+03   2.2505E+05  0.000E+00  0.000E+00  0.000E+00  4.03811E+01  2.334E-01  2.000E+01  2.000E+04 -3.142E-01
   1   12   19     1    19    2.2505E+05 -7.8360E+03   2.3289E+05  0.000E+00  0.000E+00  0.000E+00  3.99082E+01  2.378E-01  2.000E+01  2.000E+04 -3.918E-01
   1   13   20     1    20    2.3289E+05 -6.3741E+03   2.3926E+05  0.000E+00  0.000E+00  0.000E+00  3.94354E+01  2.422E-01  2.000E+01  2.000E+04 -3.187E-01
   1   14   21     1    21    2.3926E+05 -5.1205E+03   2.4438E+05  0.000E+00  0.000E+00  0.000E+00  3.89616E+01  2.457E-01  2.000E+01  2.000E+04 -2.560E-01
   1   14   22     1    22    2.4438E+05  4.5292E+03   2.3985E+05  0.000E+00  0.000E+00  0.000E+00  3.84845E+01  2.459E-01  2.000E+01  2.000E+04  2.265E-01
   1    9   30     2     1    5.0000E+04 -4.4983E+03   5.4498E+04  0.000E+00  0.000E+00  0.000E+00  4.02440E+01  1.190E-01  2.000E+01  2.000E+04 -2.249E-01
   1    9   29     2     2    5.4498E+04 -4.6345E+03   5.9133E+04  0.000E+00  0.000E+00  0.000E+00  4.00001E+01  1.251E-01  2.000E+01  2.000E+04 -2.317E-01
   1    9   28     2     3    5.9133E+04 -4.6207E+03   6.3753E+04  0.000E+00  0.000E+00  0.000E+00  3.97561E+01  1.311E-01  2.000E+01  2.000E+04 -2.310E-01
   1    9   27     2     4    6.3753E+04 -6.7405E+03   7.0494E+04  0.000E+00  0.000E+00  0.000E+00  3.95133E+01  1.383E-01  2.000E+01  2.000E+04 -3.370E-01
   1   10   26     2     5    7.0494E+04 -6.2754E+03   7.6769E+04  0.000E+00  0.000E+00  0.000E+00  3.92712E+01  1.462E-01  2.000E+01  2.000E+04 -3.138E-01
   1   11   25     2     6    7.6769E+04 -5.8298E+03   8.2599E+04  0.000E+00  0.000E+00  0.000E+00  3.90282E+01  1.532E-01  2.000E+01  2.000E+04 -2.915E-01
   1   12   24     2     7    8.2599E+04 -4.9308E+03   8.7530E+04  0.000E+00  0.000E+00  0.000E+00  3.87844E+01  1.594E-01  2.000E+01  2.000E+04 -2.465E-01
   1   13   23     2     8    8.7530E+04 -3.5915E+03   9.1121E+04  0.000E+00  0.000E+00  0.000E+00  3.85391E+01  1.641E-01  2.000E+01  2.000E+04 -1.796E-01
   1   14   22     2     9    9.1121E+04  6.5334E+02   9.0468E+04  0.000E+00  0.000E+00  0.000E+00  3.82907E+01  1.657E-01  2.000E+01  2.000E+04  3.267E-02
   1   14   22     3     1    3.3032E+05 -9.0928E+03   3.3941E+05  0.000E+00  0.000E+00  0.000E+00  3.78034E+01  2.479E-01  2.000E+01  2.000E+04 -4.546E-01
   1   15   23     3     2    3.3941E+05 -5.1737E+03   3.4459E+05  0.000E+00  0.000E+00  0.000E+00  3.69177E+01  2.510E-01  2.000E+01  2.000E+04 -2.587E-01
   1   15   24     3     3    3.4459E+05 -3.7482E+03   3.4834E+05  0.000E+00  0.000E+00  0.000E+00  3.60308E+01  2.530E-01  2.000E+01  2.000E+04 -1.874E-01
   1   15   25     3     4    3.4834E+05 -3.7735E+03   3.5211E+05  0.000E+00  0.000E+00  0.000E+00  3.51435E+01  2.546E-01  2.000E+01  2.000E+04 -1.887E-01
   1   15   26     3     5    3.5211E+05 -5.2035E+03   3.5731E+05  0.000E+00  0.000E+00  0.000E+00  3.42566E+01  2.566E-01  2.000E+01  2.000E+04 -2.602E-01
   1   16   27     3     6    3.5731E+05 -6.0294E+03   3.6334E+05  0.000E+00  0.000E+00  0.000E+00  3.33701E+01  2.590E-01  2.000E+01  2.000E+04 -3.015E-01
   1   17   28     3     7    3.6334E+05 -5.9493E+03   3.6929E+05  0.000E+00  0.000E+00  0.000E+00  3.24838E+01  2.616E-01  2.000E+01  2.000E+04 -2.975E-01
   1   18   29     3     8    3.6929E+05 -5.7655E+03   3.7506E+05  0.000E+00  0.000E+00  0.000E+00  3.15974E+01  2.641E-01  2.000E+01  2.000E+04 -2.883E-01
   1   18   30     3     9    3.7506E+05 -5.8027E+03   3.8086E+05  0.000E+00  0.000E+00  0.000E+00  3.07110E+01  2.665E-01  2.000E+01  2.000E+04 -2.901E-01



1
              HEAD IN LAYER   1 AT END OF TIME STEP   1 IN STRESS PERIOD    1
  ---------------------------------------------------------------------------

          1      2      3      4      5      6      7      8      9     10
         11     12     13     14     15     16     17     18     19     20
         21     22     23     24     25     26     27     28     29     30
 .........................................................................
   1  ****** ****** ****** ****** ****** ****** ****** ****** ****** ******
      ****** ****** ****** ****** ****** ****** ****** ****** ****** ******
      ****** ****** ****** ****** ****** ****** ****** ****** ****** ******
   2  ****** ****** ****** ****** ****** ****** ****** ****** ****** ******
      ****** ****** ****** ****** ****** ****** ****** ****** ****** ******
      ****** ****** ****** ****** ****** ****** ****** ****** ****** ******
   3  ****** ****** ****** ****** ****** ****** ****** ****** ****** ******
      ****** ****** ****** ****** ****** ****** ****** ****** ****** ******
      ****** ****** ****** ****** ****** ****** ****** ****** ****** ******
   4  ****** ****** ****** ****** ****** ****** ****** ****** ****** ******
      ****** ****** ****** ****** ****** ****** ****** ****** ****** ******
      ****** ****** ****** ****** ****** ****** ****** ****** ****** ******
   5  ****** ****** ****** ****** ****** ****** ****** ****** ****** ******
      ****** ****** ****** ****** ****** ****** ****** ****** ****** ******
      ****** ****** ****** ****** ****** ****** ****** ****** ****** ******
   6  ****** ****** ****** ****** ****** ****** ****** ****** ****** ******
      ****** ****** ****** ****** ****** ****** ****** ****** ****** ******
      ****** ****** ****** ****** ****** ****** ****** ****** ****** ******
   7  ****** ****** ****** ****** ****** ****** ****** ****** ****** ******
      ****** ****** ****** ****** ****** ****** ****** ****** ****** ******
      ****** ****** ****** ****** ****** ****** ****** ****** ****** ******
   8  ****** ****** ****** ****** ****** ****** ****** ****** ****** ******
      ****** ****** ****** ****** ****** ****** ****** ****** ****** ******
      ****** ****** ****** ****** ****** ****** ****** ****** ****** ******
   9  ****** ****** ****** ****** ****** ****** ****** ****** ****** ******
      ****** ****** ****** ****** ****** ****** ****** ****** ****** ******
      ****** ****** ****** ****** ****** ****** ****** ****** ****** ******
  10  ****** ****** ****** ****** ****** ****** ****** ****** ****** ******
      ****** ****** ****** ****** ****** ****** ****** ****** ****** ******
      ****** ****** ****** ****** ****** ****** ****** ****** ****** ******
  11  ****** ****** ****** ****** ****** ****** ****** ****** ****** ******
      ****** ****** ****** ****** ****** ****** ****** ****** ****** ******
      ****** ****** ****** ****** ****** ****** ****** ****** ****** ******
  12  ****** ****** ****** ****** ****** ****** ****** ****** ****** ******
      ****** ****** ****** ****** ****** ****** ****** ****** ****** ******
      ****** ****** ****** ****** ****** ****** ****** ****** ****** ******
  13  ****** ****** ****** ****** ****** ****** ****** ****** ****** ******
      ****** ****** ****** ****** ****** ****** ****** ****** ****** ******
      ****** ****** ****** ****** ****** ****** ****** ****** ****** ******
  14  ****** ****** ****** ****** ****** ****** ****** ****** ****** ******
      ****** ****** ****** ****** ****** ****** ****** ****** ****** ******
      ****** ****** ****** ****** ****** ****** ****** ****** ****** ******
  15  ****** ****** ****** ****** ****** ****** ****** ****** ****** ******
      ****** ****** ****** ****** ****** ****** ****** ****** ****** ******
      ****** ****** ****** ****** ****** ****** ****** ****** ****** ******
  16  ****** ****** ****** ****** ****** ****** ****** ****** ****** ******
      ****** ****** ****** ****** ****** ****** ****** ****** ****** ******
      ****** ****** ****** ****** ****** ****** ****** ****** ****** ******
  17  ****** ****** ****** ****** ****** ****** ****** ****** ****** ******
      ****** ****** ****** ****** ****** ****** ****** ****** ****** ******
      ****** ****** ****** ****** ****** ****** ****** ****** ****** ******
  18  ****** ****** ****** ****** ****** ****** ****** ****** ****** ******
      ****** ****** ****** ****** ****** ****** ****** ****** ****** ******
      ****** ****** ****** ****** ****** ****** ****** ****** ****** ******
  19  ****** ****** ****** ****** ****** ****** ****** ****** ****** ******
      ****** ****** ****** ****** ****** ****** ****** ****** ****** ******
      ****** ****** ****** ****** ****** ****** ****** ****** ****** ******
  20  ****** ****** ****** ****** ****** ****** ****** ****** ****** ******
      ****** ****** ****** ****** ****** ****** ****** ****** ****** ******
      ****** ****** ****** ****** ****** ****** ****** ****** ****** ******
  21  ****** ****** ****** ****** ****** ****** ****** ****** ****** ******
      ****** ****** ****** ****** ****** ****** ****** ****** ****** ******
      ****** ****** ****** ****** ****** ****** ****** ****** ****** ******
  22  ****** ****** ****** ****** ****** ****** ****** ****** ****** ******
      ****** ****** ****** ****** ****** ****** ****** ****** ****** ******
      ****** ****** ****** ****** ****** ****** ****** ****** ****** ******
  23  ****** ****** ****** ****** ****** ****** ****** ****** ****** ******
      ****** ****** ****** ****** ****** ****** ****** ****** ****** ******
      ****** ****** ****** ****** ****** ****** ****** ****** ****** ******
  24  ****** ****** ****** ****** ****** ****** ****** ****** ****** ******
      ****** ****** ****** ****** ****** ****** ****** ****** ****** ******
      ****** ****** ****** ****** ****** ****** ****** ****** ****** ******
  25  ****** ****** ****** ****** ****** ****** ****** ****** ****** ******
      ****** ****** ****** ****** ****** ****** ****** ****** ****** ******
      ****** ****** ****** ****** ****** ****** ****** ****** ****** ******

 HEAD WILL BE SAVED ON UNIT   51 AT END OF TIME STEP    1, STRESS PERIOD    1
1
  VOLUMETRIC BUDGET FOR ENTIRE MODEL AT END OF TIME STEP    1, STRESS PERIOD   1
  ------------------------------------------------------------------------------

     CUMULATIVE VOLUMES      L**3       RATES FOR THIS TIME STEP      L**3/T
     ------------------                 ------------------------

           IN:                                      IN:
           ---                                      ---
             STORAGE =    18666625.0006               STORAGE =      202898.0978
       CONSTANT HEAD =    13567483.5599         CONSTANT HEAD =      147472.6474
               WELLS =           0.0000                 WELLS =           0.0000
            RECHARGE =     1269600.0000              RECHARGE =       13800.0000
      STREAM LEAKAGE =      476793.6984        STREAM LEAKAGE =        5182.5402

            TOTAL IN =    33980502.2588              TOTAL IN =      369353.2854

          OUT:                                     OUT:
          ----                                     ----
             STORAGE =           0.0000               STORAGE =           0.0000
       CONSTANT HEAD =           0.0000         CONSTANT HEAD =           0.0000
               WELLS =    12264570.6762                 WELLS =      133310.5508
            RECHARGE =           0.0000              RECHARGE =           0.0000
      STREAM LEAKAGE =    21715931.7248        STREAM LEAKAGE =      236042.7361

           TOTAL OUT =    33980502.4010             TOTAL OUT =      369353.2870

            IN - OUT =          -0.1421              IN - OUT =      -1.5451E-03

 PERCENT DISCREPANCY =          -0.00     PERCENT DISCREPANCY =          -0.00






         TIME SUMMARY AT END OF TIME STEP    1 IN STRESS PERIOD    1
                    SECONDS     MINUTES      HOURS       DAYS        YEARS
                    -----------------------------------------------------------
   TIME STEP LENGTH 7.94880E+06 1.32480E+05  2208.0      92.000     0.25188    
 STRESS PERIOD TIME 7.94880E+06 1.32480E+05  2208.0      92.000     0.25188    
         TOTAL TIME 7.94880E+06 1.32480E+05  2208.0      92.000     0.25188    
1
1
                            STRESS PERIOD NO.    2, LENGTH =   91.00000    
                            -----------------------------------------------

                              NUMBER OF TIME STEPS =     1

                               MULTIPLIER FOR DELT =     1.500

                            INITIAL TIME STEP SIZE =   91.00000    

 WELL NO.  LAYER   ROW   COL   STRESS RATE         
 --------------------------------------------------
      1      1     23     20     -0.3361E+05
      2      1     23      4     -0.3381E+05
      3      1      5     26     -0.3582E+05
      4      1     21     27     -0.3006E+05

      4 WELLS

                 RECHARGE =  2.000000E-03

 REUSING STREAM SEGMENT DATA FROM LAST STRESS PERIOD
 
 SOLVING FOR HEAD 


     7 CALLS TO PCG ROUTINE FOR TIME STEP   1 IN STRESS PERIOD    2
    27 TOTAL ITERATIONS

 OUTPUT CONTROL FOR STRESS PERIOD    2   TIME STEP    1
    SAVE BUDGET
    SAVE HEAD FOR ALL LAYERS
    PRINT HEAD FOR ALL LAYERS
 UBDSV2 SAVING "STREAMFLOW OUT  " ON UNIT  50 AT TIME STEP  1, STRESS PERIOD   2



 STREAM LISTING     PERIOD      2   STEP        1

 LAYER ROW COL. STREAM  RCH.  FLOW INTO     FLOW TO   FLOW OUT OF   OVRLND.     DIRECT     STREAM       STREAM     STREAM     STREAM   STREAMBED  STREAMBED
                SEG.NO.  NO.  STRM. RCH.    AQUIFER    STRM. RCH.    RUNOFF     PRECIP       ET          HEAD       DEPTH      WIDTH   CONDCTNC.   GRADIENT

   1   13    1     1     1    1.0000E+05 -3.5774E+03   1.0358E+05  0.000E+00  0.000E+00  0.000E+00  4.84076E+01  1.462E-01  2.000E+01  2.000E+04 -1.789E-01
   1   13    2     1     2    1.0358E+05 -5.9866E+03   1.0956E+05  0.000E+00  0.000E+00  0.000E+00  4.79344E+01  1.503E-01  2.000E+01  2.000E+04 -2.993E-01
   1   14    3     1     3    1.0956E+05 -4.6387E+03   1.1420E+05  0.000E+00  0.000E+00  0.000E+00  4.74616E+01  1.547E-01  2.000E+01  2.000E+04 -2.319E-01
   1   15    4     1     4    1.1420E+05 -4.1985E+03   1.1840E+05  0.000E+00  0.000E+00  0.000E+00  4.69879E+01  1.584E-01  2.000E+01  2.000E+04 -2.099E-01
   1   16    5     1     5    1.1840E+05 -3.8609E+03   1.2226E+05  0.000E+00  0.000E+00  0.000E+00  4.65139E+01  1.616E-01  2.000E+01  2.000E+04 -1.930E-01
   1   16    6     1     6    1.2226E+05 -3.3988E+03   1.2566E+05  0.000E+00  0.000E+00  0.000E+00  4.60395E+01  1.645E-01  2.000E+01  2.000E+04 -1.699E-01
   1   16    7     1     7    1.2566E+05 -3.6485E+03   1.2931E+05  0.000E+00  0.000E+00  0.000E+00  4.55651E+01  1.673E-01  2.000E+01  2.000E+04 -1.824E-01
   1   16    8     1     8    1.2931E+05 -3.8232E+03   1.3313E+05  0.000E+00  0.000E+00  0.000E+00  4.50907E+01  1.703E-01  2.000E+01  2.000E+04 -1.912E-01
   1   16    9     1     9    1.3313E+05 -3.9164E+03   1.3705E+05  0.000E+00  0.000E+00  0.000E+00  4.46164E+01  1.733E-01  2.000E+01  2.000E+04 -1.958E-01
   1   16   10     1    10    1.3705E+05 -3.9299E+03   1.4098E+05  0.000E+00  0.000E+00  0.000E+00  4.41422E+01  1.763E-01  2.000E+01  2.000E+04 -1.965E-01
   1   16   11     1    11    1.4098E+05 -3.8877E+03   1.4487E+05  0.000E+00  0.000E+00  0.000E+00  4.36679E+01  1.792E-01  2.000E+01  2.000E+04 -1.944E-01
   1   16   12     1    12    1.4487E+05 -5.0187E+03   1.4989E+05  0.000E+00  0.000E+00  0.000E+00  4.31939E+01  1.825E-01  2.000E+01  2.000E+04 -2.509E-01
   1   15   13     1    13    1.4989E+05 -4.9817E+03   1.5487E+05  0.000E+00  0.000E+00  0.000E+00  4.27203E+01  1.862E-01  2.000E+01  2.000E+04 -2.491E-01
   1   14   14     1    14    1.5487E+05 -5.1387E+03   1.6001E+05  0.000E+00  0.000E+00  0.000E+00  4.22467E+01  1.899E-01  2.000E+01  2.000E+04 -2.569E-01
   1   13   15     1    15    1.6001E+05 -5.4475E+03   1.6545E+05  0.000E+00  0.000E+00  0.000E+00  4.17733E+01  1.937E-01  2.000E+01  2.000E+04 -2.724E-01
   1   12   16     1    16    1.6545E+05 -6.6215E+03   1.7207E+05  0.000E+00  0.000E+00  0.000E+00  4.13003E+01  1.980E-01  2.000E+01  2.000E+04 -3.311E-01
   1   12   17     1    17    1.7207E+05 -4.2944E+03   1.7637E+05  0.000E+00  0.000E+00  0.000E+00  4.08268E+01  2.018E-01  2.000E+01  2.000E+04 -2.147E-01
   1   12   18     1    18    1.7637E+05 -4.0599E+03   1.8043E+05  0.000E+00  0.000E+00  0.000E+00  4.03524E+01  2.047E-01  2.000E+01  2.000E+04 -2.030E-01
   1   12   19     1    19    1.8043E+05 -5.1107E+03   1.8554E+05  0.000E+00  0.000E+00  0.000E+00  3.98783E+01  2.079E-01  2.000E+01  2.000E+04 -2.555E-01
   1   13   20     1    20    1.8554E+05 -3.4757E+03   1.8902E+05  0.000E+00  0.000E+00  0.000E+00  3.94040E+01  2.108E-01  2.000E+01  2.000E+04 -1.738E-01
   1   14   21     1    21    1.8902E+05 -2.4954E+03   1.9151E+05  0.000E+00  0.000E+00  0.000E+00  3.89287E+01  2.128E-01  2.000E+01  2.000E+04 -1.248E-01
   1   14   22     1    22    1.9151E+05  5.1591E+03   1.8635E+05  0.000E+00  0.000E+00  0.000E+00  3.84505E+01  2.119E-01  2.000E+01  2.000E+04  2.580E-01
   1    9   30     2     1    5.0000E+04 -2.0014E+03   5.2001E+04  0.000E+00  0.000E+00  0.000E+00  4.02423E+01  1.173E-01  2.000E+01  2.000E+04 -1.001E-01
   1    9   29     2     2    5.2001E+04 -2.1367E+03   5.4138E+04  0.000E+00  0.000E+00  0.000E+00  3.99951E+01  1.201E-01  2.000E+01  2.000E+04 -1.068E-01
   1    9   28     2     3    5.4138E+04 -2.1179E+03   5.6256E+04  0.000E+00  0.000E+00  0.000E+00  3.97479E+01  1.229E-01  2.000E+01  2.000E+04 -1.059E-01
   1    9   27     2     4    5.6256E+04 -3.5243E+03   5.9780E+04  0.000E+00  0.000E+00  0.000E+00  3.95017E+01  1.267E-01  2.000E+01  2.000E+04 -1.762E-01
   1   10   26     2     5    5.9780E+04 -2.9238E+03   6.2704E+04  0.000E+00  0.000E+00  0.000E+00  3.92559E+01  1.309E-01  2.000E+01  2.000E+04 -1.462E-01
   1   11   25     2     6    6.2704E+04 -2.6714E+03   6.5376E+04  0.000E+00  0.000E+00  0.000E+00  3.90094E+01  1.344E-01  2.000E+01  2.000E+04 -1.336E-01
   1   12   24     2     7    6.5376E+04 -2.1523E+03   6.7528E+04  0.000E+00  0.000E+00  0.000E+00  3.87624E+01  1.374E-01  2.000E+01  2.000E+04 -1.076E-01
   1   13   23     2     8    6.7528E+04 -1.3991E+03   6.8927E+04  0.000E+00  0.000E+00  0.000E+00  3.85146E+01  1.396E-01  2.000E+01  2.000E+04 -6.995E-02
   1   14   22     2     9    6.8927E+04  1.4405E+03   6.7486E+04  0.000E+00  0.000E+00  0.000E+00  3.82646E+01  1.396E-01  2.000E+01  2.000E+04  7.203E-02
   1   14   22     3     1    2.5384E+05 -8.5000E+03   2.6234E+05  0.000E+00  0.000E+00  0.000E+00  3.77676E+01  2.120E-01  2.000E+01  2.000E+04 -4.250E-01
   1   15   23     3     2    2.6234E+05 -2.6615E+03   2.6500E+05  0.000E+00  0.000E+00  0.000E+00  3.68814E+01  2.148E-01  2.000E+01  2.000E+04 -1.331E-01
   1   15   24     3     3    2.6500E+05 -1.7750E+03   2.6677E+05  0.000E+00  0.000E+00  0.000E+00  3.59936E+01  2.158E-01  2.000E+01  2.000E+04 -8.875E-02
   1   15   25     3     4    2.6677E+05 -1.7010E+03   2.6848E+05  0.000E+00  0.000E+00  0.000E+00  3.51056E+01  2.167E-01  2.000E+01  2.000E+04 -8.505E-02
   1   15   26     3     5    2.6848E+05 -2.4173E+03   2.7089E+05  0.000E+00  0.000E+00  0.000E+00  3.42177E+01  2.177E-01  2.000E+01  2.000E+04 -1.209E-01
   1   16   27     3     6    2.7089E+05 -2.5750E+03   2.7347E+05  0.000E+00  0.000E+00  0.000E+00  3.33300E+01  2.189E-01  2.000E+01  2.000E+04 -1.287E-01
   1   17   28     3     7    2.7347E+05 -2.3727E+03   2.7584E+05  0.000E+00  0.000E+00  0.000E+00  3.24423E+01  2.201E-01  2.000E+01  2.000E+04 -1.186E-01
   1   18   29     3     8    2.7584E+05 -2.4536E+03   2.7829E+05  0.000E+00  0.000E+00  0.000E+00  3.15546E+01  2.212E-01  2.000E+01  2.000E+04 -1.227E-01
   1   18   30     3     9    2.7829E+05 -3.2411E+03   2.8153E+05  0.000E+00  0.000E+00  0.000E+00  3.06670E+01  2.226E-01  2.000E+01  2.000E+04 -1.621E-01



1
              HEAD IN LAYER   1 AT END OF TIME STEP   1 IN STRESS PERIOD    2
  ---------------------------------------------------------------------------

          1      2      3      4      5      6      7      8      9     10
         11     12     13     14     15     16     17     18     19     20
         21     22     23     24     25     26     27     28     29     30
 .........................................................................
   1  ****** ****** ****** ****** ****** ****** ****** ****** ****** ******
      ****** ****** ****** ****** ****** ****** ****** ****** ****** ******
      ****** ****** ****** ****** ****** ****** ****** ****** ****** ******
   2  ****** ****** ****** ****** ****** ****** ****** ****** ****** ******
      ****** ****** ****** ****** ****** ****** ****** ****** ****** ******
      ****** ****** ****** ****** ****** ****** ****** ****** ****** ******
   3  ****** ****** ****** ****** ****** ****** ****** ****** ****** ******
      ****** ****** ****** ****** ****** ****** ****** ****** ****** ******
      ****** ****** ****** ****** ****** ****** ****** ****** ****** ******
   4  ****** ****** ****** ****** ****** ****** ****** ****** ****** ******
      ****** ****** ****** ****** ****** ****** ****** ****** ****** ******
      ****** ****** ****** ****** ****** ****** ****** ****** ****** ******
   5  ****** ****** ****** ****** ****** ****** ****** ****** ****** ******
      ****** ****** ****** ****** ****** ****** ****** ****** ****** ******
      ****** ****** ****** ****** ****** ****** ****** ****** ****** ******
   6  ****** ****** ****** ****** ****** ****** ****** ****** ****** ******
      ****** ****** ****** ****** ****** ****** ****** ****** ****** ******
      ****** ****** ****** ****** ****** ****** ****** ****** ****** ******
   7  ****** ****** ****** ****** ****** ****** ****** ****** ****** ******
      ****** ****** ****** ****** ****** ****** ****** ****** ****** ******
      ****** ****** ****** ****** ****** ****** ****** ****** ****** ******
   8  ****** ****** ****** ****** ****** ****** ****** ****** ****** ******
      ****** ****** ****** ****** ****** ****** ****** ****** ****** ******
      ****** ****** ****** ****** ****** ****** ****** ****** ****** ******
   9  ****** ****** ****** ****** ****** ****** ****** ****** ****** ******
      ****** ****** ****** ****** ****** ****** ****** ****** ****** ******
      ****** ****** ****** ****** ****** ****** ****** ****** ****** ******
  10  ****** ****** ****** ****** ****** ****** ****** ****** ****** ******
      ****** ****** ****** ****** ****** ****** ****** ****** ****** ******
      ****** ****** ****** ****** ****** ****** ****** ****** ****** ******
  11  ****** ****** ****** ****** ****** ****** ****** ****** ****** ******
      ****** ****** ****** ****** ****** ****** ****** ****** ****** ******
      ****** ****** ****** ****** ****** ****** ****** ****** ****** ******
  12  ****** ****** ****** ****** ****** ****** ****** ****** ****** ******
      ****** ****** ****** ****** ****** ****** ****** ****** ****** ******
      ****** ****** ****** ****** ****** ****** ****** ****** ****** ******
  13  ****** ****** ****** ****** ****** ****** ****** ****** ****** ******
      ****** ****** ****** ****** ****** ****** ****** ****** ****** ******
      ****** ****** ****** ****** ****** ****** ****** ****** ****** ******
  14  ****** ****** ****** ****** ****** ****** ****** ****** ****** ******
      ****** ****** ****** ****** ****** ****** ****** ****** ****** ******
      ****** ****** ****** ****** ****** ****** ****** ****** ****** ******
  15  ****** ****** ****** ****** ****** ****** ****** ****** ****** ******
      ****** ****** ****** ****** ****** ****** ****** ****** ****** ******
      ****** ****** ****** ****** ****** ****** ****** ****** ****** ******
  16  ****** ****** ****** ****** ****** ****** ****** ****** ****** ******
      ****** ****** ****** ****** ****** ****** ****** ****** ****** ******
      ****** ****** ****** ****** ****** ****** ****** ****** ****** ******
  17  ****** ****** ****** ****** ****** ****** ****** ****** ****** ******
      ****** ****** ****** ****** ****** ****** ****** ****** ****** ******
      ****** ****** ****** ****** ****** ****** ****** ****** ****** ******
  18  ****** ****** ****** ****** ****** ****** ****** ****** ****** ******
      ****** ****** ****** ****** ****** ****** ****** ****** ****** ******
      ****** ****** ****** ****** ****** ****** ****** ****** ****** ******
  19  ****** ****** ****** ****** ****** ****** ****** ****** ****** ******
      ****** ****** ****** ****** ****** ****** ****** ****** ****** ******
      ****** ****** ****** ****** ****** ****** ****** ****** ****** ******
  20  ****** ****** ****** ****** ****** ****** ****** ****** ****** ******
      ****** ****** ****** ****** ****** ****** ****** ****** ****** ******
      ****** ****** ****** ****** ****** ****** ****** ****** ****** ******
  21  ****** ****** ****** ****** ****** ****** ****** ****** ****** ******
      ****** ****** ****** ****** ****** ****** ****** ****** ****** ******
      ****** ****** ****** ****** ****** ****** ****** ****** ****** ******
  22  ****** ****** ****** ****** ****** ****** ****** ****** ****** ******
      ****** ****** ****** ****** ****** ****** ****** ****** ****** ******
      ****** ****** ****** ****** ****** ****** ****** ****** ****** ******
  23  ****** ****** ****** ****** ****** ****** ****** ****** ****** ******
      ****** ****** ****** ****** ****** ****** ****** ****** ****** ******
      ****** ****** ****** ****** ****** ****** ****** ****** ****** ******
  24  ****** ****** ****** ****** ****** ****** ****** ****** ****** ******
      ****** ****** ****** ****** ****** ****** ****** ****** ****** ******
      ****** ****** ****** ****** ****** ****** ****** ****** ****** ******
  25  ****** ****** ****** ****** ****** ****** ****** ****** ****** ******
      ****** ****** ****** ****** ****** ****** ****** ****** ****** ******
      ****** ****** ****** ****** ****** ****** ****** ****** ****** ******

 HEAD WILL BE SAVED ON UNIT   51 AT END OF TIME STEP    1, STRESS PERIOD    2
1
  VOLUMETRIC BUDGET FOR ENTIRE MODEL AT END OF TIME STEP    1, STRESS PERIOD   2
  ------------------------------------------------------------------------------

     CUMULATIVE VOLUMES      L**3       RATES FOR THIS TIME STEP      L**3/T
     ------------------                 ------------------------

           IN:                                      IN:
           ---                                      ---
             STORAGE =    22046216.7837               STORAGE =       37138.3712
       CONSTANT HEAD =    29265616.2760         CONSTANT HEAD =      172506.9529
               WELLS =           0.0000                 WELLS =           0.0000
            RECHARGE =     6292800.0000              RECHARGE =       55200.0000
      STREAM LEAKAGE =     1077365.7400        STREAM LEAKAGE =        6599.6928

            TOTAL IN =    58681998.7997              TOTAL IN =      271445.0169

          OUT:                                     OUT:
          ----                                     ----
             STORAGE =           0.0000               STORAGE =           0.0000
       CONSTANT HEAD =           0.0000         CONSTANT HEAD =           0.0000
               WELLS =    24395830.8015                 WELLS =      133310.5508
            RECHARGE =           0.0000              RECHARGE =           0.0000
      STREAM LEAKAGE =    34286168.6286        STREAM LEAKAGE =      138134.4715

           TOTAL OUT =    58681999.4301             TOTAL OUT =      271445.0223

            IN - OUT =          -0.6304              IN - OUT =      -5.3657E-03

 PERCENT DISCREPANCY =          -0.00     PERCENT DISCREPANCY =          -0.00






         TIME SUMMARY AT END OF TIME STEP    1 IN STRESS PERIOD    2
                    SECONDS     MINUTES      HOURS       DAYS        YEARS
                    -----------------------------------------------------------
   TIME STEP LENGTH 7.86240E+06 1.31040E+05  2184.0      91.000     0.24914    
 STRESS PERIOD TIME 7.86240E+06 1.31040E+05  2184.0      91.000     0.24914    
         TOTAL TIME 1.58112E+07 2.63520E+05  4392.0      183.00     0.50103    
1
1
                            STRESS PERIOD NO.    3, LENGTH =   91.00000    
                            -----------------------------------------------

                              NUMBER OF TIME STEPS =     1

                               MULTIPLIER FOR DELT =     1.500

                            INITIAL TIME STEP SIZE =   91.00000    

 WELL NO.  LAYER   ROW   COL   STRESS RATE         
 --------------------------------------------------
      1      1     23     20     -0.3361E+05
      2      1     23      4     -0.3381E+05
      3      1      5     26     -0.3582E+05
      4      1     21     27     -0.3006E+05

      4 WELLS

                 RECHARGE =   0.00000    

 REUSING STREAM SEGMENT DATA FROM LAST STRESS PERIOD
 
 SOLVING FOR HEAD 


     7 CALLS TO PCG ROUTINE FOR TIME STEP   1 IN STRESS PERIOD    3
    27 TOTAL ITERATIONS

 OUTPUT CONTROL FOR STRESS PERIOD    3   TIME STEP    1
    SAVE BUDGET
    SAVE HEAD FOR ALL LAYERS
    PRINT HEAD FOR ALL LAYERS
 UBDSV2 SAVING "STREAMFLOW OUT  " ON UNIT  50 AT TIME STEP  1, STRESS PERIOD   3



 STREAM LISTING     PERIOD      3   STEP        1

 LAYER ROW COL. STREAM  RCH.  FLOW INTO     FLOW TO   FLOW OUT OF   OVRLND.     DIRECT     STREAM       STREAM     STREAM     STREAM   STREAMBED  STREAMBED
                SEG.NO.  NO.  STRM. RCH.    AQUIFER    STRM. RCH.    RUNOFF     PRECIP       ET          HEAD       DEPTH      WIDTH   CONDCTNC.   GRADIENT

   1   13    1     1     1    1.0000E+05 -2.6286E+03   1.0263E+05  0.000E+00  0.000E+00  0.000E+00  4.84072E+01  1.458E-01  2.000E+01  2.000E+04 -1.314E-01
   1   13    2     1     2    1.0263E+05 -4.7090E+03   1.0734E+05  0.000E+00  0.000E+00  0.000E+00  4.79330E+01  1.489E-01  2.000E+01  2.000E+04 -2.355E-01
   1   14    3     1     3    1.0734E+05 -3.3292E+03   1.1067E+05  0.000E+00  0.000E+00  0.000E+00  4.74591E+01  1.523E-01  2.000E+01  2.000E+04 -1.665E-01
   1   15    4     1     4    1.1067E+05 -2.8835E+03   1.1355E+05  0.000E+00  0.000E+00  0.000E+00  4.69845E+01  1.549E-01  2.000E+01  2.000E+04 -1.442E-01
   1   16    5     1     5    1.1355E+05 -2.6189E+03   1.1617E+05  0.000E+00  0.000E+00  0.000E+00  4.65095E+01  1.572E-01  2.000E+01  2.000E+04 -1.309E-01
   1   16    6     1     6    1.1617E+05 -2.4548E+03   1.1862E+05  0.000E+00  0.000E+00  0.000E+00  4.60343E+01  1.593E-01  2.000E+01  2.000E+04 -1.227E-01
   1   16    7     1     7    1.1862E+05 -2.6955E+03   1.2132E+05  0.000E+00  0.000E+00  0.000E+00  4.55591E+01  1.614E-01  2.000E+01  2.000E+04 -1.348E-01
   1   16    8     1     8    1.2132E+05 -2.8650E+03   1.2418E+05  0.000E+00  0.000E+00  0.000E+00  4.50840E+01  1.636E-01  2.000E+01  2.000E+04 -1.433E-01
   1   16    9     1     9    1.2418E+05 -2.9615E+03   1.2715E+05  0.000E+00  0.000E+00  0.000E+00  4.46091E+01  1.659E-01  2.000E+01  2.000E+04 -1.481E-01
   1   16   10     1    10    1.2715E+05 -2.9860E+03   1.3013E+05  0.000E+00  0.000E+00  0.000E+00  4.41342E+01  1.682E-01  2.000E+01  2.000E+04 -1.493E-01
   1   16   11     1    11    1.3013E+05 -2.9559E+03   1.3309E+05  0.000E+00  0.000E+00  0.000E+00  4.36592E+01  1.706E-01  2.000E+01  2.000E+04 -1.478E-01
   1   16   12     1    12    1.3309E+05 -3.7768E+03   1.3686E+05  0.000E+00  0.000E+00  0.000E+00  4.31845E+01  1.732E-01  2.000E+01  2.000E+04 -1.888E-01
   1   15   13     1    13    1.3686E+05 -3.6266E+03   1.4049E+05  0.000E+00  0.000E+00  0.000E+00  4.27101E+01  1.760E-01  2.000E+01  2.000E+04 -1.813E-01
   1   14   14     1    14    1.4049E+05 -3.7508E+03   1.4424E+05  0.000E+00  0.000E+00  0.000E+00  4.22356E+01  1.788E-01  2.000E+01  2.000E+04 -1.875E-01
   1   13   15     1    15    1.4424E+05 -4.0905E+03   1.4833E+05  0.000E+00  0.000E+00  0.000E+00  4.17613E+01  1.817E-01  2.000E+01  2.000E+04 -2.045E-01
   1   12   16     1    16    1.4833E+05 -5.3197E+03   1.5365E+05  0.000E+00  0.000E+00  0.000E+00  4.12875E+01  1.852E-01  2.000E+01  2.000E+04 -2.660E-01
   1   12   17     1    17    1.5365E+05 -3.3385E+03   1.5699E+05  0.000E+00  0.000E+00  0.000E+00  4.08134E+01  1.884E-01  2.000E+01  2.000E+04 -1.669E-01
   1   12   18     1    18    1.5699E+05 -3.1171E+03   1.6011E+05  0.000E+00  0.000E+00  0.000E+00  4.03385E+01  1.907E-01  2.000E+01  2.000E+04 -1.559E-01
   1   12   19     1    19    1.6011E+05 -3.9496E+03   1.6406E+05  0.000E+00  0.000E+00  0.000E+00  3.98637E+01  1.933E-01  2.000E+01  2.000E+04 -1.975E-01
   1   13   20     1    20    1.6406E+05 -2.3571E+03   1.6641E+05  0.000E+00  0.000E+00  0.000E+00  3.93887E+01  1.955E-01  2.000E+01  2.000E+04 -1.179E-01
   1   14   21     1    21    1.6641E+05 -1.4184E+03   1.6783E+05  0.000E+00  0.000E+00  0.000E+00  3.89128E+01  1.969E-01  2.000E+01  2.000E+04 -7.092E-02
   1   14   22     1    22    1.6783E+05  5.3468E+03   1.6249E+05  0.000E+00  0.000E+00  0.000E+00  3.84341E+01  1.955E-01  2.000E+01  2.000E+04  2.673E-01
   1    9   30     2     1    5.0000E+04 -1.1327E+03   5.1133E+04  0.000E+00  0.000E+00  0.000E+00  4.02417E+01  1.167E-01  2.000E+01  2.000E+04 -5.664E-02
   1    9   29     2     2    5.1133E+04 -1.2745E+03   5.2407E+04  0.000E+00  0.000E+00  0.000E+00  3.99933E+01  1.183E-01  2.000E+01  2.000E+04 -6.373E-02
   1    9   28     2     3    5.2407E+04 -1.2571E+03   5.3664E+04  0.000E+00  0.000E+00  0.000E+00  3.97450E+01  1.200E-01  2.000E+01  2.000E+04 -6.285E-02
   1    9   27     2     4    5.3664E+04 -2.3224E+03   5.5987E+04  0.000E+00  0.000E+00  0.000E+00  3.94975E+01  1.225E-01  2.000E+01  2.000E+04 -1.161E-01
   1   10   26     2     5    5.5987E+04 -1.7315E+03   5.7718E+04  0.000E+00  0.000E+00  0.000E+00  3.92501E+01  1.251E-01  2.000E+01  2.000E+04 -8.658E-02
   1   11   25     2     6    5.7718E+04 -1.5624E+03   5.9281E+04  0.000E+00  0.000E+00  0.000E+00  3.90023E+01  1.273E-01  2.000E+01  2.000E+04 -7.812E-02
   1   12   24     2     7    5.9281E+04 -1.2151E+03   6.0496E+04  0.000E+00  0.000E+00  0.000E+00  3.87541E+01  1.291E-01  2.000E+01  2.000E+04 -6.076E-02
   1   13   23     2     8    6.0496E+04 -7.1469E+02   6.1210E+04  0.000E+00  0.000E+00  0.000E+00  3.85054E+01  1.304E-01  2.000E+01  2.000E+04 -3.573E-02
   1   14   22     2     9    6.1210E+04  1.7586E+03   5.9452E+04  0.000E+00  0.000E+00  0.000E+00  3.82547E+01  1.297E-01  2.000E+01  2.000E+04  8.793E-02
   1   14   22     3     1    2.2194E+05 -8.3075E+03   2.3025E+05  0.000E+00  0.000E+00  0.000E+00  3.77514E+01  1.958E-01  2.000E+01  2.000E+04 -4.154E-01
   1   15   23     3     2    2.3025E+05 -1.6387E+03   2.3188E+05  0.000E+00  0.000E+00  0.000E+00  3.68651E+01  1.984E-01  2.000E+01  2.000E+04 -8.193E-02
   1   15   24     3     3    2.3188E+05 -1.0882E+03   2.3297E+05  0.000E+00  0.000E+00  0.000E+00  3.59769E+01  1.991E-01  2.000E+01  2.000E+04 -5.441E-02
   1   15   25     3     4    2.3297E+05 -1.0291E+03   2.3400E+05  0.000E+00  0.000E+00  0.000E+00  3.50885E+01  1.996E-01  2.000E+01  2.000E+04 -5.146E-02
   1   15   26     3     5    2.3400E+05 -1.5464E+03   2.3555E+05  0.000E+00  0.000E+00  0.000E+00  3.42003E+01  2.003E-01  2.000E+01  2.000E+04 -7.732E-02
   1   16   27     3     6    2.3555E+05 -1.4206E+03   2.3697E+05  0.000E+00  0.000E+00  0.000E+00  3.33122E+01  2.011E-01  2.000E+01  2.000E+04 -7.103E-02
   1   17   28     3     7    2.3697E+05 -1.1771E+03   2.3815E+05  0.000E+00  0.000E+00  0.000E+00  3.24239E+01  2.017E-01  2.000E+01  2.000E+04 -5.885E-02
   1   18   29     3     8    2.3815E+05 -1.3030E+03   2.3945E+05  0.000E+00  0.000E+00  0.000E+00  3.15357E+01  2.024E-01  2.000E+01  2.000E+04 -6.515E-02
   1   18   30     3     9    2.3945E+05 -2.4169E+03   2.4187E+05  0.000E+00  0.000E+00  0.000E+00  3.06477E+01  2.033E-01  2.000E+01  2.000E+04 -1.208E-01



1
              HEAD IN LAYER   1 AT END OF TIME STEP   1 IN STRESS PERIOD    3
  ---------------------------------------------------------------------------

          1      2      3      4      5      6      7      8      9     10
         11     12     13     14     15     16     17     18     19     20
         21     22     23     24     25     26     27     28     29     30
 .........................................................................
   1  ****** ****** ****** ****** ****** ****** ****** ****** ****** ******
      ****** ****** ****** ****** ****** ****** ****** ****** ****** ******
      ****** ****** ****** ****** ****** ****** ****** ****** ****** ******
   2  ****** ****** ****** ****** ****** ****** ****** ****** ****** ******
      ****** ****** ****** ****** ****** ****** ****** ****** ****** ******
      ****** ****** ****** ****** ****** ****** ****** ****** ****** ******
   3  ****** ****** ****** ****** ****** ****** ****** ****** ****** ******
      ****** ****** ****** ****** ****** ****** ****** ****** ****** ******
      ****** ****** ****** ****** ****** ****** ****** ****** ****** ******
   4  ****** ****** ****** ****** ****** ****** ****** ****** ****** ******
      ****** ****** ****** ****** ****** ****** ****** ****** ****** ******
      ****** ****** ****** ****** ****** ****** ****** ****** ****** ******
   5  ****** ****** ****** ****** ****** ****** ****** ****** ****** ******
      ****** ****** ****** ****** ****** ****** ****** ****** ****** ******
      ****** ****** ****** ****** ****** ****** ****** ****** ****** ******
   6  ****** ****** ****** ****** ****** ****** ****** ****** ****** ******
      ****** ****** ****** ****** ****** ****** ****** ****** ****** ******
      ****** ****** ****** ****** ****** ****** ****** ****** ****** ******
   7  ****** ****** ****** ****** ****** ****** ****** ****** ****** ******
      ****** ****** ****** ****** ****** ****** ****** ****** ****** ******
      ****** ****** ****** ****** ****** ****** ****** ****** ****** ******
   8  ****** ****** ****** ****** ****** ****** ****** ****** ****** ******
      ****** ****** ****** ****** ****** ****** ****** ****** ****** ******
      ****** ****** ****** ****** ****** ****** ****** ****** ****** ******
   9  ****** ****** ****** ****** ****** ****** ****** ****** ****** ******
      ****** ****** ****** ****** ****** ****** ****** ****** ****** ******
      ****** ****** ****** ****** ****** ****** ****** ****** ****** ******
  10  ****** ****** ****** ****** ****** ****** ****** ****** ****** ******
      ****** ****** ****** ****** ****** ****** ****** ****** ****** ******
      ****** ****** ****** ****** ****** ****** ****** ****** ****** ******
  11  ****** ****** ****** ****** ****** ****** ****** ****** ****** ******
      ****** ****** ****** ****** ****** ****** ****** ****** ****** ******
      ****** ****** ****** ****** ****** ****** ****** ****** ****** ******
  12  ****** ****** ****** ****** ****** ****** ****** ****** ****** ******
      ****** ****** ****** ****** ****** ****** ****** ****** ****** ******
      ****** ****** ****** ****** ****** ****** ****** ****** ****** ******
  13  ****** ****** ****** ****** ****** ****** ****** ****** ****** ******
      ****** ****** ****** ****** ****** ****** ****** ****** ****** ******
      ****** ****** ****** ****** ****** ****** ****** ****** ****** ******
  14  ****** ****** ****** ****** ****** ****** ****** ****** ****** ******
      ****** ****** ****** ****** ****** ****** ****** ****** ****** ******
      ****** ****** ****** ****** ****** ****** ****** ****** ****** ******
  15  ****** ****** ****** ****** ****** ****** ****** ****** ****** ******
      ****** ****** ****** ****** ****** ****** ****** ****** ****** ******
      ****** ****** ****** ****** ****** ****** ****** ****** ****** ******
  16  ****** ****** ****** ****** ****** ****** ****** ****** ****** ******
      ****** ****** ****** ****** ****** ****** ****** ****** ****** ******
      ****** ****** ****** ****** ****** ****** ****** ****** ****** ******
  17  ****** ****** ****** ****** ****** ****** ****** ****** ****** ******
      ****** ****** ****** ****** ****** ****** ****** ****** ****** ******
      ****** ****** ****** ****** ****** ****** ****** ****** ****** ******
  18  ****** ****** ****** ****** ****** ****** ****** ****** ****** ******
      ****** ****** ****** ****** ****** ****** ****** ****** ****** ******
      ****** ****** ****** ****** ****** ****** ****** ****** ****** ******
  19  ****** ****** ****** ****** ****** ****** ****** ****** ****** ******
      ****** ****** ****** ****** ****** ****** ****** ****** ****** ******
      ****** ****** ****** ****** ****** ****** ****** ****** ****** ******
  20  ****** ****** ****** ****** ****** ****** ****** ****** ****** ******
      ****** ****** ****** ****** ****** ****** ****** ****** ****** ******
      ****** ****** ****** ****** ****** ****** ****** ****** ****** ******
  21  ****** ****** ****** ****** ****** ****** ****** ****** ****** ******
      ****** ****** ****** ****** ****** ****** ****** ****** ****** ******
      ****** ****** ****** ****** ****** ****** ****** ****** ****** ******
  22  ****** ****** ****** ****** ****** ****** ****** ****** ****** ******
      ****** ****** ****** ****** ****** ****** ****** ****** ****** ******
      ****** ****** ****** ****** ****** ****** ****** ****** ****** ******
  23  ****** ****** ****** ****** ****** ****** ****** ****** ****** ******
      ****** ****** ****** ****** ****** ****** ****** ****** ****** ******
      ****** ****** ****** ****** ****** ****** ****** ****** ****** ******
  24  ****** ****** ****** ****** ****** ****** ****** ****** ****** ******
      ****** ****** ****** ****** ****** ****** ****** ****** ****** ******
      ****** ****** ****** ****** ****** ****** ****** ****** ****** ******
  25  ****** ****** ****** ****** ****** ****** ****** ****** ****** ******
      ****** ****** ****** ****** ****** ****** ****** ****** ****** ******
      ****** ****** ****** ****** ****** ****** ****** ****** ****** ******

 HEAD WILL BE SAVED ON UNIT   51 AT END OF TIME STEP    1, STRESS PERIOD    3
1
  VOLUMETRIC BUDGET FOR ENTIRE MODEL AT END OF TIME STEP    1, STRESS PERIOD   3
  ------------------------------------------------------------------------------

     CUMULATIVE VOLUMES      L**3       RATES FOR THIS TIME STEP      L**3/T
     ------------------                 ------------------------

           IN:                                      IN:
           ---                                      ---
             STORAGE =    24529556.7693               STORAGE =       27289.4504
       CONSTANT HEAD =    47273332.6028         CONSTANT HEAD =      197886.9926
               WELLS =           0.0000                 WELLS =           0.0000
            RECHARGE =     6292800.0000              RECHARGE =           0.0000
      STREAM LEAKAGE =     1723956.0220        STREAM LEAKAGE =        7105.3877

            TOTAL IN =    79819645.3941              TOTAL IN =      232281.8307

          OUT:                                     OUT:
          ----                                     ----
             STORAGE =           0.0000               STORAGE =           0.0000
       CONSTANT HEAD =           0.0000         CONSTANT HEAD =           0.0000
               WELLS =    36527090.9268                 WELLS =      133310.5508
            RECHARGE =           0.0000              RECHARGE =           0.0000
      STREAM LEAKAGE =    43292555.3511        STREAM LEAKAGE =       98971.2827

           TOTAL OUT =    79819646.2779             TOTAL OUT =      232281.8335

            IN - OUT =          -0.8837              IN - OUT =      -2.7837E-03

 PERCENT DISCREPANCY =          -0.00     PERCENT DISCREPANCY =          -0.00






         TIME SUMMARY AT END OF TIME STEP    1 IN STRESS PERIOD    3
                    SECONDS     MINUTES      HOURS       DAYS        YEARS
                    -----------------------------------------------------------
   TIME STEP LENGTH 7.86240E+06 1.31040E+05  2184.0      91.000     0.24914    
 STRESS PERIOD TIME 7.86240E+06 1.31040E+05  2184.0      91.000     0.24914    
         TOTAL TIME 2.36736E+07 3.94560E+05  6576.0      274.00     0.75017    
1
1
                            STRESS PERIOD NO.    4, LENGTH =   91.00000    
                            -----------------------------------------------

                              NUMBER OF TIME STEPS =     1

                               MULTIPLIER FOR DELT =     1.500

                            INITIAL TIME STEP SIZE =   91.00000    

 WELL NO.  LAYER   ROW   COL   STRESS RATE         
 --------------------------------------------------
      1      1     23     20     -0.3361E+05
      2      1     23      4     -0.3381E+05
      3      1      5     26     -0.3582E+05
      4      1     21     27     -0.3006E+05

      4 WELLS

                 RECHARGE =  1.000000E-03

 REUSING STREAM SEGMENT DATA FROM LAST STRESS PERIOD
 
 SOLVING FOR HEAD 


     6 CALLS TO PCG ROUTINE FOR TIME STEP   1 IN STRESS PERIOD    4
    20 TOTAL ITERATIONS

 OUTPUT CONTROL FOR STRESS PERIOD    4   TIME STEP    1
    SAVE BUDGET
    SAVE HEAD FOR ALL LAYERS
    PRINT HEAD FOR ALL LAYERS
 UBDSV2 SAVING "STREAMFLOW OUT  " ON UNIT  50 AT TIME STEP  1, STRESS PERIOD   4



 STREAM LISTING     PERIOD      4   STEP        1

 LAYER ROW COL. STREAM  RCH.  FLOW INTO     FLOW TO   FLOW OUT OF   OVRLND.     DIRECT     STREAM       STREAM     STREAM     STREAM   STREAMBED  STREAMBED
                SEG.NO.  NO.  STRM. RCH.    AQUIFER    STRM. RCH.    RUNOFF     PRECIP       ET          HEAD       DEPTH      WIDTH   CONDCTNC.   GRADIENT

   1   13    1     1     1    1.0000E+05 -2.6398E+03   1.0264E+05  0.000E+00  0.000E+00  0.000E+00  4.84072E+01  1.458E-01  2.000E+01  2.000E+04 -1.320E-01
   1   13    2     1     2    1.0264E+05 -4.6923E+03   1.0733E+05  0.000E+00  0.000E+00  0.000E+00  4.79330E+01  1.489E-01  2.000E+01  2.000E+04 -2.346E-01
   1   14    3     1     3    1.0733E+05 -3.3560E+03   1.1069E+05  0.000E+00  0.000E+00  0.000E+00  4.74592E+01  1.523E-01  2.000E+01  2.000E+04 -1.678E-01
   1   15    4     1     4    1.1069E+05 -2.9198E+03   1.1361E+05  0.000E+00  0.000E+00  0.000E+00  4.69845E+01  1.550E-01  2.000E+01  2.000E+04 -1.460E-01
   1   16    5     1     5    1.1361E+05 -2.6520E+03   1.1626E+05  0.000E+00  0.000E+00  0.000E+00  4.65095E+01  1.573E-01  2.000E+01  2.000E+04 -1.326E-01
   1   16    6     1     6    1.1626E+05 -2.4873E+03   1.1875E+05  0.000E+00  0.000E+00  0.000E+00  4.60344E+01  1.594E-01  2.000E+01  2.000E+04 -1.244E-01
   1   16    7     1     7    1.1875E+05 -2.7272E+03   1.2147E+05  0.000E+00  0.000E+00  0.000E+00  4.55592E+01  1.615E-01  2.000E+01  2.000E+04 -1.364E-01
   1   16    8     1     8    1.2147E+05 -2.8963E+03   1.2437E+05  0.000E+00  0.000E+00  0.000E+00  4.50842E+01  1.637E-01  2.000E+01  2.000E+04 -1.448E-01
   1   16    9     1     9    1.2437E+05 -2.9930E+03   1.2736E+05  0.000E+00  0.000E+00  0.000E+00  4.46092E+01  1.661E-01  2.000E+01  2.000E+04 -1.496E-01
   1   16   10     1    10    1.2736E+05 -3.0183E+03   1.3038E+05  0.000E+00  0.000E+00  0.000E+00  4.41343E+01  1.684E-01  2.000E+01  2.000E+04 -1.509E-01
   1   16   11     1    11    1.3038E+05 -2.9883E+03   1.3337E+05  0.000E+00  0.000E+00  0.000E+00  4.36594E+01  1.708E-01  2.000E+01  2.000E+04 -1.494E-01
   1   16   12     1    12    1.3337E+05 -3.8013E+03   1.3717E+05  0.000E+00  0.000E+00  0.000E+00  4.31848E+01  1.734E-01  2.000E+01  2.000E+04 -1.901E-01
   1   15   13     1    13    1.3717E+05 -3.6510E+03   1.4082E+05  0.000E+00  0.000E+00  0.000E+00  4.27103E+01  1.762E-01  2.000E+01  2.000E+04 -1.826E-01
   1   14   14     1    14    1.4082E+05 -3.7689E+03   1.4459E+05  0.000E+00  0.000E+00  0.000E+00  4.22359E+01  1.791E-01  2.000E+01  2.000E+04 -1.884E-01
   1   13   15     1    15    1.4459E+05 -4.1049E+03   1.4870E+05  0.000E+00  0.000E+00  0.000E+00  4.17616E+01  1.820E-01  2.000E+01  2.000E+04 -2.052E-01
   1   12   16     1    16    1.4870E+05 -5.3064E+03   1.5400E+05  0.000E+00  0.000E+00  0.000E+00  4.12878E+01  1.855E-01  2.000E+01  2.000E+04 -2.653E-01
   1   12   17     1    17    1.5400E+05 -3.3561E+03   1.5736E+05  0.000E+00  0.000E+00  0.000E+00  4.08137E+01  1.887E-01  2.000E+01  2.000E+04 -1.678E-01
   1   12   18     1    18    1.5736E+05 -3.1408E+03   1.6050E+05  0.000E+00  0.000E+00  0.000E+00  4.03387E+01  1.910E-01  2.000E+01  2.000E+04 -1.570E-01
   1   12   19     1    19    1.6050E+05 -3.9802E+03   1.6448E+05  0.000E+00  0.000E+00  0.000E+00  3.98640E+01  1.936E-01  2.000E+01  2.000E+04 -1.990E-01
   1   13   20     1    20    1.6448E+05 -2.4184E+03   1.6690E+05  0.000E+00  0.000E+00  0.000E+00  3.93890E+01  1.958E-01  2.000E+01  2.000E+04 -1.209E-01
   1   14   21     1    21    1.6690E+05 -1.4536E+03   1.6835E+05  0.000E+00  0.000E+00  0.000E+00  3.89131E+01  1.972E-01  2.000E+01  2.000E+04 -7.268E-02
   1   14   22     1    22    1.6835E+05  5.3195E+03   1.6303E+05  0.000E+00  0.000E+00  0.000E+00  3.84345E+01  1.958E-01  2.000E+01  2.000E+04  2.660E-01
   1    9   30     2     1    5.0000E+04 -1.2198E+03   5.1220E+04  0.000E+00  0.000E+00  0.000E+00  4.02417E+01  1.167E-01  2.000E+01  2.000E+04 -6.099E-02
   1    9   29     2     2    5.1220E+04 -1.3592E+03   5.2579E+04  0.000E+00  0.000E+00  0.000E+00  3.99935E+01  1.185E-01  2.000E+01  2.000E+04 -6.796E-02
   1    9   28     2     3    5.2579E+04 -1.3354E+03   5.3914E+04  0.000E+00  0.000E+00  0.000E+00  3.97453E+01  1.203E-01  2.000E+01  2.000E+04 -6.677E-02
   1    9   27     2     4    5.3914E+04 -2.3842E+03   5.6299E+04  0.000E+00  0.000E+00  0.000E+00  3.94978E+01  1.228E-01  2.000E+01  2.000E+04 -1.192E-01
   1   10   26     2     5    5.6299E+04 -1.8263E+03   5.8125E+04  0.000E+00  0.000E+00  0.000E+00  3.92506E+01  1.256E-01  2.000E+01  2.000E+04 -9.132E-02
   1   11   25     2     6    5.8125E+04 -1.6653E+03   5.9790E+04  0.000E+00  0.000E+00  0.000E+00  3.90029E+01  1.279E-01  2.000E+01  2.000E+04 -8.326E-02
   1   12   24     2     7    5.9790E+04 -1.3218E+03   6.1112E+04  0.000E+00  0.000E+00  0.000E+00  3.87548E+01  1.298E-01  2.000E+01  2.000E+04 -6.609E-02
   1   13   23     2     8    6.1112E+04 -8.1580E+02   6.1928E+04  0.000E+00  0.000E+00  0.000E+00  3.85062E+01  1.312E-01  2.000E+01  2.000E+04 -4.079E-02
   1   14   22     2     9    6.1928E+04  1.7423E+03   6.0186E+04  0.000E+00  0.000E+00  0.000E+00  3.82556E+01  1.306E-01  2.000E+01  2.000E+04  8.712E-02
   1   14   22     3     1    2.2322E+05 -8.3291E+03   2.3155E+05  0.000E+00  0.000E+00  0.000E+00  3.77521E+01  1.965E-01  2.000E+01  2.000E+04 -4.165E-01
   1   15   23     3     2    2.3155E+05 -1.6688E+03   2.3322E+05  0.000E+00  0.000E+00  0.000E+00  3.68657E+01  1.991E-01  2.000E+01  2.000E+04 -8.344E-02
   1   15   24     3     3    2.3322E+05 -1.1458E+03   2.3436E+05  0.000E+00  0.000E+00  0.000E+00  3.59776E+01  1.998E-01  2.000E+01  2.000E+04 -5.729E-02
   1   15   25     3     4    2.3436E+05 -1.1039E+03   2.3547E+05  0.000E+00  0.000E+00  0.000E+00  3.50893E+01  2.004E-01  2.000E+01  2.000E+04 -5.520E-02
   1   15   26     3     5    2.3547E+05 -1.6609E+03   2.3713E+05  0.000E+00  0.000E+00  0.000E+00  3.42011E+01  2.011E-01  2.000E+01  2.000E+04 -8.304E-02
   1   16   27     3     6    2.3713E+05 -1.5284E+03   2.3866E+05  0.000E+00  0.000E+00  0.000E+00  3.33130E+01  2.019E-01  2.000E+01  2.000E+04 -7.642E-02
   1   17   28     3     7    2.3866E+05 -1.2784E+03   2.3993E+05  0.000E+00  0.000E+00  0.000E+00  3.24248E+01  2.026E-01  2.000E+01  2.000E+04 -6.392E-02
   1   18   29     3     8    2.3993E+05 -1.3781E+03   2.4131E+05  0.000E+00  0.000E+00  0.000E+00  3.15366E+01  2.033E-01  2.000E+01  2.000E+04 -6.891E-02
   1   18   30     3     9    2.4131E+05 -2.4996E+03   2.4381E+05  0.000E+00  0.000E+00  0.000E+00  3.06487E+01  2.043E-01  2.000E+01  2.000E+04 -1.250E-01



1
              HEAD IN LAYER   1 AT END OF TIME STEP   1 IN STRESS PERIOD    4
  ---------------------------------------------------------------------------

          1      2      3      4      5      6      7      8      9     10
         11     12     13     14     15     16     17     18     19     20
         21     22     23     24     25     26     27     28     29     30
 .........................................................................
   1  ****** ****** ****** ****** ****** ****** ****** ****** ****** ******
      ****** ****** ****** ****** ****** ****** ****** ****** ****** ******
      ****** ****** ****** ****** ****** ****** ****** ****** ****** ******
   2  ****** ****** ****** ****** ****** ****** ****** ****** ****** ******
      ****** ****** ****** ****** ****** ****** ****** ****** ****** ******
      ****** ****** ****** ****** ****** ****** ****** ****** ****** ******
   3  ****** ****** ****** ****** ****** ****** ****** ****** ****** ******
      ****** ****** ****** ****** ****** ****** ****** ****** ****** ******
      ****** ****** ****** ****** ****** ****** ****** ****** ****** ******
   4  ****** ****** ****** ****** ****** ****** ****** ****** ****** ******
      ****** ****** ****** ****** ****** ****** ****** ****** ****** ******
      ****** ****** ****** ****** ****** ****** ****** ****** ****** ******
   5  ****** ****** ****** ****** ****** ****** ****** ****** ****** ******
      ****** ****** ****** ****** ****** ****** ****** ****** ****** ******
      ****** ****** ****** ****** ****** ****** ****** ****** ****** ******
   6  ****** ****** ****** ****** ****** ****** ****** ****** ****** ******
      ****** ****** ****** ****** ****** ****** ****** ****** ****** ******
      ****** ****** ****** ****** ****** ****** ****** ****** ****** ******
   7  ****** ****** ****** ****** ****** ****** ****** ****** ****** ******
      ****** ****** ****** ****** ****** ****** ****** ****** ****** ******
      ****** ****** ****** ****** ****** ****** ****** ****** ****** ******
   8  ****** ****** ****** ****** ****** ****** ****** ****** ****** ******
      ****** ****** ****** ****** ****** ****** ****** ****** ****** ******
      ****** ****** ****** ****** ****** ****** ****** ****** ****** ******
   9  ****** ****** ****** ****** ****** ****** ****** ****** ****** ******
      ****** ****** ****** ****** ****** ****** ****** ****** ****** ******
      ****** ****** ****** ****** ****** ****** ****** ****** ****** ******
  10  ****** ****** ****** ****** ****** ****** ****** ****** ****** ******
      ****** ****** ****** ****** ****** ****** ****** ****** ****** ******
      ****** ****** ****** ****** ****** ****** ****** ****** ****** ******
  11  ****** ****** ****** ****** ****** ****** ****** ****** ****** ******
      ****** ****** ****** ****** ****** ****** ****** ****** ****** ******
      ****** ****** ****** ****** ****** ****** ****** ****** ****** ******
  12  ****** ****** ****** ****** ****** ****** ****** ****** ****** ******
      ****** ****** ****** ****** ****** ****** ****** ****** ****** ******
      ****** ****** ****** ****** ****** ****** ****** ****** ****** ******
  13  ****** ****** ****** ****** ****** ****** ****** ****** ****** ******
      ****** ****** ****** ****** ****** ****** ****** ****** ****** ******
      ****** ****** ****** ****** ****** ****** ****** ****** ****** ******
  14  ****** ****** ****** ****** ****** ****** ****** ****** ****** ******
      ****** ****** ****** ****** ****** ****** ****** ****** ****** ******
      ****** ****** ****** ****** ****** ****** ****** ****** ****** ******
  15  ****** ****** ****** ****** ****** ****** ****** ****** ****** ******
      ****** ****** ****** ****** ****** ****** ****** ****** ****** ******
      ****** ****** ****** ****** ****** ****** ****** ****** ****** ******
  16  ****** ****** ****** ****** ****** ****** ****** ****** ****** ******
      ****** ****** ****** ****** ****** ****** ****** ****** ****** ******
      ****** ****** ****** ****** ****** ****** ****** ****** ****** ******
  17  ****** ****** ****** ****** ****** ****** ****** ****** ****** ******
      ****** ****** ****** ****** ****** ****** ****** ****** ****** ******
      ****** ****** ****** ****** ****** ****** ****** ****** ****** ******
  18  ****** ****** ****** ****** ****** ****** ****** ****** ****** ******
      ****** ****** ****** ****** ****** ****** ****** ****** ****** ******
      ****** ****** ****** ****** ****** ****** ****** ****** ****** ******
  19  ****** ****** ****** ****** ****** ****** ****** ****** ****** ******
      ****** ****** ****** ****** ****** ****** ****** ****** ****** ******
      ****** ****** ****** ****** ****** ****** ****** ****** ****** ******
  20  ****** ****** ****** ****** ****** ****** ****** ****** ****** ******
      ****** ****** ****** ****** ****** ****** ****** ****** ****** ******
      ****** ****** ****** ****** ****** ****** ****** ****** ****** ******
  21  ****** ****** ****** ****** ****** ****** ****** ****** ****** ******
      ****** ****** ****** ****** ****** ****** ****** ****** ****** ******
      ****** ****** ****** ****** ****** ****** ****** ****** ****** ******
  22  ****** ****** ****** ****** ****** ****** ****** ****** ****** ******
      ****** ****** ****** ****** ****** ****** ****** ****** ****** ******
      ****** ****** ****** ****** ****** ****** ****** ****** ****** ******
  23  ****** ****** ****** ****** ****** ****** ****** ****** ****** ******
      ****** ****** ****** ****** ****** ****** ****** ****** ****** ******
      ****** ****** ****** ****** ****** ****** ****** ****** ****** ******
  24  ****** ****** ****** ****** ****** ****** ****** ****** ****** ******
      ****** ****** ****** ****** ****** ****** ****** ****** ****** ******
      ****** ****** ****** ****** ****** ****** ****** ****** ****** ******
  25  ****** ****** ****** ****** ****** ****** ****** ****** ****** ******
      ****** ****** ****** ****** ****** ****** ****** ****** ****** ******
      ****** ****** ****** ****** ****** ****** ****** ****** ****** ******

 HEAD WILL BE SAVED ON UNIT   51 AT END OF TIME STEP    1, STRESS PERIOD    4
1
  VOLUMETRIC BUDGET FOR ENTIRE MODEL AT END OF TIME STEP    1, STRESS PERIOD   4
  ------------------------------------------------------------------------------

     CUMULATIVE VOLUMES      L**3       RATES FOR THIS TIME STEP      L**3/T
     ------------------                 ------------------------

           IN:                                      IN:
           ---                                      ---
             STORAGE =    24687426.7550               STORAGE =        1734.8350
       CONSTANT HEAD =    65282353.7453         CONSTANT HEAD =      197901.3312
               WELLS =           0.0000                 WELLS =           0.0000
            RECHARGE =     8804400.0000              RECHARGE =       27600.0000
      STREAM LEAKAGE =     2366576.1041        STREAM LEAKAGE =        7061.7591

            TOTAL IN =   101140756.6044              TOTAL IN =      234297.9254

          OUT:                                     OUT:
          ----                                     ----
             STORAGE =       10408.9193               STORAGE =         114.3837
       CONSTANT HEAD =           0.0000         CONSTANT HEAD =           0.0000
               WELLS =    48658351.0521                 WELLS =      133310.5508
            RECHARGE =           0.0000              RECHARGE =           0.0000
      STREAM LEAKAGE =    52471997.3697        STREAM LEAKAGE =      100872.9892

           TOTAL OUT =   101140757.3411             TOTAL OUT =      234297.9238

            IN - OUT =          -0.7367              IN - OUT =       1.6158E-03

 PERCENT DISCREPANCY =          -0.00     PERCENT DISCREPANCY =           0.00






         TIME SUMMARY AT END OF TIME STEP    1 IN STRESS PERIOD    4
                    SECONDS     MINUTES      HOURS       DAYS        YEARS
                    -----------------------------------------------------------
   TIME STEP LENGTH 7.86240E+06 1.31040E+05  2184.0      91.000     0.24914    
 STRESS PERIOD TIME 7.86240E+06 1.31040E+05  2184.0      91.000     0.24914    
         TOTAL TIME 3.15360E+07 5.25600E+05  8760.0      365.00     0.99932    
1
1
                            STRESS PERIOD NO.    5, LENGTH =   92.00000    
                            -----------------------------------------------

                              NUMBER OF TIME STEPS =     1

                               MULTIPLIER FOR DELT =     1.500

                            INITIAL TIME STEP SIZE =   92.00000    

 WELL NO.  LAYER   ROW   COL   STRESS RATE         
 --------------------------------------------------
      1      1     23     20     -0.3361E+05
      2      1     23      4     -0.3381E+05
      3      1      5     26     -0.3582E+05
      4      1     21     27     -0.3006E+05

      4 WELLS

                 RECHARGE =  5.000000E-04

 REUSING STREAM SEGMENT DATA FROM LAST STRESS PERIOD
 
 SOLVING FOR HEAD 


     6 CALLS TO PCG ROUTINE FOR TIME STEP   1 IN STRESS PERIOD    5
    23 TOTAL ITERATIONS

 OUTPUT CONTROL FOR STRESS PERIOD    5   TIME STEP    1
    SAVE BUDGET
    SAVE HEAD FOR ALL LAYERS
    PRINT HEAD FOR ALL LAYERS
 UBDSV2 SAVING "STREAMFLOW OUT  " ON UNIT  50 AT TIME STEP  1, STRESS PERIOD   5



 STREAM LISTING     PERIOD      5   STEP        1

 LAYER ROW COL. STREAM  RCH.  FLOW INTO     FLOW TO   FLOW OUT OF   OVRLND.     DIRECT     STREAM       STREAM     STREAM     STREAM   STREAMBED  STREAMBED
                SEG.NO.  NO.  STRM. RCH.    AQUIFER    STRM. RCH.    RUNOFF     PRECIP       ET          HEAD       DEPTH      WIDTH   CONDCTNC.   GRADIENT

   1   13    1     1     1    1.0000E+05 -2.4623E+03   1.0246E+05  0.000E+00  0.000E+00  0.000E+00  4.84071E+01  1.457E-01  2.000E+01  2.000E+04 -1.231E-01
   1   13    2     1     2    1.0246E+05 -4.4478E+03   1.0691E+05  0.000E+00  0.000E+00  0.000E+00  4.79328E+01  1.487E-01  2.000E+01  2.000E+04 -2.224E-01
   1   14    3     1     3    1.0691E+05 -3.1250E+03   1.1004E+05  0.000E+00  0.000E+00  0.000E+00  4.74587E+01  1.519E-01  2.000E+01  2.000E+04 -1.562E-01
   1   15    4     1     4    1.1004E+05 -2.6978E+03   1.1273E+05  0.000E+00  0.000E+00  0.000E+00  4.69839E+01  1.543E-01  2.000E+01  2.000E+04 -1.349E-01
   1   16    5     1     5    1.1273E+05 -2.4543E+03   1.1519E+05  0.000E+00  0.000E+00  0.000E+00  4.65087E+01  1.565E-01  2.000E+01  2.000E+04 -1.227E-01
   1   16    6     1     6    1.1519E+05 -2.3280E+03   1.1752E+05  0.000E+00  0.000E+00  0.000E+00  4.60334E+01  1.584E-01  2.000E+01  2.000E+04 -1.164E-01
   1   16    7     1     7    1.1752E+05 -2.5642E+03   1.2008E+05  0.000E+00  0.000E+00  0.000E+00  4.55581E+01  1.604E-01  2.000E+01  2.000E+04 -1.282E-01
   1   16    8     1     8    1.2008E+05 -2.7313E+03   1.2281E+05  0.000E+00  0.000E+00  0.000E+00  4.50830E+01  1.625E-01  2.000E+01  2.000E+04 -1.366E-01
   1   16    9     1     9    1.2281E+05 -2.8281E+03   1.2564E+05  0.000E+00  0.000E+00  0.000E+00  4.46079E+01  1.648E-01  2.000E+01  2.000E+04 -1.414E-01
   1   16   10     1    10    1.2564E+05 -2.8552E+03   1.2849E+05  0.000E+00  0.000E+00  0.000E+00  4.41329E+01  1.670E-01  2.000E+01  2.000E+04 -1.428E-01
   1   16   11     1    11    1.2849E+05 -2.8282E+03   1.3132E+05  0.000E+00  0.000E+00  0.000E+00  4.36579E+01  1.692E-01  2.000E+01  2.000E+04 -1.414E-01
   1   16   12     1    12    1.3132E+05 -3.5961E+03   1.3492E+05  0.000E+00  0.000E+00  0.000E+00  4.31831E+01  1.717E-01  2.000E+01  2.000E+04 -1.798E-01
   1   15   13     1    13    1.3492E+05 -3.4214E+03   1.3834E+05  0.000E+00  0.000E+00  0.000E+00  4.27085E+01  1.744E-01  2.000E+01  2.000E+04 -1.711E-01
   1   14   14     1    14    1.3834E+05 -3.5315E+03   1.4187E+05  0.000E+00  0.000E+00  0.000E+00  4.22339E+01  1.771E-01  2.000E+01  2.000E+04 -1.766E-01
   1   13   15     1    15    1.4187E+05 -3.8688E+03   1.4574E+05  0.000E+00  0.000E+00  0.000E+00  4.17594E+01  1.799E-01  2.000E+01  2.000E+04 -1.934E-01
   1   12   16     1    16    1.4574E+05 -5.0726E+03   1.5081E+05  0.000E+00  0.000E+00  0.000E+00  4.12855E+01  1.832E-01  2.000E+01  2.000E+04 -2.536E-01
   1   12   17     1    17    1.5081E+05 -3.1910E+03   1.5400E+05  0.000E+00  0.000E+00  0.000E+00  4.08113E+01  1.863E-01  2.000E+01  2.000E+04 -1.595E-01
   1   12   18     1    18    1.5400E+05 -2.9813E+03   1.5698E+05  0.000E+00  0.000E+00  0.000E+00  4.03362E+01  1.885E-01  2.000E+01  2.000E+04 -1.491E-01
   1   12   19     1    19    1.5698E+05 -3.7882E+03   1.6077E+05  0.000E+00  0.000E+00  0.000E+00  3.98614E+01  1.910E-01  2.000E+01  2.000E+04 -1.894E-01
   1   13   20     1    20    1.6077E+05 -2.2391E+03   1.6301E+05  0.000E+00  0.000E+00  0.000E+00  3.93863E+01  1.931E-01  2.000E+01  2.000E+04 -1.120E-01
   1   14   21     1    21    1.6301E+05 -1.2860E+03   1.6430E+05  0.000E+00  0.000E+00  0.000E+00  3.89103E+01  1.944E-01  2.000E+01  2.000E+04 -6.430E-02
   1   14   22     1    22    1.6430E+05  5.3476E+03   1.5895E+05  0.000E+00  0.000E+00  0.000E+00  3.84316E+01  1.929E-01  2.000E+01  2.000E+04  2.674E-01
   1    9   30     2     1    5.0000E+04 -1.0981E+03   5.1098E+04  0.000E+00  0.000E+00  0.000E+00  4.02416E+01  1.166E-01  2.000E+01  2.000E+04 -5.490E-02
   1    9   29     2     2    5.1098E+04 -1.2376E+03   5.2336E+04  0.000E+00  0.000E+00  0.000E+00  3.99932E+01  1.182E-01  2.000E+01  2.000E+04 -6.188E-02
   1    9   28     2     3    5.2336E+04 -1.2124E+03   5.3548E+04  0.000E+00  0.000E+00  0.000E+00  3.97449E+01  1.199E-01  2.000E+01  2.000E+04 -6.062E-02
   1    9   27     2     4    5.3548E+04 -2.2103E+03   5.5758E+04  0.000E+00  0.000E+00  0.000E+00  3.94972E+01  1.222E-01  2.000E+01  2.000E+04 -1.105E-01
   1   10   26     2     5    5.5758E+04 -1.6510E+03   5.7409E+04  0.000E+00  0.000E+00  0.000E+00  3.92498E+01  1.248E-01  2.000E+01  2.000E+04 -8.255E-02
   1   11   25     2     6    5.7409E+04 -1.4979E+03   5.8907E+04  0.000E+00  0.000E+00  0.000E+00  3.90019E+01  1.269E-01  2.000E+01  2.000E+04 -7.490E-02
   1   12   24     2     7    5.8907E+04 -1.1739E+03   6.0081E+04  0.000E+00  0.000E+00  0.000E+00  3.87536E+01  1.286E-01  2.000E+01  2.000E+04 -5.869E-02
   1   13   23     2     8    6.0081E+04 -7.0073E+02   6.0782E+04  0.000E+00  0.000E+00  0.000E+00  3.85048E+01  1.298E-01  2.000E+01  2.000E+04 -3.504E-02
   1   14   22     2     9    6.0782E+04  1.7982E+03   5.8984E+04  0.000E+00  0.000E+00  0.000E+00  3.82541E+01  1.291E-01  2.000E+01  2.000E+04  8.991E-02
   1   14   22     3     1    2.1793E+05 -8.2981E+03   2.2623E+05  0.000E+00  0.000E+00  0.000E+00  3.77493E+01  1.937E-01  2.000E+01  2.000E+04 -4.149E-01
   1   15   23     3     2    2.2623E+05 -1.5127E+03   2.2775E+05  0.000E+00  0.000E+00  0.000E+00  3.68630E+01  1.963E-01  2.000E+01  2.000E+04 -7.564E-02
   1   15   24     3     3    2.2775E+05 -1.0391E+03   2.2878E+05  0.000E+00  0.000E+00  0.000E+00  3.59747E+01  1.970E-01  2.000E+01  2.000E+04 -5.196E-02
   1   15   25     3     4    2.2878E+05 -1.0013E+03   2.2979E+05  0.000E+00  0.000E+00  0.000E+00  3.50864E+01  1.975E-01  2.000E+01  2.000E+04 -5.007E-02
   1   15   26     3     5    2.2979E+05 -1.5370E+03   2.3132E+05  0.000E+00  0.000E+00  0.000E+00  3.41981E+01  1.981E-01  2.000E+01  2.000E+04 -7.685E-02
   1   16   27     3     6    2.3132E+05 -1.3669E+03   2.3269E+05  0.000E+00  0.000E+00  0.000E+00  3.33100E+01  1.989E-01  2.000E+01  2.000E+04 -6.835E-02
   1   17   28     3     7    2.3269E+05 -1.1122E+03   2.3380E+05  0.000E+00  0.000E+00  0.000E+00  3.24217E+01  1.995E-01  2.000E+01  2.000E+04 -5.561E-02
   1   18   29     3     8    2.3380E+05 -1.2186E+03   2.3502E+05  0.000E+00  0.000E+00  0.000E+00  3.15335E+01  2.001E-01  2.000E+01  2.000E+04 -6.093E-02
   1   18   30     3     9    2.3502E+05 -2.3840E+03   2.3740E+05  0.000E+00  0.000E+00  0.000E+00  3.06455E+01  2.010E-01  2.000E+01  2.000E+04 -1.192E-01



1
              HEAD IN LAYER   1 AT END OF TIME STEP   1 IN STRESS PERIOD    5
  ---------------------------------------------------------------------------

          1      2      3      4      5      6      7      8      9     10
         11     12     13     14     15     16     17     18     19     20
         21     22     23     24     25     26     27     28     29     30
 .........................................................................
   1  ****** ****** ****** ****** ****** ****** ****** ****** ****** ******
      ****** ****** ****** ****** ****** ****** ****** ****** ****** ******
      ****** ****** ****** ****** ****** ****** ****** ****** ****** ******
   2  ****** ****** ****** ****** ****** ****** ****** ****** ****** ******
      ****** ****** ****** ****** ****** ****** ****** ****** ****** ******
      ****** ****** ****** ****** ****** ****** ****** ****** ****** ******
   3  ****** ****** ****** ****** ****** ****** ****** ****** ****** ******
      ****** ****** ****** ****** ****** ****** ****** ****** ****** ******
      ****** ****** ****** ****** ****** ****** ****** ****** ****** ******
   4  ****** ****** ****** ****** ****** ****** ****** ****** ****** ******
      ****** ****** ****** ****** ****** ****** ****** ****** ****** ******
      ****** ****** ****** ****** ****** ****** ****** ****** ****** ******
   5  ****** ****** ****** ****** ****** ****** ****** ****** ****** ******
      ****** ****** ****** ****** ****** ****** ****** ****** ****** ******
      ****** ****** ****** ****** ****** ****** ****** ****** ****** ******
   6  ****** ****** ****** ****** ****** ****** ****** ****** ****** ******
      ****** ****** ****** ****** ****** ****** ****** ****** ****** ******
      ****** ****** ****** ****** ****** ****** ****** ****** ****** ******
   7  ****** ****** ****** ****** ****** ****** ****** ****** ****** ******
      ****** ****** ****** ****** ****** ****** ****** ****** ****** ******
      ****** ****** ****** ****** ****** ****** ****** ****** ****** ******
   8  ****** ****** ****** ****** ****** ****** ****** ****** ****** ******
      ****** ****** ****** ****** ****** ****** ****** ****** ****** ******
      ****** ****** ****** ****** ****** ****** ****** ****** ****** ******
   9  ****** ****** ****** ****** ****** ****** ****** ****** ****** ******
      ****** ****** ****** ****** ****** ****** ****** ****** ****** ******
      ****** ****** ****** ****** ****** ****** ****** ****** ****** ******
  10  ****** ****** ****** ****** ****** ****** ****** ****** ****** ******
      ****** ****** ****** ****** ****** ****** ****** ****** ****** ******
      ****** ****** ****** ****** ****** ****** ****** ****** ****** ******
  11  ****** ****** ****** ****** ****** ****** ****** ****** ****** ******
      ****** ****** ****** ****** ****** ****** ****** ****** ****** ******
      ****** ****** ****** ****** ****** ****** ****** ****** ****** ******
  12  ****** ****** ****** ****** ****** ****** ****** ****** ****** ******
      ****** ****** ****** ****** ****** ****** ****** ****** ****** ******
      ****** ****** ****** ****** ****** ****** ****** ****** ****** ******
  13  ****** ****** ****** ****** ****** ****** ****** ****** ****** ******
      ****** ****** ****** ****** ****** ****** ****** ****** ****** ******
      ****** ****** ****** ****** ****** ****** ****** ****** ****** ******
  14  ****** ****** ****** ****** ****** ****** ****** ****** ****** ******
      ****** ****** ****** ****** ****** ****** ****** ****** ****** ******
      ****** ****** ****** ****** ****** ****** ****** ****** ****** ******
  15  ****** ****** ****** ****** ****** ****** ****** ****** ****** ******
      ****** ****** ****** ****** ****** ****** ****** ****** ****** ******
      ****** ****** ****** ****** ****** ****** ****** ****** ****** ******
  16  ****** ****** ****** ****** ****** ****** ****** ****** ****** ******
      ****** ****** ****** ****** ****** ****** ****** ****** ****** ******
      ****** ****** ****** ****** ****** ****** ****** ****** ****** ******
  17  ****** ****** ****** ****** ****** ****** ****** ****** ****** ******
      ****** ****** ****** ****** ****** ****** ****** ****** ****** ******
      ****** ****** ****** ****** ****** ****** ****** ****** ****** ******
  18  ****** ****** ****** ****** ****** ****** ****** ****** ****** ******
      ****** ****** ****** ****** ****** ****** ****** ****** ****** ******
      ****** ****** ****** ****** ****** ****** ****** ****** ****** ******
  19  ****** ****** ****** ****** ****** ****** ****** ****** ****** ******
      ****** ****** ****** ****** ****** ****** ****** ****** ****** ******
      ****** ****** ****** ****** ****** ****** ****** ****** ****** ******
  20  ****** ****** ****** ****** ****** ****** ****** ****** ****** ******
      ****** ****** ****** ****** ****** ****** ****** ****** ****** ******
      ****** ****** ****** ****** ****** ****** ****** ****** ****** ******
  21  ****** ****** ****** ****** ****** ****** ****** ****** ****** ******
      ****** ****** ****** ****** ****** ****** ****** ****** ****** ******
      ****** ****** ****** ****** ****** ****** ****** ****** ****** ******
  22  ****** ****** ****** ****** ****** ****** ****** ****** ****** ******
      ****** ****** ****** ****** ****** ****** ****** ****** ****** ******
      ****** ****** ****** ****** ****** ****** ****** ****** ****** ******
  23  ****** ****** ****** ****** ****** ****** ****** ****** ****** ******
      ****** ****** ****** ****** ****** ****** ****** ****** ****** ******
      ****** ****** ****** ****** ****** ****** ****** ****** ****** ******
  24  ****** ****** ****** ****** ****** ****** ****** ****** ****** ******
      ****** ****** ****** ****** ****** ****** ****** ****** ****** ******
      ****** ****** ****** ****** ****** ****** ****** ****** ****** ******
  25  ****** ****** ****** ****** ****** ****** ****** ****** ****** ******
      ****** ****** ****** ****** ****** ****** ****** ****** ****** ******
      ****** ****** ****** ****** ****** ****** ****** ****** ****** ******

 HEAD WILL BE SAVED ON UNIT   51 AT END OF TIME STEP    1, STRESS PERIOD    5
1
  VOLUMETRIC BUDGET FOR ENTIRE MODEL AT END OF TIME STEP    1, STRESS PERIOD   5
  ------------------------------------------------------------------------------

     CUMULATIVE VOLUMES      L**3       RATES FOR THIS TIME STEP      L**3/T
     ------------------                 ------------------------

           IN:                                      IN:
           ---                                      ---
             STORAGE =    25107568.9479               STORAGE =        4566.7630
       CONSTANT HEAD =    83898372.6173         CONSTANT HEAD =      202348.0312
               WELLS =           0.0000                 WELLS =           0.0000
            RECHARGE =    10074000.0000              RECHARGE =       13800.0000
      STREAM LEAKAGE =     3023990.2150        STREAM LEAKAGE =        7145.8056

            TOTAL IN =   122103931.7801              TOTAL IN =      227860.5997

          OUT:                                     OUT:
          ----                                     ----
             STORAGE =       10408.9193               STORAGE =           0.0000
       CONSTANT HEAD =           0.0000         CONSTANT HEAD =           0.0000
               WELLS =    60922921.7283                 WELLS =      133310.5508
            RECHARGE =           0.0000              RECHARGE =           0.0000
      STREAM LEAKAGE =    61170601.9440        STREAM LEAKAGE =       94550.0497

           TOTAL OUT =   122103932.5916             TOTAL OUT =      227860.6005

            IN - OUT =          -0.8115              IN - OUT =      -8.1257E-04

 PERCENT DISCREPANCY =          -0.00     PERCENT DISCREPANCY =          -0.00






         TIME SUMMARY AT END OF TIME STEP    1 IN STRESS PERIOD    5
                    SECONDS     MINUTES      HOURS       DAYS        YEARS
                    -----------------------------------------------------------
   TIME STEP LENGTH 7.94880E+06 1.32480E+05  2208.0      92.000     0.25188    
 STRESS PERIOD TIME 7.94880E+06 1.32480E+05  2208.0      92.000     0.25188    
         TOTAL TIME 3.94848E+07 6.58080E+05  10968.      457.00      1.2512    
1
1
                            STRESS PERIOD NO.    6, LENGTH =   91.00000    
                            -----------------------------------------------

                              NUMBER OF TIME STEPS =     1

                               MULTIPLIER FOR DELT =     1.500

                            INITIAL TIME STEP SIZE =   91.00000    

 WELL NO.  LAYER   ROW   COL   STRESS RATE         
 --------------------------------------------------
      1      1     23     20     -0.3361E+05
      2      1     23      4     -0.3381E+05
      3      1      5     26     -0.3582E+05
      4      1     21     27     -0.3006E+05

      4 WELLS

                 RECHARGE =  2.000000E-03

 REUSING STREAM SEGMENT DATA FROM LAST STRESS PERIOD
 
 SOLVING FOR HEAD 


     7 CALLS TO PCG ROUTINE FOR TIME STEP   1 IN STRESS PERIOD    6
    26 TOTAL ITERATIONS

 OUTPUT CONTROL FOR STRESS PERIOD    6   TIME STEP    1
    SAVE BUDGET
    SAVE HEAD FOR ALL LAYERS
    PRINT HEAD FOR ALL LAYERS
 UBDSV2 SAVING "STREAMFLOW OUT  " ON UNIT  50 AT TIME STEP  1, STRESS PERIOD   6



 STREAM LISTING     PERIOD      6   STEP        1

 LAYER ROW COL. STREAM  RCH.  FLOW INTO     FLOW TO   FLOW OUT OF   OVRLND.     DIRECT     STREAM       STREAM     STREAM     STREAM   STREAMBED  STREAMBED
                SEG.NO.  NO.  STRM. RCH.    AQUIFER    STRM. RCH.    RUNOFF     PRECIP       ET          HEAD       DEPTH      WIDTH   CONDCTNC.   GRADIENT

   1   13    1     1     1    1.0000E+05 -2.8604E+03   1.0286E+05  0.000E+00  0.000E+00  0.000E+00  4.84073E+01  1.459E-01  2.000E+01  2.000E+04 -1.430E-01
   1   13    2     1     2    1.0286E+05 -4.9718E+03   1.0783E+05  0.000E+00  0.000E+00  0.000E+00  4.79333E+01  1.492E-01  2.000E+01  2.000E+04 -2.486E-01
   1   14    3     1     3    1.0783E+05 -3.6621E+03   1.1149E+05  0.000E+00  0.000E+00  0.000E+00  4.74597E+01  1.529E-01  2.000E+01  2.000E+04 -1.831E-01
   1   15    4     1     4    1.1149E+05 -3.2318E+03   1.1473E+05  0.000E+00  0.000E+00  0.000E+00  4.69853E+01  1.557E-01  2.000E+01  2.000E+04 -1.616E-01
   1   16    5     1     5    1.1473E+05 -2.9494E+03   1.1768E+05  0.000E+00  0.000E+00  0.000E+00  4.65106E+01  1.583E-01  2.000E+01  2.000E+04 -1.475E-01
   1   16    6     1     6    1.1768E+05 -2.7179E+03   1.2039E+05  0.000E+00  0.000E+00  0.000E+00  4.60356E+01  1.606E-01  2.000E+01  2.000E+04 -1.359E-01
   1   16    7     1     7    1.2039E+05 -2.9598E+03   1.2335E+05  0.000E+00  0.000E+00  0.000E+00  4.55606E+01  1.629E-01  2.000E+01  2.000E+04 -1.480E-01
   1   16    8     1     8    1.2335E+05 -3.1303E+03   1.2648E+05  0.000E+00  0.000E+00  0.000E+00  4.50858E+01  1.653E-01  2.000E+01  2.000E+04 -1.565E-01
   1   16    9     1     9    1.2648E+05 -3.2270E+03   1.2971E+05  0.000E+00  0.000E+00  0.000E+00  4.46110E+01  1.678E-01  2.000E+01  2.000E+04 -1.613E-01
   1   16   10     1    10    1.2971E+05 -3.2507E+03   1.3296E+05  0.000E+00  0.000E+00  0.000E+00  4.41363E+01  1.704E-01  2.000E+01  2.000E+04 -1.625E-01
   1   16   11     1    11    1.3296E+05 -3.2185E+03   1.3618E+05  0.000E+00  0.000E+00  0.000E+00  4.36615E+01  1.729E-01  2.000E+01  2.000E+04 -1.609E-01
   1   16   12     1    12    1.3618E+05 -4.0985E+03   1.4028E+05  0.000E+00  0.000E+00  0.000E+00  4.31870E+01  1.757E-01  2.000E+01  2.000E+04 -2.049E-01
   1   15   13     1    13    1.4028E+05 -3.9662E+03   1.4424E+05  0.000E+00  0.000E+00  0.000E+00  4.27128E+01  1.787E-01  2.000E+01  2.000E+04 -1.983E-01
   1   14   14     1    14    1.4424E+05 -4.0857E+03   1.4833E+05  0.000E+00  0.000E+00  0.000E+00  4.22386E+01  1.817E-01  2.000E+01  2.000E+04 -2.043E-01
   1   13   15     1    15    1.4833E+05 -4.4132E+03   1.5274E+05  0.000E+00  0.000E+00  0.000E+00  4.17644E+01  1.849E-01  2.000E+01  2.000E+04 -2.207E-01
   1   12   16     1    16    1.5274E+05 -5.5919E+03   1.5834E+05  0.000E+00  0.000E+00  0.000E+00  4.12908E+01  1.886E-01  2.000E+01  2.000E+04 -2.796E-01
   1   12   17     1    17    1.5834E+05 -3.5794E+03   1.6191E+05  0.000E+00  0.000E+00  0.000E+00  4.08169E+01  1.919E-01  2.000E+01  2.000E+04 -1.790E-01
   1   12   18     1    18    1.6191E+05 -3.3637E+03   1.6528E+05  0.000E+00  0.000E+00  0.000E+00  4.03421E+01  1.944E-01  2.000E+01  2.000E+04 -1.682E-01
   1   12   19     1    19    1.6528E+05 -4.2547E+03   1.6953E+05  0.000E+00  0.000E+00  0.000E+00  3.98675E+01  1.971E-01  2.000E+01  2.000E+04 -2.127E-01
   1   13   20     1    20    1.6953E+05 -2.6957E+03   1.7223E+05  0.000E+00  0.000E+00  0.000E+00  3.93927E+01  1.995E-01  2.000E+01  2.000E+04 -1.348E-01
   1   14   21     1    21    1.7223E+05 -1.7060E+03   1.7393E+05  0.000E+00  0.000E+00  0.000E+00  3.89169E+01  2.010E-01  2.000E+01  2.000E+04 -8.530E-02
   1   14   22     1    22    1.7393E+05  5.2652E+03   1.6867E+05  0.000E+00  0.000E+00  0.000E+00  3.84384E+01  1.998E-01  2.000E+01  2.000E+04  2.633E-01
   1    9   30     2     1    5.0000E+04 -1.4536E+03   5.1454E+04  0.000E+00  0.000E+00  0.000E+00  4.02419E+01  1.169E-01  2.000E+01  2.000E+04 -7.268E-02
   1    9   29     2     2    5.1454E+04 -1.5902E+03   5.3044E+04  0.000E+00  0.000E+00  0.000E+00  3.99940E+01  1.190E-01  2.000E+01  2.000E+04 -7.951E-02
   1    9   28     2     3    5.3044E+04 -1.5626E+03   5.4606E+04  0.000E+00  0.000E+00  0.000E+00  3.97461E+01  1.211E-01  2.000E+01  2.000E+04 -7.813E-02
   1    9   27     2     4    5.4606E+04 -2.6764E+03   5.7283E+04  0.000E+00  0.000E+00  0.000E+00  3.94989E+01  1.239E-01  2.000E+01  2.000E+04 -1.338E-01
   1   10   26     2     5    5.7283E+04 -2.1343E+03   5.9417E+04  0.000E+00  0.000E+00  0.000E+00  3.92521E+01  1.271E-01  2.000E+01  2.000E+04 -1.067E-01
   1   11   25     2     6    5.9417E+04 -1.9605E+03   6.1378E+04  0.000E+00  0.000E+00  0.000E+00  3.90048E+01  1.298E-01  2.000E+01  2.000E+04 -9.803E-02
   1   12   24     2     7    6.1378E+04 -1.5830E+03   6.2961E+04  0.000E+00  0.000E+00  0.000E+00  3.87570E+01  1.320E-01  2.000E+01  2.000E+04 -7.915E-02
   1   13   23     2     8    6.2961E+04 -1.0200E+03   6.3981E+04  0.000E+00  0.000E+00  0.000E+00  3.85087E+01  1.337E-01  2.000E+01  2.000E+04 -5.100E-02
   1   14   22     2     9    6.3981E+04  1.6624E+03   6.2318E+04  0.000E+00  0.000E+00  0.000E+00  3.82583E+01  1.333E-01  2.000E+01  2.000E+04  8.312E-02
   1   14   22     3     1    2.3099E+05 -8.3820E+03   2.3937E+05  0.000E+00  0.000E+00  0.000E+00  3.77561E+01  2.005E-01  2.000E+01  2.000E+04 -4.191E-01
   1   15   23     3     2    2.3937E+05 -1.9049E+03   2.4127E+05  0.000E+00  0.000E+00  0.000E+00  3.68698E+01  2.031E-01  2.000E+01  2.000E+04 -9.524E-02
   1   15   24     3     3    2.4127E+05 -1.3239E+03   2.4260E+05  0.000E+00  0.000E+00  0.000E+00  3.59817E+01  2.039E-01  2.000E+01  2.000E+04 -6.620E-02
   1   15   25     3     4    2.4260E+05 -1.2875E+03   2.4389E+05  0.000E+00  0.000E+00  0.000E+00  3.50935E+01  2.046E-01  2.000E+01  2.000E+04 -6.437E-02
   1   15   26     3     5    2.4389E+05 -1.9070E+03   2.4579E+05  0.000E+00  0.000E+00  0.000E+00  3.42054E+01  2.054E-01  2.000E+01  2.000E+04 -9.535E-02
   1   16   27     3     6    2.4579E+05 -1.8301E+03   2.4762E+05  0.000E+00  0.000E+00  0.000E+00  3.33175E+01  2.064E-01  2.000E+01  2.000E+04 -9.151E-02
   1   17   28     3     7    2.4762E+05 -1.5848E+03   2.4921E+05  0.000E+00  0.000E+00  0.000E+00  3.24294E+01  2.072E-01  2.000E+01  2.000E+04 -7.924E-02
   1   18   29     3     8    2.4921E+05 -1.6615E+03   2.5087E+05  0.000E+00  0.000E+00  0.000E+00  3.15414E+01  2.080E-01  2.000E+01  2.000E+04 -8.307E-02
   1   18   30     3     9    2.5087E+05 -2.7188E+03   2.5359E+05  0.000E+00  0.000E+00  0.000E+00  3.06536E+01  2.091E-01  2.000E+01  2.000E+04 -1.359E-01



1
              HEAD IN LAYER   1 AT END OF TIME STEP   1 IN STRESS PERIOD    6
  ---------------------------------------------------------------------------

          1      2      3      4      5      6      7      8      9     10
         11     12     13     14     15     16     17     18     19     20
         21     22     23     24     25     26     27     28     29     30
 .........................................................................
   1  ****** ****** ****** ****** ****** ****** ****** ****** ****** ******
      ****** ****** ****** ****** ****** ****** ****** ****** ****** ******
      ****** ****** ****** ****** ****** ****** ****** ****** ****** ******
   2  ****** ****** ****** ****** ****** ****** ****** ****** ****** ******
      ****** ****** ****** ****** ****** ****** ****** ****** ****** ******
      ****** ****** ****** ****** ****** ****** ****** ****** ****** ******
   3  ****** ****** ****** ****** ****** ****** ****** ****** ****** ******
      ****** ****** ****** ****** ****** ****** ****** ****** ****** ******
      ****** ****** ****** ****** ****** ****** ****** ****** ****** ******
   4  ****** ****** ****** ****** ****** ****** ****** ****** ****** ******
      ****** ****** ****** ****** ****** ****** ****** ****** ****** ******
      ****** ****** ****** ****** ****** ****** ****** ****** ****** ******
   5  ****** ****** ****** ****** ****** ****** ****** ****** ****** ******
      ****** ****** ****** ****** ****** ****** ****** ****** ****** ******
      ****** ****** ****** ****** ****** ****** ****** ****** ****** ******
   6  ****** ****** ****** ****** ****** ****** ****** ****** ****** ******
      ****** ****** ****** ****** ****** ****** ****** ****** ****** ******
      ****** ****** ****** ****** ****** ****** ****** ****** ****** ******
   7  ****** ****** ****** ****** ****** ****** ****** ****** ****** ******
      ****** ****** ****** ****** ****** ****** ****** ****** ****** ******
      ****** ****** ****** ****** ****** ****** ****** ****** ****** ******
   8  ****** ****** ****** ****** ****** ****** ****** ****** ****** ******
      ****** ****** ****** ****** ****** ****** ****** ****** ****** ******
      ****** ****** ****** ****** ****** ****** ****** ****** ****** ******
   9  ****** ****** ****** ****** ****** ****** ****** ****** ****** ******
      ****** ****** ****** ****** ****** ****** ****** ****** ****** ******
      ****** ****** ****** ****** ****** ****** ****** ****** ****** ******
  10  ****** ****** ****** ****** ****** ****** ****** ****** ****** ******
      ****** ****** ****** ****** ****** ****** ****** ****** ****** ******
      ****** ****** ****** ****** ****** ****** ****** ****** ****** ******
  11  ****** ****** ****** ****** ****** ****** ****** ****** ****** ******
      ****** ****** ****** ****** ****** ****** ****** ****** ****** ******
      ****** ****** ****** ****** ****** ****** ****** ****** ****** ******
  12  ****** ****** ****** ****** ****** ****** ****** ****** ****** ******
      ****** ****** ****** ****** ****** ****** ****** ****** ****** ******
      ****** ****** ****** ****** ****** ****** ****** ****** ****** ******
  13  ****** ****** ****** ****** ****** ****** ****** ****** ****** ******
      ****** ****** ****** ****** ****** ****** ****** ****** ****** ******
      ****** ****** ****** ****** ****** ****** ****** ****** ****** ******
  14  ****** ****** ****** ****** ****** ****** ****** ****** ****** ******
      ****** ****** ****** ****** ****** ****** ****** ****** ****** ******
      ****** ****** ****** ****** ****** ****** ****** ****** ****** ******
  15  ****** ****** ****** ****** ****** ****** ****** ****** ****** ******
      ****** ****** ****** ****** ****** ****** ****** ****** ****** ******
      ****** ****** ****** ****** ****** ****** ****** ****** ****** ******
  16  ****** ****** ****** ****** ****** ****** ****** ****** ****** ******
      ****** ****** ****** ****** ****** ****** ****** ****** ****** ******
      ****** ****** ****** ****** ****** ****** ****** ****** ****** ******
  17  ****** ****** ****** ****** ****** ****** ****** ****** ****** ******
      ****** ****** ****** ****** ****** ****** ****** ****** ****** ******
      ****** ****** ****** ****** ****** ****** ****** ****** ****** ******
  18  ****** ****** ****** ****** ****** ****** ****** ****** ****** ******
      ****** ****** ****** ****** ****** ****** ****** ****** ****** ******
      ****** ****** ****** ****** ****** ****** ****** ****** ****** ******
  19  ****** ****** ****** ****** ****** ****** ****** ****** ****** ******
      ****** ****** ****** ****** ****** ****** ****** ****** ****** ******
      ****** ****** ****** ****** ****** ****** ****** ****** ****** ******
  20  ****** ****** ****** ****** ****** ****** ****** ****** ****** ******
      ****** ****** ****** ****** ****** ****** ****** ****** ****** ******
      ****** ****** ****** ****** ****** ****** ****** ****** ****** ******
  21  ****** ****** ****** ****** ****** ****** ****** ****** ****** ******
      ****** ****** ****** ****** ****** ****** ****** ****** ****** ******
      ****** ****** ****** ****** ****** ****** ****** ****** ****** ******
  22  ****** ****** ****** ****** ****** ****** ****** ****** ****** ******
      ****** ****** ****** ****** ****** ****** ****** ****** ****** ******
      ****** ****** ****** ****** ****** ****** ****** ****** ****** ******
  23  ****** ****** ****** ****** ****** ****** ****** ****** ****** ******
      ****** ****** ****** ****** ****** ****** ****** ****** ****** ******
      ****** ****** ****** ****** ****** ****** ****** ****** ****** ******
  24  ****** ****** ****** ****** ****** ****** ****** ****** ****** ******
      ****** ****** ****** ****** ****** ****** ****** ****** ****** ******
      ****** ****** ****** ****** ****** ****** ****** ****** ****** ******
  25  ****** ****** ****** ****** ****** ****** ****** ****** ****** ******
      ****** ****** ****** ****** ****** ****** ****** ****** ****** ******
      ****** ****** ****** ****** ****** ****** ****** ****** ****** ******

 HEAD WILL BE SAVED ON UNIT   51 AT END OF TIME STEP    1, STRESS PERIOD    6
1
  VOLUMETRIC BUDGET FOR ENTIRE MODEL AT END OF TIME STEP    1, STRESS PERIOD   6
  ------------------------------------------------------------------------------

     CUMULATIVE VOLUMES      L**3       RATES FOR THIS TIME STEP      L**3/T
     ------------------                 ------------------------

           IN:                                      IN:
           ---                                      ---
             STORAGE =    25107568.9479               STORAGE =           0.0000
       CONSTANT HEAD =   101347910.8983         CONSTANT HEAD =      191753.1679
               WELLS =           0.0000                 WELLS =           0.0000
            RECHARGE =    15097200.0000              RECHARGE =       55200.0000
      STREAM LEAKAGE =     3654407.3801        STREAM LEAKAGE =        6927.6612

            TOTAL IN =   145207087.2263              TOTAL IN =      253880.8291

          OUT:                                     OUT:
          ----                                     ----
             STORAGE =      925374.7179               STORAGE =       10054.5692
       CONSTANT HEAD =           0.0000         CONSTANT HEAD =           0.0000
               WELLS =    73054181.8536                 WELLS =      133310.5508
            RECHARGE =           0.0000              RECHARGE =           0.0000
      STREAM LEAKAGE =    71227531.3106        STREAM LEAKAGE =      110515.7073

           TOTAL OUT =   145207087.8822             TOTAL OUT =      253880.8274

            IN - OUT =          -0.6559              IN - OUT =       1.7098E-03

 PERCENT DISCREPANCY =          -0.00     PERCENT DISCREPANCY =           0.00






         TIME SUMMARY AT END OF TIME STEP    1 IN STRESS PERIOD    6
                    SECONDS     MINUTES      HOURS       DAYS        YEARS
                    -----------------------------------------------------------
   TIME STEP LENGTH 7.86240E+06 1.31040E+05  2184.0      91.000     0.24914    
 STRESS PERIOD TIME 7.86240E+06 1.31040E+05  2184.0      91.000     0.24914    
         TOTAL TIME 4.73472E+07 7.89120E+05  13152.      548.00      1.5003    
1
1
                            STRESS PERIOD NO.    7, LENGTH =   91.00000    
                            -----------------------------------------------

                              NUMBER OF TIME STEPS =     1

                               MULTIPLIER FOR DELT =     1.500

                            INITIAL TIME STEP SIZE =   91.00000    

 WELL NO.  LAYER   ROW   COL   STRESS RATE         
 --------------------------------------------------
      1      1     23     20     -0.3361E+05
      2      1     23      4     -0.3381E+05
      3      1      5     26     -0.3582E+05
      4      1     21     27     -0.3006E+05

      4 WELLS

                 RECHARGE =   0.00000    

 REUSING STREAM SEGMENT DATA FROM LAST STRESS PERIOD
 
 SOLVING FOR HEAD 


     7 CALLS TO PCG ROUTINE FOR TIME STEP   1 IN STRESS PERIOD    7
    26 TOTAL ITERATIONS

 OUTPUT CONTROL FOR STRESS PERIOD    7   TIME STEP    1
    SAVE BUDGET
    SAVE HEAD FOR ALL LAYERS
    PRINT HEAD FOR ALL LAYERS
 UBDSV2 SAVING "STREAMFLOW OUT  " ON UNIT  50 AT TIME STEP  1, STRESS PERIOD   7



 STREAM LISTING     PERIOD      7   STEP        1

 LAYER ROW COL. STREAM  RCH.  FLOW INTO     FLOW TO   FLOW OUT OF   OVRLND.     DIRECT     STREAM       STREAM     STREAM     STREAM   STREAMBED  STREAMBED
                SEG.NO.  NO.  STRM. RCH.    AQUIFER    STRM. RCH.    RUNOFF     PRECIP       ET          HEAD       DEPTH      WIDTH   CONDCTNC.   GRADIENT

   1   13    1     1     1    1.0000E+05 -2.3658E+03   1.0237E+05  0.000E+00  0.000E+00  0.000E+00  4.84070E+01  1.457E-01  2.000E+01  2.000E+04 -1.183E-01
   1   13    2     1     2    1.0237E+05 -4.3226E+03   1.0669E+05  0.000E+00  0.000E+00  0.000E+00  4.79326E+01  1.485E-01  2.000E+01  2.000E+04 -2.161E-01
   1   14    3     1     3    1.0669E+05 -2.9953E+03   1.0968E+05  0.000E+00  0.000E+00  0.000E+00  4.74585E+01  1.516E-01  2.000E+01  2.000E+04 -1.498E-01
   1   15    4     1     4    1.0968E+05 -2.5703E+03   1.1225E+05  0.000E+00  0.000E+00  0.000E+00  4.69835E+01  1.540E-01  2.000E+01  2.000E+04 -1.285E-01
   1   16    5     1     5    1.1225E+05 -2.3407E+03   1.1459E+05  0.000E+00  0.000E+00  0.000E+00  4.65083E+01  1.560E-01  2.000E+01  2.000E+04 -1.170E-01
   1   16    6     1     6    1.1459E+05 -2.2355E+03   1.1683E+05  0.000E+00  0.000E+00  0.000E+00  4.60329E+01  1.579E-01  2.000E+01  2.000E+04 -1.118E-01
   1   16    7     1     7    1.1683E+05 -2.4700E+03   1.1930E+05  0.000E+00  0.000E+00  0.000E+00  4.55575E+01  1.598E-01  2.000E+01  2.000E+04 -1.235E-01
   1   16    8     1     8    1.1930E+05 -2.6363E+03   1.2194E+05  0.000E+00  0.000E+00  0.000E+00  4.50823E+01  1.619E-01  2.000E+01  2.000E+04 -1.318E-01
   1   16    9     1     9    1.2194E+05 -2.7331E+03   1.2467E+05  0.000E+00  0.000E+00  0.000E+00  4.46072E+01  1.640E-01  2.000E+01  2.000E+04 -1.367E-01
   1   16   10     1    10    1.2467E+05 -2.7612E+03   1.2743E+05  0.000E+00  0.000E+00  0.000E+00  4.41321E+01  1.662E-01  2.000E+01  2.000E+04 -1.381E-01
   1   16   11     1    11    1.2743E+05 -2.7356E+03   1.3017E+05  0.000E+00  0.000E+00  0.000E+00  4.36570E+01  1.684E-01  2.000E+01  2.000E+04 -1.368E-01
   1   16   12     1    12    1.3017E+05 -3.4811E+03   1.3365E+05  0.000E+00  0.000E+00  0.000E+00  4.31822E+01  1.708E-01  2.000E+01  2.000E+04 -1.741E-01
   1   15   13     1    13    1.3365E+05 -3.2924E+03   1.3694E+05  0.000E+00  0.000E+00  0.000E+00  4.27075E+01  1.734E-01  2.000E+01  2.000E+04 -1.646E-01
   1   14   14     1    14    1.3694E+05 -3.3996E+03   1.4034E+05  0.000E+00  0.000E+00  0.000E+00  4.22328E+01  1.760E-01  2.000E+01  2.000E+04 -1.700E-01
   1   13   15     1    15    1.4034E+05 -3.7387E+03   1.4408E+05  0.000E+00  0.000E+00  0.000E+00  4.17582E+01  1.787E-01  2.000E+01  2.000E+04 -1.869E-01
   1   12   16     1    16    1.4408E+05 -4.9514E+03   1.4903E+05  0.000E+00  0.000E+00  0.000E+00  4.12842E+01  1.819E-01  2.000E+01  2.000E+04 -2.476E-01
   1   12   17     1    17    1.4903E+05 -3.0985E+03   1.5213E+05  0.000E+00  0.000E+00  0.000E+00  4.08099E+01  1.849E-01  2.000E+01  2.000E+04 -1.549E-01
   1   12   18     1    18    1.5213E+05 -2.8902E+03   1.5502E+05  0.000E+00  0.000E+00  0.000E+00  4.03348E+01  1.871E-01  2.000E+01  2.000E+04 -1.445E-01
   1   12   19     1    19    1.5502E+05 -3.6778E+03   1.5870E+05  0.000E+00  0.000E+00  0.000E+00  3.98600E+01  1.895E-01  2.000E+01  2.000E+04 -1.839E-01
   1   13   20     1    20    1.5870E+05 -2.1271E+03   1.6082E+05  0.000E+00  0.000E+00  0.000E+00  3.93848E+01  1.916E-01  2.000E+01  2.000E+04 -1.064E-01
   1   14   21     1    21    1.6082E+05 -1.1856E+03   1.6201E+05  0.000E+00  0.000E+00  0.000E+00  3.89087E+01  1.928E-01  2.000E+01  2.000E+04 -5.928E-02
   1   14   22     1    22    1.6201E+05  5.3697E+03   1.5664E+05  0.000E+00  0.000E+00  0.000E+00  3.84299E+01  1.913E-01  2.000E+01  2.000E+04  2.685E-01
   1    9   30     2     1    5.0000E+04 -1.0105E+03   5.1010E+04  0.000E+00  0.000E+00  0.000E+00  4.02416E+01  1.166E-01  2.000E+01  2.000E+04 -5.052E-02
   1    9   29     2     2    5.1010E+04 -1.1506E+03   5.2161E+04  0.000E+00  0.000E+00  0.000E+00  3.99931E+01  1.181E-01  2.000E+01  2.000E+04 -5.753E-02
   1    9   28     2     3    5.2161E+04 -1.1263E+03   5.3287E+04  0.000E+00  0.000E+00  0.000E+00  3.97446E+01  1.196E-01  2.000E+01  2.000E+04 -5.631E-02
   1    9   27     2     4    5.3287E+04 -2.1004E+03   5.5388E+04  0.000E+00  0.000E+00  0.000E+00  3.94968E+01  1.218E-01  2.000E+01  2.000E+04 -1.050E-01
   1   10   26     2     5    5.5388E+04 -1.5328E+03   5.6921E+04  0.000E+00  0.000E+00  0.000E+00  3.92492E+01  1.242E-01  2.000E+01  2.000E+04 -7.664E-02
   1   11   25     2     6    5.6921E+04 -1.3825E+03   5.8303E+04  0.000E+00  0.000E+00  0.000E+00  3.90011E+01  1.261E-01  2.000E+01  2.000E+04 -6.912E-02
   1   12   24     2     7    5.8303E+04 -1.0686E+03   5.9372E+04  0.000E+00  0.000E+00  0.000E+00  3.87528E+01  1.278E-01  2.000E+01  2.000E+04 -5.343E-02
   1   13   23     2     8    5.9372E+04 -6.1489E+02   5.9987E+04  0.000E+00  0.000E+00  0.000E+00  3.85038E+01  1.288E-01  2.000E+01  2.000E+04 -3.074E-02
   1   14   22     2     9    5.9987E+04  1.8322E+03   5.8154E+04  0.000E+00  0.000E+00  0.000E+00  3.82531E+01  1.281E-01  2.000E+01  2.000E+04  9.161E-02
   1   14   22     3     1    2.1479E+05 -8.2761E+03   2.2307E+05  0.000E+00  0.000E+00  0.000E+00  3.77476E+01  1.921E-01  2.000E+01  2.000E+04 -4.138E-01
   1   15   23     3     2    2.2307E+05 -1.4189E+03   2.2449E+05  0.000E+00  0.000E+00  0.000E+00  3.68613E+01  1.946E-01  2.000E+01  2.000E+04 -7.094E-02
   1   15   24     3     3    2.2449E+05 -9.6656E+02   2.2545E+05  0.000E+00  0.000E+00  0.000E+00  3.59730E+01  1.952E-01  2.000E+01  2.000E+04 -4.833E-02
   1   15   25     3     4    2.2545E+05 -9.2701E+02   2.2638E+05  0.000E+00  0.000E+00  0.000E+00  3.50846E+01  1.957E-01  2.000E+01  2.000E+04 -4.635E-02
   1   15   26     3     5    2.2638E+05 -1.4415E+03   2.2782E+05  0.000E+00  0.000E+00  0.000E+00  3.41964E+01  1.964E-01  2.000E+01  2.000E+04 -7.207E-02
   1   16   27     3     6    2.2782E+05 -1.2515E+03   2.2907E+05  0.000E+00  0.000E+00  0.000E+00  3.33082E+01  1.970E-01  2.000E+01  2.000E+04 -6.258E-02
   1   17   28     3     7    2.2907E+05 -9.9554E+02   2.3007E+05  0.000E+00  0.000E+00  0.000E+00  3.24199E+01  1.976E-01  2.000E+01  2.000E+04 -4.978E-02
   1   18   29     3     8    2.3007E+05 -1.1117E+03   2.3118E+05  0.000E+00  0.000E+00  0.000E+00  3.15315E+01  1.982E-01  2.000E+01  2.000E+04 -5.558E-02
   1   18   30     3     9    2.3118E+05 -2.3003E+03   2.3348E+05  0.000E+00  0.000E+00  0.000E+00  3.06435E+01  1.991E-01  2.000E+01  2.000E+04 -1.150E-01



1
              HEAD IN LAYER   1 AT END OF TIME STEP   1 IN STRESS PERIOD    7
  ---------------------------------------------------------------------------

          1      2      3      4      5      6      7      8      9     10
         11     12     13     14     15     16     17     18     19     20
         21     22     23     24     25     26     27     28     29     30
 .........................................................................
   1  ****** ****** ****** ****** ****** ****** ****** ****** ****** ******
      ****** ****** ****** ****** ****** ****** ****** ****** ****** ******
      ****** ****** ****** ****** ****** ****** ****** ****** ****** ******
   2  ****** ****** ****** ****** ****** ****** ****** ****** ****** ******
      ****** ****** ****** ****** ****** ****** ****** ****** ****** ******
      ****** ****** ****** ****** ****** ****** ****** ****** ****** ******
   3  ****** ****** ****** ****** ****** ****** ****** ****** ****** ******
      ****** ****** ****** ****** ****** ****** ****** ****** ****** ******
      ****** ****** ****** ****** ****** ****** ****** ****** ****** ******
   4  ****** ****** ****** ****** ****** ****** ****** ****** ****** ******
      ****** ****** ****** ****** ****** ****** ****** ****** ****** ******
      ****** ****** ****** ****** ****** ****** ****** ****** ****** ******
   5  ****** ****** ****** ****** ****** ****** ****** ****** ****** ******
      ****** ****** ****** ****** ****** ****** ****** ****** ****** ******
      ****** ****** ****** ****** ****** ****** ****** ****** ****** ******
   6  ****** ****** ****** ****** ****** ****** ****** ****** ****** ******
      ****** ****** ****** ****** ****** ****** ****** ****** ****** ******
      ****** ****** ****** ****** ****** ****** ****** ****** ****** ******
   7  ****** ****** ****** ****** ****** ****** ****** ****** ****** ******
      ****** ****** ****** ****** ****** ****** ****** ****** ****** ******
      ****** ****** ****** ****** ****** ****** ****** ****** ****** ******
   8  ****** ****** ****** ****** ****** ****** ****** ****** ****** ******
      ****** ****** ****** ****** ****** ****** ****** ****** ****** ******
      ****** ****** ****** ****** ****** ****** ****** ****** ****** ******
   9  ****** ****** ****** ****** ****** ****** ****** ****** ****** ******
      ****** ****** ****** ****** ****** ****** ****** ****** ****** ******
      ****** ****** ****** ****** ****** ****** ****** ****** ****** ******
  10  ****** ****** ****** ****** ****** ****** ****** ****** ****** ******
      ****** ****** ****** ****** ****** ****** ****** ****** ****** ******
      ****** ****** ****** ****** ****** ****** ****** ****** ****** ******
  11  ****** ****** ****** ****** ****** ****** ****** ****** ****** ******
      ****** ****** ****** ****** ****** ****** ****** ****** ****** ******
      ****** ****** ****** ****** ****** ****** ****** ****** ****** ******
  12  ****** ****** ****** ****** ****** ****** ****** ****** ****** ******
      ****** ****** ****** ****** ****** ****** ****** ****** ****** ******
      ****** ****** ****** ****** ****** ****** ****** ****** ****** ******
  13  ****** ****** ****** ****** ****** ****** ****** ****** ****** ******
      ****** ****** ****** ****** ****** ****** ****** ****** ****** ******
      ****** ****** ****** ****** ****** ****** ****** ****** ****** ******
  14  ****** ****** ****** ****** ****** ****** ****** ****** ****** ******
      ****** ****** ****** ****** ****** ****** ****** ****** ****** ******
      ****** ****** ****** ****** ****** ****** ****** ****** ****** ******
  15  ****** ****** ****** ****** ****** ****** ****** ****** ****** ******
      ****** ****** ****** ****** ****** ****** ****** ****** ****** ******
      ****** ****** ****** ****** ****** ****** ****** ****** ****** ******
  16  ****** ****** ****** ****** ****** ****** ****** ****** ****** ******
      ****** ****** ****** ****** ****** ****** ****** ****** ****** ******
      ****** ****** ****** ****** ****** ****** ****** ****** ****** ******
  17  ****** ****** ****** ****** ****** ****** ****** ****** ****** ******
      ****** ****** ****** ****** ****** ****** ****** ****** ****** ******
      ****** ****** ****** ****** ****** ****** ****** ****** ****** ******
  18  ****** ****** ****** ****** ****** ****** ****** ****** ****** ******
      ****** ****** ****** ****** ****** ****** ****** ****** ****** ******
      ****** ****** ****** ****** ****** ****** ****** ****** ****** ******
  19  ****** ****** ****** ****** ****** ****** ****** ****** ****** ******
      ****** ****** ****** ****** ****** ****** ****** ****** ****** ******
      ****** ****** ****** ****** ****** ****** ****** ****** ****** ******
  20  ****** ****** ****** ****** ****** ****** ****** ****** ****** ******
      ****** ****** ****** ****** ****** ****** ****** ****** ****** ******
      ****** ****** ****** ****** ****** ****** ****** ****** ****** ******
  21  ****** ****** ****** ****** ****** ****** ****** ****** ****** ******
      ****** ****** ****** ****** ****** ****** ****** ****** ****** ******
      ****** ****** ****** ****** ****** ****** ****** ****** ****** ******
  22  ****** ****** ****** ****** ****** ****** ****** ****** ****** ******
      ****** ****** ****** ****** ****** ****** ****** ****** ****** ******
      ****** ****** ****** ****** ****** ****** ****** ****** ****** ******
  23  ****** ****** ****** ****** ****** ****** ****** ****** ****** ******
      ****** ****** ****** ****** ****** ****** ****** ****** ****** ******
      ****** ****** ****** ****** ****** ****** ****** ****** ****** ******
  24  ****** ****** ****** ****** ****** ****** ****** ****** ****** ******
      ****** ****** ****** ****** ****** ****** ****** ****** ****** ******
      ****** ****** ****** ****** ****** ****** ****** ****** ****** ******
  25  ****** ****** ****** ****** ****** ****** ****** ****** ****** ******
      ****** ****** ****** ****** ****** ****** ****** ****** ****** ******
      ****** ****** ****** ****** ****** ****** ****** ****** ****** ******

 HEAD WILL BE SAVED ON UNIT   51 AT END OF TIME STEP    1, STRESS PERIOD    7
1
  VOLUMETRIC BUDGET FOR ENTIRE MODEL AT END OF TIME STEP    1, STRESS PERIOD   7
  ------------------------------------------------------------------------------

     CUMULATIVE VOLUMES      L**3       RATES FOR THIS TIME STEP      L**3/T
     ------------------                 ------------------------

           IN:                                      IN:
           ---                                      ---
             STORAGE =    26210492.3165               STORAGE =       12120.0370
       CONSTANT HEAD =   119973151.1033         CONSTANT HEAD =      204672.9693
               WELLS =           0.0000                 WELLS =           0.0000
            RECHARGE =    15097200.0000              RECHARGE =           0.0000
      STREAM LEAKAGE =     4309782.2261        STREAM LEAKAGE =        7201.9214

            TOTAL IN =   165590625.6459              TOTAL IN =      223994.9277

          OUT:                                     OUT:
          ----                                     ----
             STORAGE =      925374.7179               STORAGE =           0.0000
       CONSTANT HEAD =           0.0000         CONSTANT HEAD =           0.0000
               WELLS =    85185441.9789                 WELLS =      133310.5508
            RECHARGE =           0.0000              RECHARGE =           0.0000
      STREAM LEAKAGE =    79479809.8093        STREAM LEAKAGE =       90684.3791

           TOTAL OUT =   165590626.5061             TOTAL OUT =      223994.9299

            IN - OUT =          -0.8603              IN - OUT =      -2.2462E-03

 PERCENT DISCREPANCY =          -0.00     PERCENT DISCREPANCY =          -0.00






         TIME SUMMARY AT END OF TIME STEP    1 IN STRESS PERIOD    7
                    SECONDS     MINUTES      HOURS       DAYS        YEARS
                    -----------------------------------------------------------
   TIME STEP LENGTH 7.86240E+06 1.31040E+05  2184.0      91.000     0.24914    
 STRESS PERIOD TIME 7.86240E+06 1.31040E+05  2184.0      91.000     0.24914    
         TOTAL TIME 5.52096E+07 9.20160E+05  15336.      639.00      1.7495    
1
1
                            STRESS PERIOD NO.    8, LENGTH =   91.00000    
                            -----------------------------------------------

                              NUMBER OF TIME STEPS =     1

                               MULTIPLIER FOR DELT =     1.500

                            INITIAL TIME STEP SIZE =   91.00000    

 WELL NO.  LAYER   ROW   COL   STRESS RATE         
 --------------------------------------------------
      1      1     23     20     -0.3361E+05
      2      1     23      4     -0.3381E+05
      3      1      5     26     -0.3582E+05
      4      1     21     27     -0.3006E+05

      4 WELLS

                 RECHARGE =  1.000000E-03

 REUSING STREAM SEGMENT DATA FROM LAST STRESS PERIOD
 
 SOLVING FOR HEAD 


     6 CALLS TO PCG ROUTINE FOR TIME STEP   1 IN STRESS PERIOD    8
    23 TOTAL ITERATIONS

 OUTPUT CONTROL FOR STRESS PERIOD    8   TIME STEP    1
    SAVE BUDGET
    SAVE HEAD FOR ALL LAYERS
    PRINT HEAD FOR ALL LAYERS
 UBDSV2 SAVING "STREAMFLOW OUT  " ON UNIT  50 AT TIME STEP  1, STRESS PERIOD   8



 STREAM LISTING     PERIOD      8   STEP        1

 LAYER ROW COL. STREAM  RCH.  FLOW INTO     FLOW TO   FLOW OUT OF   OVRLND.     DIRECT     STREAM       STREAM     STREAM     STREAM   STREAMBED  STREAMBED
                SEG.NO.  NO.  STRM. RCH.    AQUIFER    STRM. RCH.    RUNOFF     PRECIP       ET          HEAD       DEPTH      WIDTH   CONDCTNC.   GRADIENT

   1   13    1     1     1    1.0000E+05 -2.5350E+03   1.0253E+05  0.000E+00  0.000E+00  0.000E+00  4.84071E+01  1.457E-01  2.000E+01  2.000E+04 -1.267E-01
   1   13    2     1     2    1.0253E+05 -4.5338E+03   1.0707E+05  0.000E+00  0.000E+00  0.000E+00  4.79329E+01  1.488E-01  2.000E+01  2.000E+04 -2.267E-01
   1   14    3     1     3    1.0707E+05 -3.2295E+03   1.1030E+05  0.000E+00  0.000E+00  0.000E+00  4.74589E+01  1.521E-01  2.000E+01  2.000E+04 -1.615E-01
   1   15    4     1     4    1.1030E+05 -2.8075E+03   1.1311E+05  0.000E+00  0.000E+00  0.000E+00  4.69841E+01  1.546E-01  2.000E+01  2.000E+04 -1.404E-01
   1   16    5     1     5    1.1311E+05 -2.5608E+03   1.1567E+05  0.000E+00  0.000E+00  0.000E+00  4.65091E+01  1.568E-01  2.000E+01  2.000E+04 -1.280E-01
   1   16    6     1     6    1.1567E+05 -2.4101E+03   1.1808E+05  0.000E+00  0.000E+00  0.000E+00  4.60338E+01  1.588E-01  2.000E+01  2.000E+04 -1.205E-01
   1   16    7     1     7    1.1808E+05 -2.6462E+03   1.2072E+05  0.000E+00  0.000E+00  0.000E+00  4.55586E+01  1.609E-01  2.000E+01  2.000E+04 -1.323E-01
   1   16    8     1     8    1.2072E+05 -2.8135E+03   1.2354E+05  0.000E+00  0.000E+00  0.000E+00  4.50835E+01  1.631E-01  2.000E+01  2.000E+04 -1.407E-01
   1   16    9     1     9    1.2354E+05 -2.9103E+03   1.2645E+05  0.000E+00  0.000E+00  0.000E+00  4.46086E+01  1.654E-01  2.000E+01  2.000E+04 -1.455E-01
   1   16   10     1    10    1.2645E+05 -2.9373E+03   1.2938E+05  0.000E+00  0.000E+00  0.000E+00  4.41336E+01  1.677E-01  2.000E+01  2.000E+04 -1.469E-01
   1   16   11     1    11    1.2938E+05 -2.9100E+03   1.3229E+05  0.000E+00  0.000E+00  0.000E+00  4.36586E+01  1.700E-01  2.000E+01  2.000E+04 -1.455E-01
   1   16   12     1    12    1.3229E+05 -3.7012E+03   1.3600E+05  0.000E+00  0.000E+00  0.000E+00  4.31839E+01  1.725E-01  2.000E+01  2.000E+04 -1.851E-01
   1   15   13     1    13    1.3600E+05 -3.5319E+03   1.3953E+05  0.000E+00  0.000E+00  0.000E+00  4.27094E+01  1.753E-01  2.000E+01  2.000E+04 -1.766E-01
   1   14   14     1    14    1.3953E+05 -3.6413E+03   1.4317E+05  0.000E+00  0.000E+00  0.000E+00  4.22348E+01  1.780E-01  2.000E+01  2.000E+04 -1.821E-01
   1   13   15     1    15    1.4317E+05 -3.9747E+03   1.4714E+05  0.000E+00  0.000E+00  0.000E+00  4.17604E+01  1.809E-01  2.000E+01  2.000E+04 -1.987E-01
   1   12   16     1    16    1.4714E+05 -5.1657E+03   1.5231E+05  0.000E+00  0.000E+00  0.000E+00  4.12866E+01  1.843E-01  2.000E+01  2.000E+04 -2.583E-01
   1   12   17     1    17    1.5231E+05 -3.2693E+03   1.5558E+05  0.000E+00  0.000E+00  0.000E+00  4.08124E+01  1.874E-01  2.000E+01  2.000E+04 -1.635E-01
   1   12   18     1    18    1.5558E+05 -3.0609E+03   1.5864E+05  0.000E+00  0.000E+00  0.000E+00  4.03374E+01  1.897E-01  2.000E+01  2.000E+04 -1.530E-01
   1   12   19     1    19    1.5864E+05 -3.8863E+03   1.6253E+05  0.000E+00  0.000E+00  0.000E+00  3.98626E+01  1.922E-01  2.000E+01  2.000E+04 -1.943E-01
   1   13   20     1    20    1.6253E+05 -2.3441E+03   1.6487E+05  0.000E+00  0.000E+00  0.000E+00  3.93876E+01  1.944E-01  2.000E+01  2.000E+04 -1.172E-01
   1   14   21     1    21    1.6487E+05 -1.3808E+03   1.6625E+05  0.000E+00  0.000E+00  0.000E+00  3.89117E+01  1.957E-01  2.000E+01  2.000E+04 -6.904E-02
   1   14   22     1    22    1.6625E+05  5.3245E+03   1.6093E+05  0.000E+00  0.000E+00  0.000E+00  3.84330E+01  1.943E-01  2.000E+01  2.000E+04  2.662E-01
   1    9   30     2     1    5.0000E+04 -1.1894E+03   5.1189E+04  0.000E+00  0.000E+00  0.000E+00  4.02417E+01  1.167E-01  2.000E+01  2.000E+04 -5.947E-02
   1    9   29     2     2    5.1189E+04 -1.3277E+03   5.2517E+04  0.000E+00  0.000E+00  0.000E+00  3.99934E+01  1.184E-01  2.000E+01  2.000E+04 -6.639E-02
   1    9   28     2     3    5.2517E+04 -1.3007E+03   5.3818E+04  0.000E+00  0.000E+00  0.000E+00  3.97452E+01  1.202E-01  2.000E+01  2.000E+04 -6.504E-02
   1    9   27     2     4    5.3818E+04 -2.3194E+03   5.6137E+04  0.000E+00  0.000E+00  0.000E+00  3.94977E+01  1.227E-01  2.000E+01  2.000E+04 -1.160E-01
   1   10   26     2     5    5.6137E+04 -1.7689E+03   5.7906E+04  0.000E+00  0.000E+00  0.000E+00  3.92504E+01  1.254E-01  2.000E+01  2.000E+04 -8.844E-02
   1   11   25     2     6    5.7906E+04 -1.6121E+03   5.9518E+04  0.000E+00  0.000E+00  0.000E+00  3.90026E+01  1.276E-01  2.000E+01  2.000E+04 -8.061E-02
   1   12   24     2     7    5.9518E+04 -1.2771E+03   6.0795E+04  0.000E+00  0.000E+00  0.000E+00  3.87545E+01  1.295E-01  2.000E+01  2.000E+04 -6.386E-02
   1   13   23     2     8    6.0795E+04 -7.8431E+02   6.1580E+04  0.000E+00  0.000E+00  0.000E+00  3.85058E+01  1.308E-01  2.000E+01  2.000E+04 -3.922E-02
   1   14   22     2     9    6.1580E+04  1.7680E+03   5.9812E+04  0.000E+00  0.000E+00  0.000E+00  3.82552E+01  1.302E-01  2.000E+01  2.000E+04  8.840E-02
   1   14   22     3     1    2.2074E+05 -8.3199E+03   2.2906E+05  0.000E+00  0.000E+00  0.000E+00  3.77508E+01  1.952E-01  2.000E+01  2.000E+04 -4.160E-01
   1   15   23     3     2    2.2906E+05 -1.6022E+03   2.3066E+05  0.000E+00  0.000E+00  0.000E+00  3.68644E+01  1.978E-01  2.000E+01  2.000E+04 -8.011E-02
   1   15   24     3     3    2.3066E+05 -1.1103E+03   2.3177E+05  0.000E+00  0.000E+00  0.000E+00  3.59763E+01  1.985E-01  2.000E+01  2.000E+04 -5.551E-02
   1   15   25     3     4    2.3177E+05 -1.0757E+03   2.3285E+05  0.000E+00  0.000E+00  0.000E+00  3.50879E+01  1.990E-01  2.000E+01  2.000E+04 -5.378E-02
   1   15   26     3     5    2.3285E+05 -1.6361E+03   2.3448E+05  0.000E+00  0.000E+00  0.000E+00  3.41997E+01  1.997E-01  2.000E+01  2.000E+04 -8.180E-02
   1   16   27     3     6    2.3448E+05 -1.4853E+03   2.3597E+05  0.000E+00  0.000E+00  0.000E+00  3.33116E+01  2.005E-01  2.000E+01  2.000E+04 -7.426E-02
   1   17   28     3     7    2.3597E+05 -1.2317E+03   2.3720E+05  0.000E+00  0.000E+00  0.000E+00  3.24235E+01  2.012E-01  2.000E+01  2.000E+04 -6.159E-02
   1   18   29     3     8    2.3720E+05 -1.3274E+03   2.3853E+05  0.000E+00  0.000E+00  0.000E+00  3.15352E+01  2.019E-01  2.000E+01  2.000E+04 -6.637E-02
   1   18   30     3     9    2.3853E+05 -2.4706E+03   2.4100E+05  0.000E+00  0.000E+00  0.000E+00  3.06473E+01  2.028E-01  2.000E+01  2.000E+04 -1.235E-01



1
              HEAD IN LAYER   1 AT END OF TIME STEP   1 IN STRESS PERIOD    8
  ---------------------------------------------------------------------------

          1      2      3      4      5      6      7      8      9     10
         11     12     13     14     15     16     17     18     19     20
         21     22     23     24     25     26     27     28     29     30
 .........................................................................
   1  ****** ****** ****** ****** ****** ****** ****** ****** ****** ******
      ****** ****** ****** ****** ****** ****** ****** ****** ****** ******
      ****** ****** ****** ****** ****** ****** ****** ****** ****** ******
   2  ****** ****** ****** ****** ****** ****** ****** ****** ****** ******
      ****** ****** ****** ****** ****** ****** ****** ****** ****** ******
      ****** ****** ****** ****** ****** ****** ****** ****** ****** ******
   3  ****** ****** ****** ****** ****** ****** ****** ****** ****** ******
      ****** ****** ****** ****** ****** ****** ****** ****** ****** ******
      ****** ****** ****** ****** ****** ****** ****** ****** ****** ******
   4  ****** ****** ****** ****** ****** ****** ****** ****** ****** ******
      ****** ****** ****** ****** ****** ****** ****** ****** ****** ******
      ****** ****** ****** ****** ****** ****** ****** ****** ****** ******
   5  ****** ****** ****** ****** ****** ****** ****** ****** ****** ******
      ****** ****** ****** ****** ****** ****** ****** ****** ****** ******
      ****** ****** ****** ****** ****** ****** ****** ****** ****** ******
   6  ****** ****** ****** ****** ****** ****** ****** ****** ****** ******
      ****** ****** ****** ****** ****** ****** ****** ****** ****** ******
      ****** ****** ****** ****** ****** ****** ****** ****** ****** ******
   7  ****** ****** ****** ****** ****** ****** ****** ****** ****** ******
      ****** ****** ****** ****** ****** ****** ****** ****** ****** ******
      ****** ****** ****** ****** ****** ****** ****** ****** ****** ******
   8  ****** ****** ****** ****** ****** ****** ****** ****** ****** ******
      ****** ****** ****** ****** ****** ****** ****** ****** ****** ******
      ****** ****** ****** ****** ****** ****** ****** ****** ****** ******
   9  ****** ****** ****** ****** ****** ****** ****** ****** ****** ******
      ****** ****** ****** ****** ****** ****** ****** ****** ****** ******
      ****** ****** ****** ****** ****** ****** ****** ****** ****** ******
  10  ****** ****** ****** ****** ****** ****** ****** ****** ****** ******
      ****** ****** ****** ****** ****** ****** ****** ****** ****** ******
      ****** ****** ****** ****** ****** ****** ****** ****** ****** ******
  11  ****** ****** ****** ****** ****** ****** ****** ****** ****** ******
      ****** ****** ****** ****** ****** ****** ****** ****** ****** ******
      ****** ****** ****** ****** ****** ****** ****** ****** ****** ******
  12  ****** ****** ****** ****** ****** ****** ****** ****** ****** ******
      ****** ****** ****** ****** ****** ****** ****** ****** ****** ******
      ****** ****** ****** ****** ****** ****** ****** ****** ****** ******
  13  ****** ****** ****** ****** ****** ****** ****** ****** ****** ******
      ****** ****** ****** ****** ****** ****** ****** ****** ****** ******
      ****** ****** ****** ****** ****** ****** ****** ****** ****** ******
  14  ****** ****** ****** ****** ****** ****** ****** ****** ****** ******
      ****** ****** ****** ****** ****** ****** ****** ****** ****** ******
      ****** ****** ****** ****** ****** ****** ****** ****** ****** ******
  15  ****** ****** ****** ****** ****** ****** ****** ****** ****** ******
      ****** ****** ****** ****** ****** ****** ****** ****** ****** ******
      ****** ****** ****** ****** ****** ****** ****** ****** ****** ******
  16  ****** ****** ****** ****** ****** ****** ****** ****** ****** ******
      ****** ****** ****** ****** ****** ****** ****** ****** ****** ******
      ****** ****** ****** ****** ****** ****** ****** ****** ****** ******
  17  ****** ****** ****** ****** ****** ****** ****** ****** ****** ******
      ****** ****** ****** ****** ****** ****** ****** ****** ****** ******
      ****** ****** ****** ****** ****** ****** ****** ****** ****** ******
  18  ****** ****** ****** ****** ****** ****** ****** ****** ****** ******
      ****** ****** ****** ****** ****** ****** ****** ****** ****** ******
      ****** ****** ****** ****** ****** ****** ****** ****** ****** ******
  19  ****** ****** ****** ****** ****** ****** ****** ****** ****** ******
      ****** ****** ****** ****** ****** ****** ****** ****** ****** ******
      ****** ****** ****** ****** ****** ****** ****** ****** ****** ******
  20  ****** ****** ****** ****** ****** ****** ****** ****** ****** ******
      ****** ****** ****** ****** ****** ****** ****** ****** ****** ******
      ****** ****** ****** ****** ****** ****** ****** ****** ****** ******
  21  ****** ****** ****** ****** ****** ****** ****** ****** ****** ******
      ****** ****** ****** ****** ****** ****** ****** ****** ****** ******
      ****** ****** ****** ****** ****** ****** ****** ****** ****** ******
  22  ****** ****** ****** ****** ****** ****** ****** ****** ****** ******
      ****** ****** ****** ****** ****** ****** ****** ****** ****** ******
      ****** ****** ****** ****** ****** ****** ****** ****** ****** ******
  23  ****** ****** ****** ****** ****** ****** ****** ****** ****** ******
      ****** ****** ****** ****** ****** ****** ****** ****** ****** ******
      ****** ****** ****** ****** ****** ****** ****** ****** ****** ******
  24  ****** ****** ****** ****** ****** ****** ****** ****** ****** ******
      ****** ****** ****** ****** ****** ****** ****** ****** ****** ******
      ****** ****** ****** ****** ****** ****** ****** ****** ****** ******
  25  ****** ****** ****** ****** ****** ****** ****** ****** ****** ******
      ****** ****** ****** ****** ****** ****** ****** ****** ****** ******
      ****** ****** ****** ****** ****** ****** ****** ****** ****** ******

 HEAD WILL BE SAVED ON UNIT   51 AT END OF TIME STEP    1, STRESS PERIOD    8
1
  VOLUMETRIC BUDGET FOR ENTIRE MODEL AT END OF TIME STEP    1, STRESS PERIOD   8
  ------------------------------------------------------------------------------

     CUMULATIVE VOLUMES      L**3       RATES FOR THIS TIME STEP      L**3/T
     ------------------                 ------------------------

           IN:                                      IN:
           ---                                      ---
             STORAGE =    26210492.3165               STORAGE =           0.0000
       CONSTANT HEAD =   138203626.2069         CONSTANT HEAD =      200334.8912
               WELLS =           0.0000                 WELLS =           0.0000
            RECHARGE =    17608800.0000              RECHARGE =       27600.0000
      STREAM LEAKAGE =     4955199.4606        STREAM LEAKAGE =        7092.4971

            TOTAL IN =   186978117.9840              TOTAL IN =      235027.3883

          OUT:                                     OUT:
          ----                                     ----
             STORAGE =     1255522.3764               STORAGE =        3627.9962
       CONSTANT HEAD =           0.0000         CONSTANT HEAD =           0.0000
               WELLS =    97316702.1042                 WELLS =      133310.5508
            RECHARGE =           0.0000              RECHARGE =           0.0000
      STREAM LEAKAGE =    88405894.2850        STREAM LEAKAGE =       98088.8404

           TOTAL OUT =   186978118.7657             TOTAL OUT =      235027.3875

            IN - OUT =          -0.7817              IN - OUT =       8.6297E-04

 PERCENT DISCREPANCY =          -0.00     PERCENT DISCREPANCY =           0.00






         TIME SUMMARY AT END OF TIME STEP    1 IN STRESS PERIOD    8
                    SECONDS     MINUTES      HOURS       DAYS        YEARS
                    -----------------------------------------------------------
   TIME STEP LENGTH 7.86240E+06 1.31040E+05  2184.0      91.000     0.24914    
 STRESS PERIOD TIME 7.86240E+06 1.31040E+05  2184.0      91.000     0.24914    
         TOTAL TIME 6.30720E+07 1.05120E+06  17520.      730.00      1.9986    
1
1
                            STRESS PERIOD NO.    9, LENGTH =   92.00000    
                            -----------------------------------------------

                              NUMBER OF TIME STEPS =     1

                               MULTIPLIER FOR DELT =     1.500

                            INITIAL TIME STEP SIZE =   92.00000    

 WELL NO.  LAYER   ROW   COL   STRESS RATE         
 --------------------------------------------------
      1      1     23     20     -0.3361E+05
      2      1     23      4     -0.3381E+05
      3      1      5     26     -0.3582E+05
      4      1     21     27     -0.3006E+05

      4 WELLS

                 RECHARGE =  5.000000E-04

 REUSING STREAM SEGMENT DATA FROM LAST STRESS PERIOD
 
 SOLVING FOR HEAD 


     6 CALLS TO PCG ROUTINE FOR TIME STEP   1 IN STRESS PERIOD    9
    22 TOTAL ITERATIONS

 OUTPUT CONTROL FOR STRESS PERIOD    9   TIME STEP    1
    SAVE BUDGET
    SAVE HEAD FOR ALL LAYERS
    PRINT HEAD FOR ALL LAYERS
 UBDSV2 SAVING "STREAMFLOW OUT  " ON UNIT  50 AT TIME STEP  1, STRESS PERIOD   9



 STREAM LISTING     PERIOD      9   STEP        1

 LAYER ROW COL. STREAM  RCH.  FLOW INTO     FLOW TO   FLOW OUT OF   OVRLND.     DIRECT     STREAM       STREAM     STREAM     STREAM   STREAMBED  STREAMBED
                SEG.NO.  NO.  STRM. RCH.    AQUIFER    STRM. RCH.    RUNOFF     PRECIP       ET          HEAD       DEPTH      WIDTH   CONDCTNC.   GRADIENT

   1   13    1     1     1    1.0000E+05 -2.4194E+03   1.0242E+05  0.000E+00  0.000E+00  0.000E+00  4.84071E+01  1.457E-01  2.000E+01  2.000E+04 -1.210E-01
   1   13    2     1     2    1.0242E+05 -4.3816E+03   1.0680E+05  0.000E+00  0.000E+00  0.000E+00  4.79327E+01  1.486E-01  2.000E+01  2.000E+04 -2.191E-01
   1   14    3     1     3    1.0680E+05 -3.0751E+03   1.0988E+05  0.000E+00  0.000E+00  0.000E+00  4.74586E+01  1.518E-01  2.000E+01  2.000E+04 -1.538E-01
   1   15    4     1     4    1.0988E+05 -2.6556E+03   1.1253E+05  0.000E+00  0.000E+00  0.000E+00  4.69837E+01  1.542E-01  2.000E+01  2.000E+04 -1.328E-01
   1   16    5     1     5    1.1253E+05 -2.4232E+03   1.1495E+05  0.000E+00  0.000E+00  0.000E+00  4.65085E+01  1.563E-01  2.000E+01  2.000E+04 -1.212E-01
   1   16    6     1     6    1.1495E+05 -2.2997E+03   1.1725E+05  0.000E+00  0.000E+00  0.000E+00  4.60332E+01  1.582E-01  2.000E+01  2.000E+04 -1.150E-01
   1   16    7     1     7    1.1725E+05 -2.5339E+03   1.1979E+05  0.000E+00  0.000E+00  0.000E+00  4.55579E+01  1.602E-01  2.000E+01  2.000E+04 -1.267E-01
   1   16    8     1     8    1.1979E+05 -2.7002E+03   1.2249E+05  0.000E+00  0.000E+00  0.000E+00  4.50827E+01  1.623E-01  2.000E+01  2.000E+04 -1.350E-01
   1   16    9     1     9    1.2249E+05 -2.7970E+03   1.2529E+05  0.000E+00  0.000E+00  0.000E+00  4.46077E+01  1.645E-01  2.000E+01  2.000E+04 -1.399E-01
   1   16   10     1    10    1.2529E+05 -2.8251E+03   1.2811E+05  0.000E+00  0.000E+00  0.000E+00  4.41326E+01  1.667E-01  2.000E+01  2.000E+04 -1.413E-01
   1   16   11     1    11    1.2811E+05 -2.7995E+03   1.3091E+05  0.000E+00  0.000E+00  0.000E+00  4.36576E+01  1.689E-01  2.000E+01  2.000E+04 -1.400E-01
   1   16   12     1    12    1.3091E+05 -3.5617E+03   1.3447E+05  0.000E+00  0.000E+00  0.000E+00  4.31828E+01  1.714E-01  2.000E+01  2.000E+04 -1.781E-01
   1   15   13     1    13    1.3447E+05 -3.3777E+03   1.3785E+05  0.000E+00  0.000E+00  0.000E+00  4.27082E+01  1.741E-01  2.000E+01  2.000E+04 -1.689E-01
   1   14   14     1    14    1.3785E+05 -3.4838E+03   1.4133E+05  0.000E+00  0.000E+00  0.000E+00  4.22335E+01  1.767E-01  2.000E+01  2.000E+04 -1.742E-01
   1   13   15     1    15    1.4133E+05 -3.8193E+03   1.4515E+05  0.000E+00  0.000E+00  0.000E+00  4.17590E+01  1.795E-01  2.000E+01  2.000E+04 -1.910E-01
   1   12   16     1    16    1.4515E+05 -5.0178E+03   1.5017E+05  0.000E+00  0.000E+00  0.000E+00  4.12850E+01  1.828E-01  2.000E+01  2.000E+04 -2.509E-01
   1   12   17     1    17    1.5017E+05 -3.1588E+03   1.5333E+05  0.000E+00  0.000E+00  0.000E+00  4.08108E+01  1.858E-01  2.000E+01  2.000E+04 -1.579E-01
   1   12   18     1    18    1.5333E+05 -2.9524E+03   1.5628E+05  0.000E+00  0.000E+00  0.000E+00  4.03357E+01  1.880E-01  2.000E+01  2.000E+04 -1.476E-01
   1   12   19     1    19    1.5628E+05 -3.7547E+03   1.6004E+05  0.000E+00  0.000E+00  0.000E+00  3.98609E+01  1.905E-01  2.000E+01  2.000E+04 -1.877E-01
   1   13   20     1    20    1.6004E+05 -2.2143E+03   1.6225E+05  0.000E+00  0.000E+00  0.000E+00  3.93858E+01  1.926E-01  2.000E+01  2.000E+04 -1.107E-01
   1   14   21     1    21    1.6225E+05 -1.2630E+03   1.6351E+05  0.000E+00  0.000E+00  0.000E+00  3.89098E+01  1.938E-01  2.000E+01  2.000E+04 -6.315E-02
   1   14   22     1    22    1.6351E+05  5.3485E+03   1.5817E+05  0.000E+00  0.000E+00  0.000E+00  3.84310E+01  1.924E-01  2.000E+01  2.000E+04  2.674E-01
   1    9   30     2     1    5.0000E+04 -1.0898E+03   5.1090E+04  0.000E+00  0.000E+00  0.000E+00  4.02416E+01  1.166E-01  2.000E+01  2.000E+04 -5.449E-02
   1    9   29     2     2    5.1090E+04 -1.2288E+03   5.2319E+04  0.000E+00  0.000E+00  0.000E+00  3.99932E+01  1.182E-01  2.000E+01  2.000E+04 -6.144E-02
   1    9   28     2     3    5.2319E+04 -1.2023E+03   5.3521E+04  0.000E+00  0.000E+00  0.000E+00  3.97449E+01  1.199E-01  2.000E+01  2.000E+04 -6.012E-02
   1    9   27     2     4    5.3521E+04 -2.1901E+03   5.5711E+04  0.000E+00  0.000E+00  0.000E+00  3.94972E+01  1.222E-01  2.000E+01  2.000E+04 -1.095E-01
   1   10   26     2     5    5.5711E+04 -1.6329E+03   5.7344E+04  0.000E+00  0.000E+00  0.000E+00  3.92497E+01  1.247E-01  2.000E+01  2.000E+04 -8.165E-02
   1   11   25     2     6    5.7344E+04 -1.4807E+03   5.8825E+04  0.000E+00  0.000E+00  0.000E+00  3.90018E+01  1.268E-01  2.000E+01  2.000E+04 -7.404E-02
   1   12   24     2     7    5.8825E+04 -1.1590E+03   5.9984E+04  0.000E+00  0.000E+00  0.000E+00  3.87535E+01  1.285E-01  2.000E+01  2.000E+04 -5.795E-02
   1   13   23     2     8    5.9984E+04 -6.9003E+02   6.0674E+04  0.000E+00  0.000E+00  0.000E+00  3.85047E+01  1.297E-01  2.000E+01  2.000E+04 -3.450E-02
   1   14   22     2     9    6.0674E+04  1.8074E+03   5.8866E+04  0.000E+00  0.000E+00  0.000E+00  3.82540E+01  1.290E-01  2.000E+01  2.000E+04  9.037E-02
   1   14   22     3     1    2.1703E+05 -8.2955E+03   2.2533E+05  0.000E+00  0.000E+00  0.000E+00  3.77488E+01  1.933E-01  2.000E+01  2.000E+04 -4.148E-01
   1   15   23     3     2    2.2533E+05 -1.4923E+03   2.2682E+05  0.000E+00  0.000E+00  0.000E+00  3.68625E+01  1.958E-01  2.000E+01  2.000E+04 -7.462E-02
   1   15   24     3     3    2.2682E+05 -1.0285E+03   2.2785E+05  0.000E+00  0.000E+00  0.000E+00  3.59742E+01  1.965E-01  2.000E+01  2.000E+04 -5.143E-02
   1   15   25     3     4    2.2785E+05 -9.9314E+02   2.2884E+05  0.000E+00  0.000E+00  0.000E+00  3.50859E+01  1.970E-01  2.000E+01  2.000E+04 -4.966E-02
   1   15   26     3     5    2.2884E+05 -1.5306E+03   2.3037E+05  0.000E+00  0.000E+00  0.000E+00  3.41976E+01  1.976E-01  2.000E+01  2.000E+04 -7.653E-02
   1   16   27     3     6    2.3037E+05 -1.3551E+03   2.3173E+05  0.000E+00  0.000E+00  0.000E+00  3.33095E+01  1.984E-01  2.000E+01  2.000E+04 -6.776E-02
   1   17   28     3     7    2.3173E+05 -1.0994E+03   2.3283E+05  0.000E+00  0.000E+00  0.000E+00  3.24212E+01  1.990E-01  2.000E+01  2.000E+04 -5.497E-02
   1   18   29     3     8    2.3283E+05 -1.2045E+03   2.3403E+05  0.000E+00  0.000E+00  0.000E+00  3.15329E+01  1.996E-01  2.000E+01  2.000E+04 -6.022E-02
   1   18   30     3     9    2.3403E+05 -2.3763E+03   2.3641E+05  0.000E+00  0.000E+00  0.000E+00  3.06450E+01  2.005E-01  2.000E+01  2.000E+04 -1.188E-01



1
              HEAD IN LAYER   1 AT END OF TIME STEP   1 IN STRESS PERIOD    9
  ---------------------------------------------------------------------------

          1      2      3      4      5      6      7      8      9     10
         11     12     13     14     15     16     17     18     19     20
         21     22     23     24     25     26     27     28     29     30
 .........................................................................
   1  ****** ****** ****** ****** ****** ****** ****** ****** ****** ******
      ****** ****** ****** ****** ****** ****** ****** ****** ****** ******
      ****** ****** ****** ****** ****** ****** ****** ****** ****** ******
   2  ****** ****** ****** ****** ****** ****** ****** ****** ****** ******
      ****** ****** ****** ****** ****** ****** ****** ****** ****** ******
      ****** ****** ****** ****** ****** ****** ****** ****** ****** ******
   3  ****** ****** ****** ****** ****** ****** ****** ****** ****** ******
      ****** ****** ****** ****** ****** ****** ****** ****** ****** ******
      ****** ****** ****** ****** ****** ****** ****** ****** ****** ******
   4  ****** ****** ****** ****** ****** ****** ****** ****** ****** ******
      ****** ****** ****** ****** ****** ****** ****** ****** ****** ******
      ****** ****** ****** ****** ****** ****** ****** ****** ****** ******
   5  ****** ****** ****** ****** ****** ****** ****** ****** ****** ******
      ****** ****** ****** ****** ****** ****** ****** ****** ****** ******
      ****** ****** ****** ****** ****** ****** ****** ****** ****** ******
   6  ****** ****** ****** ****** ****** ****** ****** ****** ****** ******
      ****** ****** ****** ****** ****** ****** ****** ****** ****** ******
      ****** ****** ****** ****** ****** ****** ****** ****** ****** ******
   7  ****** ****** ****** ****** ****** ****** ****** ****** ****** ******
      ****** ****** ****** ****** ****** ****** ****** ****** ****** ******
      ****** ****** ****** ****** ****** ****** ****** ****** ****** ******
   8  ****** ****** ****** ****** ****** ****** ****** ****** ****** ******
      ****** ****** ****** ****** ****** ****** ****** ****** ****** ******
      ****** ****** ****** ****** ****** ****** ****** ****** ****** ******
   9  ****** ****** ****** ****** ****** ****** ****** ****** ****** ******
      ****** ****** ****** ****** ****** ****** ****** ****** ****** ******
      ****** ****** ****** ****** ****** ****** ****** ****** ****** ******
  10  ****** ****** ****** ****** ****** ****** ****** ****** ****** ******
      ****** ****** ****** ****** ****** ****** ****** ****** ****** ******
      ****** ****** ****** ****** ****** ****** ****** ****** ****** ******
  11  ****** ****** ****** ****** ****** ****** ****** ****** ****** ******
      ****** ****** ****** ****** ****** ****** ****** ****** ****** ******
      ****** ****** ****** ****** ****** ****** ****** ****** ****** ******
  12  ****** ****** ****** ****** ****** ****** ****** ****** ****** ******
      ****** ****** ****** ****** ****** ****** ****** ****** ****** ******
      ****** ****** ****** ****** ****** ****** ****** ****** ****** ******
  13  ****** ****** ****** ****** ****** ****** ****** ****** ****** ******
      ****** ****** ****** ****** ****** ****** ****** ****** ****** ******
      ****** ****** ****** ****** ****** ****** ****** ****** ****** ******
  14  ****** ****** ****** ****** ****** ****** ****** ****** ****** ******
      ****** ****** ****** ****** ****** ****** ****** ****** ****** ******
      ****** ****** ****** ****** ****** ****** ****** ****** ****** ******
  15  ****** ****** ****** ****** ****** ****** ****** ****** ****** ******
      ****** ****** ****** ****** ****** ****** ****** ****** ****** ******
      ****** ****** ****** ****** ****** ****** ****** ****** ****** ******
  16  ****** ****** ****** ****** ****** ****** ****** ****** ****** ******
      ****** ****** ****** ****** ****** ****** ****** ****** ****** ******
      ****** ****** ****** ****** ****** ****** ****** ****** ****** ******
  17  ****** ****** ****** ****** ****** ****** ****** ****** ****** ******
      ****** ****** ****** ****** ****** ****** ****** ****** ****** ******
      ****** ****** ****** ****** ****** ****** ****** ****** ****** ******
  18  ****** ****** ****** ****** ****** ****** ****** ****** ****** ******
      ****** ****** ****** ****** ****** ****** ****** ****** ****** ******
      ****** ****** ****** ****** ****** ****** ****** ****** ****** ******
  19  ****** ****** ****** ****** ****** ****** ****** ****** ****** ******
      ****** ****** ****** ****** ****** ****** ****** ****** ****** ******
      ****** ****** ****** ****** ****** ****** ****** ****** ****** ******
  20  ****** ****** ****** ****** ****** ****** ****** ****** ****** ******
      ****** ****** ****** ****** ****** ****** ****** ****** ****** ******
      ****** ****** ****** ****** ****** ****** ****** ****** ****** ******
  21  ****** ****** ****** ****** ****** ****** ****** ****** ****** ******
      ****** ****** ****** ****** ****** ****** ****** ****** ****** ******
      ****** ****** ****** ****** ****** ****** ****** ****** ****** ******
  22  ****** ****** ****** ****** ****** ****** ****** ****** ****** ******
      ****** ****** ****** ****** ****** ****** ****** ****** ****** ******
      ****** ****** ****** ****** ****** ****** ****** ****** ****** ******
  23  ****** ****** ****** ****** ****** ****** ****** ****** ****** ******
      ****** ****** ****** ****** ****** ****** ****** ****** ****** ******
      ****** ****** ****** ****** ****** ****** ****** ****** ****** ******
  24  ****** ****** ****** ****** ****** ****** ****** ****** ****** ******
      ****** ****** ****** ****** ****** ****** ****** ****** ****** ******
      ****** ****** ****** ****** ****** ****** ****** ****** ****** ******
  25  ****** ****** ****** ****** ****** ****** ****** ****** ****** ******
      ****** ****** ****** ****** ****** ****** ****** ****** ****** ******
      ****** ****** ****** ****** ****** ****** ****** ****** ****** ******

 HEAD WILL BE SAVED ON UNIT   51 AT END OF TIME STEP    1, STRESS PERIOD    9
1
  VOLUMETRIC BUDGET FOR ENTIRE MODEL AT END OF TIME STEP    1, STRESS PERIOD   9
  ------------------------------------------------------------------------------

     CUMULATIVE VOLUMES      L**3       RATES FOR THIS TIME STEP      L**3/T
     ------------------                 ------------------------

           IN:                                      IN:
           ---                                      ---
             STORAGE =    26457318.2428               STORAGE =        2682.8905
       CONSTANT HEAD =   156901239.7216         CONSTANT HEAD =      203234.9295
               WELLS =           0.0000                 WELLS =           0.0000
            RECHARGE =    18878400.0000              RECHARGE =       13800.0000
      STREAM LEAKAGE =     5613540.7044        STREAM LEAKAGE =        7155.8831

            TOTAL IN =   207850498.6688              TOTAL IN =      226873.7031

          OUT:                                     OUT:
          ----                                     ----
             STORAGE =     1255522.3764               STORAGE =           0.0000
       CONSTANT HEAD =           0.0000         CONSTANT HEAD =           0.0000
               WELLS =   109581272.7804                 WELLS =      133310.5508
            RECHARGE =           0.0000              RECHARGE =           0.0000
      STREAM LEAKAGE =    97013704.5839        STREAM LEAKAGE =       93563.1554

           TOTAL OUT =   207850499.7408             TOTAL OUT =      226873.7063

            IN - OUT =          -1.0719              IN - OUT =      -3.1542E-03

 PERCENT DISCREPANCY =          -0.00     PERCENT DISCREPANCY =          -0.00






         TIME SUMMARY AT END OF TIME STEP    1 IN STRESS PERIOD    9
                    SECONDS     MINUTES      HOURS       DAYS        YEARS
                    -----------------------------------------------------------
   TIME STEP LENGTH 7.94880E+06 1.32480E+05  2208.0      92.000     0.25188    
 STRESS PERIOD TIME 7.94880E+06 1.32480E+05  2208.0      92.000     0.25188    
         TOTAL TIME 7.10208E+07 1.18368E+06  19728.      822.00      2.2505    
1
1
                            STRESS PERIOD NO.   10, LENGTH =   91.00000    
                            -----------------------------------------------

                              NUMBER OF TIME STEPS =     1

                               MULTIPLIER FOR DELT =     1.500

                            INITIAL TIME STEP SIZE =   91.00000    

 WELL NO.  LAYER   ROW   COL   STRESS RATE         
 --------------------------------------------------
      1      1     23     20     -0.3361E+05
      2      1     23      4     -0.3381E+05
      3      1      5     26     -0.3582E+05
      4      1     21     27     -0.3006E+05

      4 WELLS

                 RECHARGE =  2.000000E-03

 REUSING STREAM SEGMENT DATA FROM LAST STRESS PERIOD
 
 SOLVING FOR HEAD 


     7 CALLS TO PCG ROUTINE FOR TIME STEP   1 IN STRESS PERIOD   10
    26 TOTAL ITERATIONS

 OUTPUT CONTROL FOR STRESS PERIOD   10   TIME STEP    1
    SAVE BUDGET
    SAVE HEAD FOR ALL LAYERS
    PRINT HEAD FOR ALL LAYERS
 UBDSV2 SAVING "STREAMFLOW OUT  " ON UNIT  50 AT TIME STEP  1, STRESS PERIOD  10



 STREAM LISTING     PERIOD     10   STEP        1

 LAYER ROW COL. STREAM  RCH.  FLOW INTO     FLOW TO   FLOW OUT OF   OVRLND.     DIRECT     STREAM       STREAM     STREAM     STREAM   STREAMBED  STREAMBED
                SEG.NO.  NO.  STRM. RCH.    AQUIFER    STRM. RCH.    RUNOFF     PRECIP       ET          HEAD       DEPTH      WIDTH   CONDCTNC.   GRADIENT

   1   13    1     1     1    1.0000E+05 -2.8425E+03   1.0284E+05  0.000E+00  0.000E+00  0.000E+00  4.84072E+01  1.459E-01  2.000E+01  2.000E+04 -1.421E-01
   1   13    2     1     2    1.0284E+05 -4.9437E+03   1.0779E+05  0.000E+00  0.000E+00  0.000E+00  4.79333E+01  1.492E-01  2.000E+01  2.000E+04 -2.472E-01
   1   14    3     1     3    1.0779E+05 -3.6419E+03   1.1143E+05  0.000E+00  0.000E+00  0.000E+00  4.74597E+01  1.528E-01  2.000E+01  2.000E+04 -1.821E-01
   1   15    4     1     4    1.1143E+05 -3.2154E+03   1.1464E+05  0.000E+00  0.000E+00  0.000E+00  4.69852E+01  1.557E-01  2.000E+01  2.000E+04 -1.608E-01
   1   16    5     1     5    1.1464E+05 -2.9383E+03   1.1758E+05  0.000E+00  0.000E+00  0.000E+00  4.65105E+01  1.582E-01  2.000E+01  2.000E+04 -1.469E-01
   1   16    6     1     6    1.1758E+05 -2.7071E+03   1.2029E+05  0.000E+00  0.000E+00  0.000E+00  4.60355E+01  1.605E-01  2.000E+01  2.000E+04 -1.354E-01
   1   16    7     1     7    1.2029E+05 -2.9481E+03   1.2324E+05  0.000E+00  0.000E+00  0.000E+00  4.55605E+01  1.628E-01  2.000E+01  2.000E+04 -1.474E-01
   1   16    8     1     8    1.2324E+05 -3.1182E+03   1.2636E+05  0.000E+00  0.000E+00  0.000E+00  4.50857E+01  1.652E-01  2.000E+01  2.000E+04 -1.559E-01
   1   16    9     1     9    1.2636E+05 -3.2149E+03   1.2957E+05  0.000E+00  0.000E+00  0.000E+00  4.46109E+01  1.677E-01  2.000E+01  2.000E+04 -1.607E-01
   1   16   10     1    10    1.2957E+05 -3.2391E+03   1.3281E+05  0.000E+00  0.000E+00  0.000E+00  4.41362E+01  1.702E-01  2.000E+01  2.000E+04 -1.620E-01
   1   16   11     1    11    1.3281E+05 -3.2077E+03   1.3602E+05  0.000E+00  0.000E+00  0.000E+00  4.36614E+01  1.727E-01  2.000E+01  2.000E+04 -1.604E-01
   1   16   12     1    12    1.3602E+05 -4.0864E+03   1.4010E+05  0.000E+00  0.000E+00  0.000E+00  4.31869E+01  1.755E-01  2.000E+01  2.000E+04 -2.043E-01
   1   15   13     1    13    1.4010E+05 -3.9497E+03   1.4405E+05  0.000E+00  0.000E+00  0.000E+00  4.27127E+01  1.786E-01  2.000E+01  2.000E+04 -1.975E-01
   1   14   14     1    14    1.4405E+05 -4.0673E+03   1.4812E+05  0.000E+00  0.000E+00  0.000E+00  4.22384E+01  1.816E-01  2.000E+01  2.000E+04 -2.034E-01
   1   13   15     1    15    1.4812E+05 -4.3939E+03   1.5251E+05  0.000E+00  0.000E+00  0.000E+00  4.17643E+01  1.847E-01  2.000E+01  2.000E+04 -2.197E-01
   1   12   16     1    16    1.5251E+05 -5.5701E+03   1.5808E+05  0.000E+00  0.000E+00  0.000E+00  4.12906E+01  1.884E-01  2.000E+01  2.000E+04 -2.785E-01
   1   12   17     1    17    1.5808E+05 -3.5671E+03   1.6165E+05  0.000E+00  0.000E+00  0.000E+00  4.08167E+01  1.917E-01  2.000E+01  2.000E+04 -1.784E-01
   1   12   18     1    18    1.6165E+05 -3.3529E+03   1.6500E+05  0.000E+00  0.000E+00  0.000E+00  4.03419E+01  1.942E-01  2.000E+01  2.000E+04 -1.676E-01
   1   12   19     1    19    1.6500E+05 -4.2423E+03   1.6925E+05  0.000E+00  0.000E+00  0.000E+00  3.98673E+01  1.969E-01  2.000E+01  2.000E+04 -2.121E-01
   1   13   20     1    20    1.6925E+05 -2.6872E+03   1.7193E+05  0.000E+00  0.000E+00  0.000E+00  3.93925E+01  1.993E-01  2.000E+01  2.000E+04 -1.344E-01
   1   14   21     1    21    1.7193E+05 -1.6985E+03   1.7363E+05  0.000E+00  0.000E+00  0.000E+00  3.89167E+01  2.008E-01  2.000E+01  2.000E+04 -8.493E-02
   1   14   22     1    22    1.7363E+05  5.2653E+03   1.6837E+05  0.000E+00  0.000E+00  0.000E+00  3.84382E+01  1.996E-01  2.000E+01  2.000E+04  2.633E-01
   1    9   30     2     1    5.0000E+04 -1.4511E+03   5.1451E+04  0.000E+00  0.000E+00  0.000E+00  4.02419E+01  1.169E-01  2.000E+01  2.000E+04 -7.256E-02
   1    9   29     2     2    5.1451E+04 -1.5875E+03   5.3039E+04  0.000E+00  0.000E+00  0.000E+00  3.99940E+01  1.190E-01  2.000E+01  2.000E+04 -7.937E-02
   1    9   28     2     3    5.3039E+04 -1.5594E+03   5.4598E+04  0.000E+00  0.000E+00  0.000E+00  3.97461E+01  1.211E-01  2.000E+01  2.000E+04 -7.797E-02
   1    9   27     2     4    5.4598E+04 -2.6696E+03   5.7268E+04  0.000E+00  0.000E+00  0.000E+00  3.94989E+01  1.239E-01  2.000E+01  2.000E+04 -1.335E-01
   1   10   26     2     5    5.7268E+04 -2.1282E+03   5.9396E+04  0.000E+00  0.000E+00  0.000E+00  3.92521E+01  1.271E-01  2.000E+01  2.000E+04 -1.064E-01
   1   11   25     2     6    5.9396E+04 -1.9546E+03   6.1350E+04  0.000E+00  0.000E+00  0.000E+00  3.90047E+01  1.297E-01  2.000E+01  2.000E+04 -9.773E-02
   1   12   24     2     7    6.1350E+04 -1.5777E+03   6.2928E+04  0.000E+00  0.000E+00  0.000E+00  3.87570E+01  1.320E-01  2.000E+01  2.000E+04 -7.889E-02
   1   13   23     2     8    6.2928E+04 -1.0161E+03   6.3944E+04  0.000E+00  0.000E+00  0.000E+00  3.85087E+01  1.337E-01  2.000E+01  2.000E+04 -5.081E-02
   1   14   22     2     9    6.3944E+04  1.6658E+03   6.2278E+04  0.000E+00  0.000E+00  0.000E+00  3.82582E+01  1.332E-01  2.000E+01  2.000E+04  8.329E-02
   1   14   22     3     1    2.3065E+05 -8.3812E+03   2.3903E+05  0.000E+00  0.000E+00  0.000E+00  3.77559E+01  2.003E-01  2.000E+01  2.000E+04 -4.191E-01
   1   15   23     3     2    2.3903E+05 -1.8985E+03   2.4093E+05  0.000E+00  0.000E+00  0.000E+00  3.68696E+01  2.030E-01  2.000E+01  2.000E+04 -9.493E-02
   1   15   24     3     3    2.4093E+05 -1.3207E+03   2.4225E+05  0.000E+00  0.000E+00  0.000E+00  3.59815E+01  2.038E-01  2.000E+01  2.000E+04 -6.603E-02
   1   15   25     3     4    2.4225E+05 -1.2850E+03   2.4353E+05  0.000E+00  0.000E+00  0.000E+00  3.50933E+01  2.044E-01  2.000E+01  2.000E+04 -6.425E-02
   1   15   26     3     5    2.4353E+05 -1.9052E+03   2.4544E+05  0.000E+00  0.000E+00  0.000E+00  3.42052E+01  2.052E-01  2.000E+01  2.000E+04 -9.526E-02
   1   16   27     3     6    2.4544E+05 -1.8267E+03   2.4726E+05  0.000E+00  0.000E+00  0.000E+00  3.33173E+01  2.062E-01  2.000E+01  2.000E+04 -9.134E-02
   1   17   28     3     7    2.4726E+05 -1.5811E+03   2.4884E+05  0.000E+00  0.000E+00  0.000E+00  3.24292E+01  2.070E-01  2.000E+01  2.000E+04 -7.906E-02
   1   18   29     3     8    2.4884E+05 -1.6573E+03   2.5050E+05  0.000E+00  0.000E+00  0.000E+00  3.15412E+01  2.078E-01  2.000E+01  2.000E+04 -8.287E-02
   1   18   30     3     9    2.5050E+05 -2.7166E+03   2.5322E+05  0.000E+00  0.000E+00  0.000E+00  3.06534E+01  2.089E-01  2.000E+01  2.000E+04 -1.358E-01



1
              HEAD IN LAYER   1 AT END OF TIME STEP   1 IN STRESS PERIOD   10
  ---------------------------------------------------------------------------

          1      2      3      4      5      6      7      8      9     10
         11     12     13     14     15     16     17     18     19     20
         21     22     23     24     25     26     27     28     29     30
 .........................................................................
   1  ****** ****** ****** ****** ****** ****** ****** ****** ****** ******
      ****** ****** ****** ****** ****** ****** ****** ****** ****** ******
      ****** ****** ****** ****** ****** ****** ****** ****** ****** ******
   2  ****** ****** ****** ****** ****** ****** ****** ****** ****** ******
      ****** ****** ****** ****** ****** ****** ****** ****** ****** ******
      ****** ****** ****** ****** ****** ****** ****** ****** ****** ******
   3  ****** ****** ****** ****** ****** ****** ****** ****** ****** ******
      ****** ****** ****** ****** ****** ****** ****** ****** ****** ******
      ****** ****** ****** ****** ****** ****** ****** ****** ****** ******
   4  ****** ****** ****** ****** ****** ****** ****** ****** ****** ******
      ****** ****** ****** ****** ****** ****** ****** ****** ****** ******
      ****** ****** ****** ****** ****** ****** ****** ****** ****** ******
   5  ****** ****** ****** ****** ****** ****** ****** ****** ****** ******
      ****** ****** ****** ****** ****** ****** ****** ****** ****** ******
      ****** ****** ****** ****** ****** ****** ****** ****** ****** ******
   6  ****** ****** ****** ****** ****** ****** ****** ****** ****** ******
      ****** ****** ****** ****** ****** ****** ****** ****** ****** ******
      ****** ****** ****** ****** ****** ****** ****** ****** ****** ******
   7  ****** ****** ****** ****** ****** ****** ****** ****** ****** ******
      ****** ****** ****** ****** ****** ****** ****** ****** ****** ******
      ****** ****** ****** ****** ****** ****** ****** ****** ****** ******
   8  ****** ****** ****** ****** ****** ****** ****** ****** ****** ******
      ****** ****** ****** ****** ****** ****** ****** ****** ****** ******
      ****** ****** ****** ****** ****** ****** ****** ****** ****** ******
   9  ****** ****** ****** ****** ****** ****** ****** ****** ****** ******
      ****** ****** ****** ****** ****** ****** ****** ****** ****** ******
      ****** ****** ****** ****** ****** ****** ****** ****** ****** ******
  10  ****** ****** ****** ****** ****** ****** ****** ****** ****** ******
      ****** ****** ****** ****** ****** ****** ****** ****** ****** ******
      ****** ****** ****** ****** ****** ****** ****** ****** ****** ******
  11  ****** ****** ****** ****** ****** ****** ****** ****** ****** ******
      ****** ****** ****** ****** ****** ****** ****** ****** ****** ******
      ****** ****** ****** ****** ****** ****** ****** ****** ****** ******
  12  ****** ****** ****** ****** ****** ****** ****** ****** ****** ******
      ****** ****** ****** ****** ****** ****** ****** ****** ****** ******
      ****** ****** ****** ****** ****** ****** ****** ****** ****** ******
  13  ****** ****** ****** ****** ****** ****** ****** ****** ****** ******
      ****** ****** ****** ****** ****** ****** ****** ****** ****** ******
      ****** ****** ****** ****** ****** ****** ****** ****** ****** ******
  14  ****** ****** ****** ****** ****** ****** ****** ****** ****** ******
      ****** ****** ****** ****** ****** ****** ****** ****** ****** ******
      ****** ****** ****** ****** ****** ****** ****** ****** ****** ******
  15  ****** ****** ****** ****** ****** ****** ****** ****** ****** ******
      ****** ****** ****** ****** ****** ****** ****** ****** ****** ******
      ****** ****** ****** ****** ****** ****** ****** ****** ****** ******
  16  ****** ****** ****** ****** ****** ****** ****** ****** ****** ******
      ****** ****** ****** ****** ****** ****** ****** ****** ****** ******
      ****** ****** ****** ****** ****** ****** ****** ****** ****** ******
  17  ****** ****** ****** ****** ****** ****** ****** ****** ****** ******
      ****** ****** ****** ****** ****** ****** ****** ****** ****** ******
      ****** ****** ****** ****** ****** ****** ****** ****** ****** ******
  18  ****** ****** ****** ****** ****** ****** ****** ****** ****** ******
      ****** ****** ****** ****** ****** ****** ****** ****** ****** ******
      ****** ****** ****** ****** ****** ****** ****** ****** ****** ******
  19  ****** ****** ****** ****** ****** ****** ****** ****** ****** ******
      ****** ****** ****** ****** ****** ****** ****** ****** ****** ******
      ****** ****** ****** ****** ****** ****** ****** ****** ****** ******
  20  ****** ****** ****** ****** ****** ****** ****** ****** ****** ******
      ****** ****** ****** ****** ****** ****** ****** ****** ****** ******
      ****** ****** ****** ****** ****** ****** ****** ****** ****** ******
  21  ****** ****** ****** ****** ****** ****** ****** ****** ****** ******
      ****** ****** ****** ****** ****** ****** ****** ****** ****** ******
      ****** ****** ****** ****** ****** ****** ****** ****** ****** ******
  22  ****** ****** ****** ****** ****** ****** ****** ****** ****** ******
      ****** ****** ****** ****** ****** ****** ****** ****** ****** ******
      ****** ****** ****** ****** ****** ****** ****** ****** ****** ******
  23  ****** ****** ****** ****** ****** ****** ****** ****** ****** ******
      ****** ****** ****** ****** ****** ****** ****** ****** ****** ******
      ****** ****** ****** ****** ****** ****** ****** ****** ****** ******
  24  ****** ****** ****** ****** ****** ****** ****** ****** ****** ******
      ****** ****** ****** ****** ****** ****** ****** ****** ****** ******
      ****** ****** ****** ****** ****** ****** ****** ****** ****** ******
  25  ****** ****** ****** ****** ****** ****** ****** ****** ****** ******
      ****** ****** ****** ****** ****** ****** ****** ****** ****** ******
      ****** ****** ****** ****** ****** ****** ****** ****** ****** ******

 HEAD WILL BE SAVED ON UNIT   51 AT END OF TIME STEP    1, STRESS PERIOD   10
1
  VOLUMETRIC BUDGET FOR ENTIRE MODEL AT END OF TIME STEP    1, STRESS PERIOD  10
  ------------------------------------------------------------------------------

     CUMULATIVE VOLUMES      L**3       RATES FOR THIS TIME STEP      L**3/T
     ------------------                 ------------------------

           IN:                                      IN:
           ---                                      ---
             STORAGE =    26457318.2428               STORAGE =           0.0000
       CONSTANT HEAD =   174381118.1323         CONSTANT HEAD =      192086.5759
               WELLS =           0.0000                 WELLS =           0.0000
            RECHARGE =    23901600.0000              RECHARGE =       55200.0000
      STREAM LEAKAGE =     6244267.0244        STREAM LEAKAGE =        6931.0585

            TOTAL IN =   230984303.3995              TOTAL IN =      254217.6344

          OUT:                                     OUT:
          ----                                     ----
             STORAGE =     2234513.6062               STORAGE =       10758.1454
       CONSTANT HEAD =           0.0000         CONSTANT HEAD =           0.0000
               WELLS =   121712532.9057                 WELLS =      133310.5508
            RECHARGE =           0.0000              RECHARGE =           0.0000
      STREAM LEAKAGE =   107037257.7962        STREAM LEAKAGE =      110148.9364

           TOTAL OUT =   230984304.3081             TOTAL OUT =      254217.6326

            IN - OUT =          -0.9086              IN - OUT =       1.7951E-03

 PERCENT DISCREPANCY =          -0.00     PERCENT DISCREPANCY =           0.00






         TIME SUMMARY AT END OF TIME STEP    1 IN STRESS PERIOD   10
                    SECONDS     MINUTES      HOURS       DAYS        YEARS
                    -----------------------------------------------------------
   TIME STEP LENGTH 7.86240E+06 1.31040E+05  2184.0      91.000     0.24914    
 STRESS PERIOD TIME 7.86240E+06 1.31040E+05  2184.0      91.000     0.24914    
         TOTAL TIME 7.88832E+07 1.31472E+06  21912.      913.00      2.4997    
1
1
                            STRESS PERIOD NO.   11, LENGTH =   91.00000    
                            -----------------------------------------------

                              NUMBER OF TIME STEPS =     1

                               MULTIPLIER FOR DELT =     1.500

                            INITIAL TIME STEP SIZE =   91.00000    

 WELL NO.  LAYER   ROW   COL   STRESS RATE         
 --------------------------------------------------
      1      1     23     20     -0.3361E+05
      2      1     23      4     -0.3381E+05
      3      1      5     26     -0.3582E+05
      4      1     21     27     -0.3006E+05

      4 WELLS

                 RECHARGE =   0.00000    

 REUSING STREAM SEGMENT DATA FROM LAST STRESS PERIOD
 
 SOLVING FOR HEAD 


     7 CALLS TO PCG ROUTINE FOR TIME STEP   1 IN STRESS PERIOD   11
    26 TOTAL ITERATIONS

 OUTPUT CONTROL FOR STRESS PERIOD   11   TIME STEP    1
    SAVE BUDGET
    SAVE HEAD FOR ALL LAYERS
    PRINT HEAD FOR ALL LAYERS
 UBDSV2 SAVING "STREAMFLOW OUT  " ON UNIT  50 AT TIME STEP  1, STRESS PERIOD  11



 STREAM LISTING     PERIOD     11   STEP        1

 LAYER ROW COL. STREAM  RCH.  FLOW INTO     FLOW TO   FLOW OUT OF   OVRLND.     DIRECT     STREAM       STREAM     STREAM     STREAM   STREAMBED  STREAMBED
                SEG.NO.  NO.  STRM. RCH.    AQUIFER    STRM. RCH.    RUNOFF     PRECIP       ET          HEAD       DEPTH      WIDTH   CONDCTNC.   GRADIENT

   1   13    1     1     1    1.0000E+05 -2.3583E+03   1.0236E+05  0.000E+00  0.000E+00  0.000E+00  4.84070E+01  1.457E-01  2.000E+01  2.000E+04 -1.179E-01
   1   13    2     1     2    1.0236E+05 -4.3107E+03   1.0667E+05  0.000E+00  0.000E+00  0.000E+00  4.79326E+01  1.485E-01  2.000E+01  2.000E+04 -2.155E-01
   1   14    3     1     3    1.0667E+05 -2.9870E+03   1.0966E+05  0.000E+00  0.000E+00  0.000E+00  4.74584E+01  1.516E-01  2.000E+01  2.000E+04 -1.494E-01
   1   15    4     1     4    1.0966E+05 -2.5637E+03   1.1222E+05  0.000E+00  0.000E+00  0.000E+00  4.69835E+01  1.539E-01  2.000E+01  2.000E+04 -1.282E-01
   1   16    5     1     5    1.1222E+05 -2.3367E+03   1.1456E+05  0.000E+00  0.000E+00  0.000E+00  4.65083E+01  1.560E-01  2.000E+01  2.000E+04 -1.168E-01
   1   16    6     1     6    1.1456E+05 -2.2313E+03   1.1679E+05  0.000E+00  0.000E+00  0.000E+00  4.60329E+01  1.579E-01  2.000E+01  2.000E+04 -1.116E-01
   1   16    7     1     7    1.1679E+05 -2.4654E+03   1.1925E+05  0.000E+00  0.000E+00  0.000E+00  4.55575E+01  1.598E-01  2.000E+01  2.000E+04 -1.233E-01
   1   16    8     1     8    1.1925E+05 -2.6315E+03   1.2188E+05  0.000E+00  0.000E+00  0.000E+00  4.50823E+01  1.618E-01  2.000E+01  2.000E+04 -1.316E-01
   1   16    9     1     9    1.2188E+05 -2.7283E+03   1.2461E+05  0.000E+00  0.000E+00  0.000E+00  4.46072E+01  1.640E-01  2.000E+01  2.000E+04 -1.364E-01
   1   16   10     1    10    1.2461E+05 -2.7566E+03   1.2737E+05  0.000E+00  0.000E+00  0.000E+00  4.41321E+01  1.662E-01  2.000E+01  2.000E+04 -1.378E-01
   1   16   11     1    11    1.2737E+05 -2.7314E+03   1.3010E+05  0.000E+00  0.000E+00  0.000E+00  4.36570E+01  1.683E-01  2.000E+01  2.000E+04 -1.366E-01
   1   16   12     1    12    1.3010E+05 -3.4768E+03   1.3358E+05  0.000E+00  0.000E+00  0.000E+00  4.31821E+01  1.707E-01  2.000E+01  2.000E+04 -1.738E-01
   1   15   13     1    13    1.3358E+05 -3.2860E+03   1.3686E+05  0.000E+00  0.000E+00  0.000E+00  4.27075E+01  1.734E-01  2.000E+01  2.000E+04 -1.643E-01
   1   14   14     1    14    1.3686E+05 -3.3924E+03   1.4026E+05  0.000E+00  0.000E+00  0.000E+00  4.22327E+01  1.759E-01  2.000E+01  2.000E+04 -1.696E-01
   1   13   15     1    15    1.4026E+05 -3.7310E+03   1.4399E+05  0.000E+00  0.000E+00  0.000E+00  4.17582E+01  1.786E-01  2.000E+01  2.000E+04 -1.866E-01
   1   12   16     1    16    1.4399E+05 -4.9426E+03   1.4893E+05  0.000E+00  0.000E+00  0.000E+00  4.12841E+01  1.819E-01  2.000E+01  2.000E+04 -2.471E-01
   1   12   17     1    17    1.4893E+05 -3.0937E+03   1.5202E+05  0.000E+00  0.000E+00  0.000E+00  4.08098E+01  1.848E-01  2.000E+01  2.000E+04 -1.547E-01
   1   12   18     1    18    1.5202E+05 -2.8860E+03   1.5491E+05  0.000E+00  0.000E+00  0.000E+00  4.03348E+01  1.870E-01  2.000E+01  2.000E+04 -1.443E-01
   1   12   19     1    19    1.5491E+05 -3.6731E+03   1.5858E+05  0.000E+00  0.000E+00  0.000E+00  3.98599E+01  1.894E-01  2.000E+01  2.000E+04 -1.837E-01
   1   13   20     1    20    1.5858E+05 -2.1241E+03   1.6071E+05  0.000E+00  0.000E+00  0.000E+00  3.93847E+01  1.915E-01  2.000E+01  2.000E+04 -1.062E-01
   1   14   21     1    21    1.6071E+05 -1.1831E+03   1.6189E+05  0.000E+00  0.000E+00  0.000E+00  3.89086E+01  1.927E-01  2.000E+01  2.000E+04 -5.916E-02
   1   14   22     1    22    1.6189E+05  5.3696E+03   1.5652E+05  0.000E+00  0.000E+00  0.000E+00  3.84298E+01  1.912E-01  2.000E+01  2.000E+04  2.685E-01
   1    9   30     2     1    5.0000E+04 -1.0097E+03   5.1010E+04  0.000E+00  0.000E+00  0.000E+00  4.02416E+01  1.166E-01  2.000E+01  2.000E+04 -5.048E-02
   1    9   29     2     2    5.1010E+04 -1.1498E+03   5.2159E+04  0.000E+00  0.000E+00  0.000E+00  3.99931E+01  1.181E-01  2.000E+01  2.000E+04 -5.749E-02
   1    9   28     2     3    5.2159E+04 -1.1252E+03   5.3285E+04  0.000E+00  0.000E+00  0.000E+00  3.97446E+01  1.196E-01  2.000E+01  2.000E+04 -5.626E-02
   1    9   27     2     4    5.3285E+04 -2.0980E+03   5.5383E+04  0.000E+00  0.000E+00  0.000E+00  3.94968E+01  1.218E-01  2.000E+01  2.000E+04 -1.049E-01
   1   10   26     2     5    5.5383E+04 -1.5306E+03   5.6913E+04  0.000E+00  0.000E+00  0.000E+00  3.92492E+01  1.242E-01  2.000E+01  2.000E+04 -7.653E-02
   1   11   25     2     6    5.6913E+04 -1.3803E+03   5.8293E+04  0.000E+00  0.000E+00  0.000E+00  3.90011E+01  1.261E-01  2.000E+01  2.000E+04 -6.901E-02
   1   12   24     2     7    5.8293E+04 -1.0666E+03   5.9360E+04  0.000E+00  0.000E+00  0.000E+00  3.87527E+01  1.277E-01  2.000E+01  2.000E+04 -5.333E-02
   1   13   23     2     8    5.9360E+04 -6.1345E+02   5.9974E+04  0.000E+00  0.000E+00  0.000E+00  3.85038E+01  1.288E-01  2.000E+01  2.000E+04 -3.067E-02
   1   14   22     2     9    5.9974E+04  1.8335E+03   5.8140E+04  0.000E+00  0.000E+00  0.000E+00  3.82530E+01  1.280E-01  2.000E+01  2.000E+04  9.168E-02
   1   14   22     3     1    2.1466E+05 -8.2759E+03   2.2294E+05  0.000E+00  0.000E+00  0.000E+00  3.77476E+01  1.920E-01  2.000E+01  2.000E+04 -4.138E-01
   1   15   23     3     2    2.2294E+05 -1.4169E+03   2.2435E+05  0.000E+00  0.000E+00  0.000E+00  3.68612E+01  1.946E-01  2.000E+01  2.000E+04 -7.085E-02
   1   15   24     3     3    2.2435E+05 -9.6555E+02   2.2532E+05  0.000E+00  0.000E+00  0.000E+00  3.59730E+01  1.952E-01  2.000E+01  2.000E+04 -4.828E-02
   1   15   25     3     4    2.2532E+05 -9.2625E+02   2.2624E+05  0.000E+00  0.000E+00  0.000E+00  3.50846E+01  1.957E-01  2.000E+01  2.000E+04 -4.631E-02
   1   15   26     3     5    2.2624E+05 -1.4409E+03   2.2769E+05  0.000E+00  0.000E+00  0.000E+00  3.41963E+01  1.963E-01  2.000E+01  2.000E+04 -7.205E-02
   1   16   27     3     6    2.2769E+05 -1.2505E+03   2.2894E+05  0.000E+00  0.000E+00  0.000E+00  3.33081E+01  1.970E-01  2.000E+01  2.000E+04 -6.253E-02
   1   17   28     3     7    2.2894E+05 -9.9443E+02   2.2993E+05  0.000E+00  0.000E+00  0.000E+00  3.24198E+01  1.976E-01  2.000E+01  2.000E+04 -4.972E-02
   1   18   29     3     8    2.2993E+05 -1.1104E+03   2.3104E+05  0.000E+00  0.000E+00  0.000E+00  3.15314E+01  1.981E-01  2.000E+01  2.000E+04 -5.552E-02
   1   18   30     3     9    2.3104E+05 -2.2997E+03   2.3334E+05  0.000E+00  0.000E+00  0.000E+00  3.06434E+01  1.990E-01  2.000E+01  2.000E+04 -1.150E-01



1
              HEAD IN LAYER   1 AT END OF TIME STEP   1 IN STRESS PERIOD   11
  ---------------------------------------------------------------------------

          1      2      3      4      5      6      7      8      9     10
         11     12     13     14     15     16     17     18     19     20
         21     22     23     24     25     26     27     28     29     30
 .........................................................................
   1  ****** ****** ****** ****** ****** ****** ****** ****** ****** ******
      ****** ****** ****** ****** ****** ****** ****** ****** ****** ******
      ****** ****** ****** ****** ****** ****** ****** ****** ****** ******
   2  ****** ****** ****** ****** ****** ****** ****** ****** ****** ******
      ****** ****** ****** ****** ****** ****** ****** ****** ****** ******
      ****** ****** ****** ****** ****** ****** ****** ****** ****** ******
   3  ****** ****** ****** ****** ****** ****** ****** ****** ****** ******
      ****** ****** ****** ****** ****** ****** ****** ****** ****** ******
      ****** ****** ****** ****** ****** ****** ****** ****** ****** ******
   4  ****** ****** ****** ****** ****** ****** ****** ****** ****** ******
      ****** ****** ****** ****** ****** ****** ****** ****** ****** ******
      ****** ****** ****** ****** ****** ****** ****** ****** ****** ******
   5  ****** ****** ****** ****** ****** ****** ****** ****** ****** ******
      ****** ****** ****** ****** ****** ****** ****** ****** ****** ******
      ****** ****** ****** ****** ****** ****** ****** ****** ****** ******
   6  ****** ****** ****** ****** ****** ****** ****** ****** ****** ******
      ****** ****** ****** ****** ****** ****** ****** ****** ****** ******
      ****** ****** ****** ****** ****** ****** ****** ****** ****** ******
   7  ****** ****** ****** ****** ****** ****** ****** ****** ****** ******
      ****** ****** ****** ****** ****** ****** ****** ****** ****** ******
      ****** ****** ****** ****** ****** ****** ****** ****** ****** ******
   8  ****** ****** ****** ****** ****** ****** ****** ****** ****** ******
      ****** ****** ****** ****** ****** ****** ****** ****** ****** ******
      ****** ****** ****** ****** ****** ****** ****** ****** ****** ******
   9  ****** ****** ****** ****** ****** ****** ****** ****** ****** ******
      ****** ****** ****** ****** ****** ****** ****** ****** ****** ******
      ****** ****** ****** ****** ****** ****** ****** ****** ****** ******
  10  ****** ****** ****** ****** ****** ****** ****** ****** ****** ******
      ****** ****** ****** ****** ****** ****** ****** ****** ****** ******
      ****** ****** ****** ****** ****** ****** ****** ****** ****** ******
  11  ****** ****** ****** ****** ****** ****** ****** ****** ****** ******
      ****** ****** ****** ****** ****** ****** ****** ****** ****** ******
      ****** ****** ****** ****** ****** ****** ****** ****** ****** ******
  12  ****** ****** ****** ****** ****** ****** ****** ****** ****** ******
      ****** ****** ****** ****** ****** ****** ****** ****** ****** ******
      ****** ****** ****** ****** ****** ****** ****** ****** ****** ******
  13  ****** ****** ****** ****** ****** ****** ****** ****** ****** ******
      ****** ****** ****** ****** ****** ****** ****** ****** ****** ******
      ****** ****** ****** ****** ****** ****** ****** ****** ****** ******
  14  ****** ****** ****** ****** ****** ****** ****** ****** ****** ******
      ****** ****** ****** ****** ****** ****** ****** ****** ****** ******
      ****** ****** ****** ****** ****** ****** ****** ****** ****** ******
  15  ****** ****** ****** ****** ****** ****** ****** ****** ****** ******
      ****** ****** ****** ****** ****** ****** ****** ****** ****** ******
      ****** ****** ****** ****** ****** ****** ****** ****** ****** ******
  16  ****** ****** ****** ****** ****** ****** ****** ****** ****** ******
      ****** ****** ****** ****** ****** ****** ****** ****** ****** ******
      ****** ****** ****** ****** ****** ****** ****** ****** ****** ******
  17  ****** ****** ****** ****** ****** ****** ****** ****** ****** ******
      ****** ****** ****** ****** ****** ****** ****** ****** ****** ******
      ****** ****** ****** ****** ****** ****** ****** ****** ****** ******
  18  ****** ****** ****** ****** ****** ****** ****** ****** ****** ******
      ****** ****** ****** ****** ****** ****** ****** ****** ****** ******
      ****** ****** ****** ****** ****** ****** ****** ****** ****** ******
  19  ****** ****** ****** ****** ****** ****** ****** ****** ****** ******
      ****** ****** ****** ****** ****** ****** ****** ****** ****** ******
      ****** ****** ****** ****** ****** ****** ****** ****** ****** ******
  20  ****** ****** ****** ****** ****** ****** ****** ****** ****** ******
      ****** ****** ****** ****** ****** ****** ****** ****** ****** ******
      ****** ****** ****** ****** ****** ****** ****** ****** ****** ******
  21  ****** ****** ****** ****** ****** ****** ****** ****** ****** ******
      ****** ****** ****** ****** ****** ****** ****** ****** ****** ******
      ****** ****** ****** ****** ****** ****** ****** ****** ****** ******
  22  ****** ****** ****** ****** ****** ****** ****** ****** ****** ******
      ****** ****** ****** ****** ****** ****** ****** ****** ****** ******
      ****** ****** ****** ****** ****** ****** ****** ****** ****** ******
  23  ****** ****** ****** ****** ****** ****** ****** ****** ****** ******
      ****** ****** ****** ****** ****** ****** ****** ****** ****** ******
      ****** ****** ****** ****** ****** ****** ****** ****** ****** ******
  24  ****** ****** ****** ****** ****** ****** ****** ****** ****** ******
      ****** ****** ****** ****** ****** ****** ****** ****** ****** ******
      ****** ****** ****** ****** ****** ****** ****** ****** ****** ******
  25  ****** ****** ****** ****** ****** ****** ****** ****** ****** ******
      ****** ****** ****** ****** ****** ****** ****** ****** ****** ******
      ****** ****** ****** ****** ****** ****** ****** ****** ****** ******

 HEAD WILL BE SAVED ON UNIT   51 AT END OF TIME STEP    1, STRESS PERIOD   11
1
  VOLUMETRIC BUDGET FOR ENTIRE MODEL AT END OF TIME STEP    1, STRESS PERIOD  11
  ------------------------------------------------------------------------------

     CUMULATIVE VOLUMES      L**3       RATES FOR THIS TIME STEP      L**3/T
     ------------------                 ------------------------

           IN:                                      IN:
           ---                                      ---
             STORAGE =    27535697.4023               STORAGE =       11850.3204
       CONSTANT HEAD =   193018023.9784         CONSTANT HEAD =      204801.1631
               WELLS =           0.0000                 WELLS =           0.0000
            RECHARGE =    23901600.0000              RECHARGE =           0.0000
      STREAM LEAKAGE =     6899749.6196        STREAM LEAKAGE =        7203.1054

            TOTAL IN =   251355071.0003              TOTAL IN =      223854.5890

          OUT:                                     OUT:
          ----                                     ----
             STORAGE =     2234513.6062               STORAGE =           0.0000
       CONSTANT HEAD =           0.0000         CONSTANT HEAD =           0.0000
               WELLS =   133843793.0310                 WELLS =      133310.5508
            RECHARGE =           0.0000              RECHARGE =           0.0000
      STREAM LEAKAGE =   115276765.4732        STREAM LEAKAGE =       90544.0404

           TOTAL OUT =   251355072.1104             TOTAL OUT =      223854.5912

            IN - OUT =          -1.1101              IN - OUT =      -2.2151E-03

 PERCENT DISCREPANCY =          -0.00     PERCENT DISCREPANCY =          -0.00






         TIME SUMMARY AT END OF TIME STEP    1 IN STRESS PERIOD   11
                    SECONDS     MINUTES      HOURS       DAYS        YEARS
                    -----------------------------------------------------------
   TIME STEP LENGTH 7.86240E+06 1.31040E+05  2184.0      91.000     0.24914    
 STRESS PERIOD TIME 7.86240E+06 1.31040E+05  2184.0      91.000     0.24914    
         TOTAL TIME 8.67456E+07 1.44576E+06  24096.      1004.0      2.7488    
1
1
                            STRESS PERIOD NO.   12, LENGTH =   91.00000    
                            -----------------------------------------------

                              NUMBER OF TIME STEPS =     1

                               MULTIPLIER FOR DELT =     1.500

                            INITIAL TIME STEP SIZE =   91.00000    

 WELL NO.  LAYER   ROW   COL   STRESS RATE         
 --------------------------------------------------
      1      1     23     20     -0.3361E+05
      2      1     23      4     -0.3381E+05
      3      1      5     26     -0.3582E+05
      4      1     21     27     -0.3006E+05

      4 WELLS

                 RECHARGE =  1.000000E-03

 REUSING STREAM SEGMENT DATA FROM LAST STRESS PERIOD
 
 SOLVING FOR HEAD 


     6 CALLS TO PCG ROUTINE FOR TIME STEP   1 IN STRESS PERIOD   12
    23 TOTAL ITERATIONS

 OUTPUT CONTROL FOR STRESS PERIOD   12   TIME STEP    1
    SAVE BUDGET
    SAVE HEAD FOR ALL LAYERS
    PRINT HEAD FOR ALL LAYERS
 UBDSV2 SAVING "STREAMFLOW OUT  " ON UNIT  50 AT TIME STEP  1, STRESS PERIOD  12



 STREAM LISTING     PERIOD     12   STEP        1

 LAYER ROW COL. STREAM  RCH.  FLOW INTO     FLOW TO   FLOW OUT OF   OVRLND.     DIRECT     STREAM       STREAM     STREAM     STREAM   STREAMBED  STREAMBED
                SEG.NO.  NO.  STRM. RCH.    AQUIFER    STRM. RCH.    RUNOFF     PRECIP       ET          HEAD       DEPTH      WIDTH   CONDCTNC.   GRADIENT

   1   13    1     1     1    1.0000E+05 -2.5318E+03   1.0253E+05  0.000E+00  0.000E+00  0.000E+00  4.84071E+01  1.457E-01  2.000E+01  2.000E+04 -1.266E-01
   1   13    2     1     2    1.0253E+05 -4.5288E+03   1.0706E+05  0.000E+00  0.000E+00  0.000E+00  4.79329E+01  1.488E-01  2.000E+01  2.000E+04 -2.264E-01
   1   14    3     1     3    1.0706E+05 -3.2260E+03   1.1029E+05  0.000E+00  0.000E+00  0.000E+00  4.74589E+01  1.521E-01  2.000E+01  2.000E+04 -1.613E-01
   1   15    4     1     4    1.1029E+05 -2.8048E+03   1.1309E+05  0.000E+00  0.000E+00  0.000E+00  4.69841E+01  1.546E-01  2.000E+01  2.000E+04 -1.402E-01
   1   16    5     1     5    1.1309E+05 -2.5592E+03   1.1565E+05  0.000E+00  0.000E+00  0.000E+00  4.65091E+01  1.568E-01  2.000E+01  2.000E+04 -1.280E-01
   1   16    6     1     6    1.1565E+05 -2.4084E+03   1.1806E+05  0.000E+00  0.000E+00  0.000E+00  4.60338E+01  1.588E-01  2.000E+01  2.000E+04 -1.204E-01
   1   16    7     1     7    1.1806E+05 -2.6444E+03   1.2070E+05  0.000E+00  0.000E+00  0.000E+00  4.55586E+01  1.609E-01  2.000E+01  2.000E+04 -1.322E-01
   1   16    8     1     8    1.2070E+05 -2.8116E+03   1.2352E+05  0.000E+00  0.000E+00  0.000E+00  4.50835E+01  1.631E-01  2.000E+01  2.000E+04 -1.406E-01
   1   16    9     1     9    1.2352E+05 -2.9084E+03   1.2642E+05  0.000E+00  0.000E+00  0.000E+00  4.46085E+01  1.654E-01  2.000E+01  2.000E+04 -1.454E-01
   1   16   10     1    10    1.2642E+05 -2.9355E+03   1.2936E+05  0.000E+00  0.000E+00  0.000E+00  4.41336E+01  1.677E-01  2.000E+01  2.000E+04 -1.468E-01
   1   16   11     1    11    1.2936E+05 -2.9083E+03   1.3227E+05  0.000E+00  0.000E+00  0.000E+00  4.36586E+01  1.699E-01  2.000E+01  2.000E+04 -1.454E-01
   1   16   12     1    12    1.3227E+05 -3.6996E+03   1.3597E+05  0.000E+00  0.000E+00  0.000E+00  4.31839E+01  1.725E-01  2.000E+01  2.000E+04 -1.850E-01
   1   15   13     1    13    1.3597E+05 -3.5294E+03   1.3950E+05  0.000E+00  0.000E+00  0.000E+00  4.27094E+01  1.753E-01  2.000E+01  2.000E+04 -1.765E-01
   1   14   14     1    14    1.3950E+05 -3.6384E+03   1.4313E+05  0.000E+00  0.000E+00  0.000E+00  4.22348E+01  1.780E-01  2.000E+01  2.000E+04 -1.819E-01
   1   13   15     1    15    1.4313E+05 -3.9716E+03   1.4711E+05  0.000E+00  0.000E+00  0.000E+00  4.17604E+01  1.809E-01  2.000E+01  2.000E+04 -1.986E-01
   1   12   16     1    16    1.4711E+05 -5.1621E+03   1.5227E+05  0.000E+00  0.000E+00  0.000E+00  4.12865E+01  1.843E-01  2.000E+01  2.000E+04 -2.581E-01
   1   12   17     1    17    1.5227E+05 -3.2675E+03   1.5554E+05  0.000E+00  0.000E+00  0.000E+00  4.08124E+01  1.874E-01  2.000E+01  2.000E+04 -1.634E-01
   1   12   18     1    18    1.5554E+05 -3.0593E+03   1.5860E+05  0.000E+00  0.000E+00  0.000E+00  4.03374E+01  1.897E-01  2.000E+01  2.000E+04 -1.530E-01
   1   12   19     1    19    1.5860E+05 -3.8845E+03   1.6248E+05  0.000E+00  0.000E+00  0.000E+00  3.98626E+01  1.922E-01  2.000E+01  2.000E+04 -1.942E-01
   1   13   20     1    20    1.6248E+05 -2.3430E+03   1.6482E+05  0.000E+00  0.000E+00  0.000E+00  3.93876E+01  1.944E-01  2.000E+01  2.000E+04 -1.171E-01
   1   14   21     1    21    1.6482E+05 -1.3800E+03   1.6620E+05  0.000E+00  0.000E+00  0.000E+00  3.89116E+01  1.957E-01  2.000E+01  2.000E+04 -6.900E-02
   1   14   22     1    22    1.6620E+05  5.3244E+03   1.6088E+05  0.000E+00  0.000E+00  0.000E+00  3.84329E+01  1.943E-01  2.000E+01  2.000E+04  2.662E-01
   1    9   30     2     1    5.0000E+04 -1.1891E+03   5.1189E+04  0.000E+00  0.000E+00  0.000E+00  4.02417E+01  1.167E-01  2.000E+01  2.000E+04 -5.945E-02
   1    9   29     2     2    5.1189E+04 -1.3274E+03   5.2517E+04  0.000E+00  0.000E+00  0.000E+00  3.99934E+01  1.184E-01  2.000E+01  2.000E+04 -6.637E-02
   1    9   28     2     3    5.2517E+04 -1.3003E+03   5.3817E+04  0.000E+00  0.000E+00  0.000E+00  3.97452E+01  1.202E-01  2.000E+01  2.000E+04 -6.502E-02
   1    9   27     2     4    5.3817E+04 -2.3186E+03   5.6135E+04  0.000E+00  0.000E+00  0.000E+00  3.94977E+01  1.227E-01  2.000E+01  2.000E+04 -1.159E-01
   1   10   26     2     5    5.6135E+04 -1.7681E+03   5.7903E+04  0.000E+00  0.000E+00  0.000E+00  3.92504E+01  1.254E-01  2.000E+01  2.000E+04 -8.840E-02
   1   11   25     2     6    5.7903E+04 -1.6113E+03   5.9515E+04  0.000E+00  0.000E+00  0.000E+00  3.90026E+01  1.276E-01  2.000E+01  2.000E+04 -8.057E-02
   1   12   24     2     7    5.9515E+04 -1.2764E+03   6.0791E+04  0.000E+00  0.000E+00  0.000E+00  3.87545E+01  1.295E-01  2.000E+01  2.000E+04 -6.382E-02
   1   13   23     2     8    6.0791E+04 -7.8376E+02   6.1575E+04  0.000E+00  0.000E+00  0.000E+00  3.85058E+01  1.308E-01  2.000E+01  2.000E+04 -3.919E-02
   1   14   22     2     9    6.1575E+04  1.7685E+03   5.9806E+04  0.000E+00  0.000E+00  0.000E+00  3.82552E+01  1.302E-01  2.000E+01  2.000E+04  8.842E-02
   1   14   22     3     1    2.2068E+05 -8.3199E+03   2.2900E+05  0.000E+00  0.000E+00  0.000E+00  3.77507E+01  1.952E-01  2.000E+01  2.000E+04 -4.160E-01
   1   15   23     3     2    2.2900E+05 -1.6015E+03   2.3061E+05  0.000E+00  0.000E+00  0.000E+00  3.68644E+01  1.977E-01  2.000E+01  2.000E+04 -8.008E-02
   1   15   24     3     3    2.3061E+05 -1.1100E+03   2.3172E+05  0.000E+00  0.000E+00  0.000E+00  3.59762E+01  1.984E-01  2.000E+01  2.000E+04 -5.550E-02
   1   15   25     3     4    2.3172E+05 -1.0754E+03   2.3279E+05  0.000E+00  0.000E+00  0.000E+00  3.50879E+01  1.990E-01  2.000E+01  2.000E+04 -5.377E-02
   1   15   26     3     5    2.3279E+05 -1.6359E+03   2.3443E+05  0.000E+00  0.000E+00  0.000E+00  3.41997E+01  1.997E-01  2.000E+01  2.000E+04 -8.180E-02
   1   16   27     3     6    2.3443E+05 -1.4850E+03   2.3591E+05  0.000E+00  0.000E+00  0.000E+00  3.33116E+01  2.005E-01  2.000E+01  2.000E+04 -7.425E-02
   1   17   28     3     7    2.3591E+05 -1.2314E+03   2.3714E+05  0.000E+00  0.000E+00  0.000E+00  3.24234E+01  2.012E-01  2.000E+01  2.000E+04 -6.157E-02
   1   18   29     3     8    2.3714E+05 -1.3270E+03   2.3847E+05  0.000E+00  0.000E+00  0.000E+00  3.15352E+01  2.019E-01  2.000E+01  2.000E+04 -6.635E-02
   1   18   30     3     9    2.3847E+05 -2.4704E+03   2.4094E+05  0.000E+00  0.000E+00  0.000E+00  3.06473E+01  2.028E-01  2.000E+01  2.000E+04 -1.235E-01



1
              HEAD IN LAYER   1 AT END OF TIME STEP   1 IN STRESS PERIOD   12
  ---------------------------------------------------------------------------

          1      2      3      4      5      6      7      8      9     10
         11     12     13     14     15     16     17     18     19     20
         21     22     23     24     25     26     27     28     29     30
 .........................................................................
   1  ****** ****** ****** ****** ****** ****** ****** ****** ****** ******
      ****** ****** ****** ****** ****** ****** ****** ****** ****** ******
      ****** ****** ****** ****** ****** ****** ****** ****** ****** ******
   2  ****** ****** ****** ****** ****** ****** ****** ****** ****** ******
      ****** ****** ****** ****** ****** ****** ****** ****** ****** ******
      ****** ****** ****** ****** ****** ****** ****** ****** ****** ******
   3  ****** ****** ****** ****** ****** ****** ****** ****** ****** ******
      ****** ****** ****** ****** ****** ****** ****** ****** ****** ******
      ****** ****** ****** ****** ****** ****** ****** ****** ****** ******
   4  ****** ****** ****** ****** ****** ****** ****** ****** ****** ******
      ****** ****** ****** ****** ****** ****** ****** ****** ****** ******
      ****** ****** ****** ****** ****** ****** ****** ****** ****** ******
   5  ****** ****** ****** ****** ****** ****** ****** ****** ****** ******
      ****** ****** ****** ****** ****** ****** ****** ****** ****** ******
      ****** ****** ****** ****** ****** ****** ****** ****** ****** ******
   6  ****** ****** ****** ****** ****** ****** ****** ****** ****** ******
      ****** ****** ****** ****** ****** ****** ****** ****** ****** ******
      ****** ****** ****** ****** ****** ****** ****** ****** ****** ******
   7  ****** ****** ****** ****** ****** ****** ****** ****** ****** ******
      ****** ****** ****** ****** ****** ****** ****** ****** ****** ******
      ****** ****** ****** ****** ****** ****** ****** ****** ****** ******
   8  ****** ****** ****** ****** ****** ****** ****** ****** ****** ******
      ****** ****** ****** ****** ****** ****** ****** ****** ****** ******
      ****** ****** ****** ****** ****** ****** ****** ****** ****** ******
   9  ****** ****** ****** ****** ****** ****** ****** ****** ****** ******
      ****** ****** ****** ****** ****** ****** ****** ****** ****** ******
      ****** ****** ****** ****** ****** ****** ****** ****** ****** ******
  10  ****** ****** ****** ****** ****** ****** ****** ****** ****** ******
      ****** ****** ****** ****** ****** ****** ****** ****** ****** ******
      ****** ****** ****** ****** ****** ****** ****** ****** ****** ******
  11  ****** ****** ****** ****** ****** ****** ****** ****** ****** ******
      ****** ****** ****** ****** ****** ****** ****** ****** ****** ******
      ****** ****** ****** ****** ****** ****** ****** ****** ****** ******
  12  ****** ****** ****** ****** ****** ****** ****** ****** ****** ******
      ****** ****** ****** ****** ****** ****** ****** ****** ****** ******
      ****** ****** ****** ****** ****** ****** ****** ****** ****** ******
  13  ****** ****** ****** ****** ****** ****** ****** ****** ****** ******
      ****** ****** ****** ****** ****** ****** ****** ****** ****** ******
      ****** ****** ****** ****** ****** ****** ****** ****** ****** ******
  14  ****** ****** ****** ****** ****** ****** ****** ****** ****** ******
      ****** ****** ****** ****** ****** ****** ****** ****** ****** ******
      ****** ****** ****** ****** ****** ****** ****** ****** ****** ******
  15  ****** ****** ****** ****** ****** ****** ****** ****** ****** ******
      ****** ****** ****** ****** ****** ****** ****** ****** ****** ******
      ****** ****** ****** ****** ****** ****** ****** ****** ****** ******
  16  ****** ****** ****** ****** ****** ****** ****** ****** ****** ******
      ****** ****** ****** ****** ****** ****** ****** ****** ****** ******
      ****** ****** ****** ****** ****** ****** ****** ****** ****** ******
  17  ****** ****** ****** ****** ****** ****** ****** ****** ****** ******
      ****** ****** ****** ****** ****** ****** ****** ****** ****** ******
      ****** ****** ****** ****** ****** ****** ****** ****** ****** ******
  18  ****** ****** ****** ****** ****** ****** ****** ****** ****** ******
      ****** ****** ****** ****** ****** ****** ****** ****** ****** ******
      ****** ****** ****** ****** ****** ****** ****** ****** ****** ******
  19  ****** ****** ****** ****** ****** ****** ****** ****** ****** ******
      ****** ****** ****** ****** ****** ****** ****** ****** ****** ******
      ****** ****** ****** ****** ****** ****** ****** ****** ****** ******
  20  ****** ****** ****** ****** ****** ****** ****** ****** ****** ******
      ****** ****** ****** ****** ****** ****** ****** ****** ****** ******
      ****** ****** ****** ****** ****** ****** ****** ****** ****** ******
  21  ****** ****** ****** ****** ****** ****** ****** ****** ****** ******
      ****** ****** ****** ****** ****** ****** ****** ****** ****** ******
      ****** ****** ****** ****** ****** ****** ****** ****** ****** ******
  22  ****** ****** ****** ****** ****** ****** ****** ****** ****** ******
      ****** ****** ****** ****** ****** ****** ****** ****** ****** ******
      ****** ****** ****** ****** ****** ****** ****** ****** ****** ******
  23  ****** ****** ****** ****** ****** ****** ****** ****** ****** ******
      ****** ****** ****** ****** ****** ****** ****** ****** ****** ******
      ****** ****** ****** ****** ****** ****** ****** ****** ****** ******
  24  ****** ****** ****** ****** ****** ****** ****** ****** ****** ******
      ****** ****** ****** ****** ****** ****** ****** ****** ****** ******
      ****** ****** ****** ****** ****** ****** ****** ****** ****** ******
  25  ****** ****** ****** ****** ****** ****** ****** ****** ****** ******
      ****** ****** ****** ****** ****** ****** ****** ****** ****** ******
      ****** ****** ****** ****** ****** ****** ****** ****** ****** ******

 HEAD WILL BE SAVED ON UNIT   51 AT END OF TIME STEP    1, STRESS PERIOD   12
1
  VOLUMETRIC BUDGET FOR ENTIRE MODEL AT END OF TIME STEP    1, STRESS PERIOD  12
  ------------------------------------------------------------------------------

     CUMULATIVE VOLUMES      L**3       RATES FOR THIS TIME STEP      L**3/T
     ------------------                 ------------------------

           IN:                                      IN:
           ---                                      ---
             STORAGE =    27535697.4023               STORAGE =           0.0000
       CONSTANT HEAD =   211253073.8504         CONSTANT HEAD =      200385.1634
               WELLS =           0.0000                 WELLS =           0.0000
            RECHARGE =    26413200.0000              RECHARGE =       27600.0000
      STREAM LEAKAGE =     7545205.0513        STREAM LEAKAGE =        7092.9168

            TOTAL IN =   272747176.3040              TOTAL IN =      235078.0803

          OUT:                                     OUT:
          ----                                     ----
             STORAGE =     2574273.9128               STORAGE =        3733.6297
       CONSTANT HEAD =           0.0000         CONSTANT HEAD =           0.0000
               WELLS =   145975053.1564                 WELLS =      133310.5508
            RECHARGE =           0.0000              RECHARGE =           0.0000
      STREAM LEAKAGE =   124197850.2651        STREAM LEAKAGE =       98033.8988

           TOTAL OUT =   272747177.3343             TOTAL OUT =      235078.0794

            IN - OUT =          -1.0303              IN - OUT =       8.7732E-04

 PERCENT DISCREPANCY =          -0.00     PERCENT DISCREPANCY =           0.00






         TIME SUMMARY AT END OF TIME STEP    1 IN STRESS PERIOD   12
                    SECONDS     MINUTES      HOURS       DAYS        YEARS
                    -----------------------------------------------------------
   TIME STEP LENGTH 7.86240E+06 1.31040E+05  2184.0      91.000     0.24914    
 STRESS PERIOD TIME 7.86240E+06 1.31040E+05  2184.0      91.000     0.24914    
         TOTAL TIME 9.46080E+07 1.57680E+06  26280.      1095.0      2.9979    
1

 Run end date and time (yyyy/mm/dd hh:mm:ss): 2018/10/09 16:31:32
 Elapsed run time:  0.074 Seconds

