                                  MODFLOW-2005     
      U.S. GEOLOGICAL SURVEY MODULAR FINITE-DIFFERENCE GROUND-WATER FLOW MODEL
                            VERSION 1.11.00 8/8/2013

 LIST FILE: supply2.lst
                         UNIT   10

 OPENING ..\data\supply.dis
 FILE TYPE:DIS   UNIT   11   STATUS:OLD    
 FORMAT:FORMATTED              ACCESS:SEQUENTIAL          

 OPENING ..\data\supply.ba6
 FILE TYPE:BAS6   UNIT   12   STATUS:OLD    
 FORMAT:FORMATTED              ACCESS:SEQUENTIAL          

 OPENING ..\data\supply_het.bc6
 FILE TYPE:BCF6   UNIT   13   STATUS:OLD    
 FORMAT:FORMATTED              ACCESS:SEQUENTIAL          

 OPENING ..\data\supply.rch
 FILE TYPE:RCH   UNIT   15   STATUS:OLD    
 FORMAT:FORMATTED              ACCESS:SEQUENTIAL          

 OPENING ..\data\supply2.sfr
 FILE TYPE:SFR   UNIT   16   STATUS:OLD    
 FORMAT:FORMATTED              ACCESS:SEQUENTIAL          

 OPENING ..\data\supply.oc
 FILE TYPE:OC   UNIT   17   STATUS:OLD    
 FORMAT:FORMATTED              ACCESS:SEQUENTIAL          

 OPENING ..\data\supply.pcg
 FILE TYPE:PCG   UNIT   18   STATUS:OLD    
 FORMAT:FORMATTED              ACCESS:SEQUENTIAL          

 OPENING supply2.wel
 FILE TYPE:WEL   UNIT   19   STATUS:OLD    
 FORMAT:FORMATTED              ACCESS:SEQUENTIAL          

 OPENING supply2sf.cbc
 FILE TYPE:DATA(BINARY)   UNIT   50   STATUS:UNKNOWN
 FORMAT:BINARY                 ACCESS:SEQUENTIAL          

 OPENING supply2hd.bhd
 FILE TYPE:DATA(BINARY)   UNIT   51   STATUS:UNKNOWN
 FORMAT:BINARY                 ACCESS:SEQUENTIAL          

 BAS -- BASIC PACKAGE, VERSION 7, 5/2/2005 INPUT READ FROM UNIT   12
 
 MODFLOW was compiled using uniform precision
 Precision of REAL and DOUBLE PRECISION variables:          15

 DISCRETIZATION INPUT DATA READ FROM UNIT   11
    1 LAYERS        25 ROWS        30 COLUMNS
   12 STRESS PERIOD(S) IN SIMULATION
 MODEL TIME UNIT IS DAYS
 MODEL LENGTH UNIT IS UNDEFINED
  Confining bed flag for each layer:
   0

                     DELR =   200.000    

                     DELC =   200.000    

 TOP ELEVATION OF LAYER 1 =  100.0000    

   MODEL LAYER BOTTOM EL. =   0.00000     FOR LAYER   1


 STRESS PERIOD     LENGTH       TIME STEPS     MULTIPLIER FOR DELT    SS FLAG
 ----------------------------------------------------------------------------
        1         92.00000          1                    1.500         TR
        2         91.00000          1                    1.500         TR
        3         91.00000          1                    1.500         TR
        4         91.00000          1                    1.500         TR
        5         92.00000          1                    1.500         TR
        6         91.00000          1                    1.500         TR
        7         91.00000          1                    1.500         TR
        8         91.00000          1                    1.500         TR
        9         92.00000          1                    1.500         TR
       10         91.00000          1                    1.500         TR
       11         91.00000          1                    1.500         TR
       12         91.00000          1                    1.500         TR

 TRANSIENT SIMULATION



 
 #MODOFC transient water supply sample problem                                   
 #                                                                               
 THE FREE FORMAT OPTION HAS BEEN SELECTED



                     BOUNDARY ARRAY FOR LAYER   1
 READING ON UNIT   12 WITH FORMAT: (20I4)              

 AQUIFER HEAD WILL BE SET TO   0.0000     AT ALL NO-FLOW NODES (IBOUND=0).



                       INITIAL HEAD FOR LAYER   1
 READING ON UNIT   12 WITH FORMAT: (10F13.0)           

 OUTPUT CONTROL IS SPECIFIED ONLY AT TIME STEPS FOR WHICH OUTPUT IS DESIRED
 COMPACT CELL-BY-CELL BUDGET FILES WILL BE WRITTEN
 HEAD PRINT FORMAT CODE IS  18    DRAWDOWN PRINT FORMAT CODE IS   0
 HEADS WILL BE SAVED ON UNIT   51    DRAWDOWNS WILL BE SAVED ON UNIT    0

 BCF -- BLOCK-CENTERED FLOW PACKAGE, VERSION 7, 5/2/2005
         INPUT READ FROM UNIT 13
 TRANSIENT SIMULATION
 HEAD AT CELLS THAT CONVERT TO DRY=   0.0000    
 WETTING CAPABILITY IS NOT ACTIVE
      LAYER  LAYER-TYPE CODE     INTERBLOCK T
      --------------------------------------------
         1            0          0 -- HARMONIC    

 COLUMN TO ROW ANISOTROPY =  1.000000    

     PRIMARY STORAGE COEF =  5.000000E-02 FOR LAYER   1



               TRANSMIS. ALONG ROWS FOR LAYER   1
 READING ON UNIT   13 WITH FORMAT: (FREE)              

 WEL -- WELL PACKAGE, VERSION 7, 5/2/2005 INPUT READ FROM UNIT   19
 # Well package input file written by MMProc
 No named parameters
 MAXIMUM OF      4 ACTIVE WELLS AT ONE TIME


     0 Well parameters

 RCH -- RECHARGE PACKAGE, VERSION 7, 5/2/2005 INPUT READ FROM UNIT   15
 No named parameters
 OPTION 1 -- RECHARGE TO TOP LAYER


     0 Recharge parameters

 SFR7 -- STREAMFLOW ROUTING PACKAGE, VERSION 1.0.7, 2013-01-15
         INPUT READ FROM UNIT  16
 #  Supply2 test problem for GWM-VI
 #  The eighth entry in the first data line is ISTCB2 -
 #    Setting this to a negative number indicates that
 #    streamflows out of the reach will be saved to a
 #    binary file.  The absolute value of ISTCB2 is the
 #    unit to which unformatted flows will be written.
 #
 No named parameters
 Segment information will not be 
 read by reach
 No named parameters
 No specifed inflow files


 NUMBER OF STREAM REACHES IS   40

 NUMBER OF STREAM SEGMENTS IS    3

 NUMBER OF STREAM PARAMETERS IS    0

 NUMBER OF STREAM SEGMENTS DEFINED USING PARAMETERS IS              0

 MAXIMUM ERROR FOR STREAM LEAKAGE RATES IS  1.00E-04

 CONSTANT FOR MANNINGS EQUATION IS  1.2839E+05





   STREAM NETWORK DESCRIPTION: 

   LAYER    ROW    COL   SEGMENT   REACH     LENGTH
                          NUMBER   NUMBER    IN CELL        
   --------------------------------------------------
      1     13      1       1        1    2.0000E+02
      1     13      2       1        2    2.0000E+02
      1     14      3       1        3    2.0000E+02
      1     15      4       1        4    2.0000E+02
      1     16      5       1        5    2.0000E+02
      1     16      6       1        6    2.0000E+02
      1     16      7       1        7    2.0000E+02
      1     16      8       1        8    2.0000E+02
      1     16      9       1        9    2.0000E+02
      1     16     10       1       10    2.0000E+02
      1     16     11       1       11    2.0000E+02
      1     16     12       1       12    2.0000E+02
      1     15     13       1       13    2.0000E+02
      1     14     14       1       14    2.0000E+02
      1     13     15       1       15    2.0000E+02
      1     12     16       1       16    2.0000E+02
      1     12     17       1       17    2.0000E+02
      1     12     18       1       18    2.0000E+02
      1     12     19       1       19    2.0000E+02
      1     13     20       1       20    2.0000E+02
      1     14     21       1       21    2.0000E+02
      1     14     22       1       22    2.0000E+02
      1      9     30       2        1    2.0000E+02
      1      9     29       2        2    2.0000E+02
      1      9     28       2        3    2.0000E+02
      1      9     27       2        4    2.0000E+02
      1     10     26       2        5    2.0000E+02
      1     11     25       2        6    2.0000E+02
      1     12     24       2        7    2.0000E+02
      1     13     23       2        8    2.0000E+02
      1     14     22       2        9    2.0000E+02
      1     14     22       3        1    2.0000E+02
      1     15     23       3        2    2.0000E+02
      1     15     24       3        3    2.0000E+02
      1     15     25       3        4    2.0000E+02
      1     15     26       3        5    2.0000E+02
      1     16     27       3        6    2.0000E+02
      1     17     28       3        7    2.0000E+02
      1     18     29       3        8    2.0000E+02
      1     18     30       3        9    2.0000E+02




 PCG -- CONJUGATE-GRADIENT SOLUTION PACKAGE, VERSION 7, 5/2/2005
 MAXIMUM OF    500 CALLS OF SOLUTION ROUTINE
 MAXIMUM OF      5 INTERNAL ITERATIONS PER CALL TO SOLUTION ROUTINE
 MATRIX PRECONDITIONING TYPE :    1



                                    SOLUTION BY THE CONJUGATE-GRADIENT METHOD
                                   -------------------------------------------
                    MAXIMUM NUMBER OF CALLS TO PCG ROUTINE =      500
                        MAXIMUM ITERATIONS PER CALL TO PCG =        5
                               MATRIX PRECONDITIONING TYPE =        1
        RELAXATION FACTOR (ONLY USED WITH PRECOND. TYPE 1) =    0.10000E+01
 PARAMETER OF POLYNOMIAL PRECOND. = 2 (2) OR IS CALCULATED :        0
                         HEAD CHANGE CRITERION FOR CLOSURE =    0.10000E-05
                     RESIDUAL CHANGE CRITERION FOR CLOSURE =    0.10000E+01
            PCG HEAD AND RESIDUAL CHANGE PRINTOUT INTERVAL =        1
     PRINTING FROM SOLVER IS LIMITED(1) OR SUPPRESSED (>1) =        1
                            STEADY-STATE DAMPING PARAMETER =    0.10000E+01
                               TRANSIENT DAMPING PARAMETER =    0.10000E+01
1
                            STRESS PERIOD NO.    1, LENGTH =   92.00000    
                            -----------------------------------------------

                              NUMBER OF TIME STEPS =     1

                               MULTIPLIER FOR DELT =     1.500

                            INITIAL TIME STEP SIZE =   92.00000    

 WELL NO.  LAYER   ROW   COL   STRESS RATE         
 --------------------------------------------------
      1      1     11     18     -0.1246E+05
      2      1      5     20      -7658.    
      3      1     11     16      -434.0    
      4      1     11     19      -9596.    

      4 WELLS

                 RECHARGE =  5.000000E-04



 CLASSIFICATION & COUNT OF STREAM SEGMENTS BASED ON SOURCE OF INFLOW:

                HEADWATER     DIVERSION     RECEIVES TRIBUTARY FLOW
                ---------     ---------     -----------------------
                     2              0               1



                    INPUT DATA FOR EACH STREAM SEGMENT
 ---------------------------------------------------------------------------------------------

 SEGMENT    SEG.     INFLOW   OVERLAND   STREAM    STREAM   ICALC  OUTFLOW  DIVERSION PRIORITY
    NO.    LENGTH     RATE     RUNOFF      ET       PPT.    METH.  TO SEG.  FROM SEG.    NO.

      1  4.400E+03 1.000E+05 0.000E+00 0.000E+00 0.000E+00    1        3        0        0
      2  1.800E+03 5.000E+04 0.000E+00 0.000E+00 0.000E+00    1        3        0        0
      3  1.800E+03 0.000E+00 0.000E+00 0.000E+00 0.000E+00    1        0        0        0


         STREAMBED PROPERTIES AND STREAM DIMENSIONS

 SEGMENT     BED HYD. COND.      BED THICKNESS     ELEV.-TOP OF BED     WIDTH OF STREAM     DEPTH OF STREAM    STREAM ROUGHNESS
    No.     UPPER     LOWER     UPPER     LOWER     UPPER     LOWER     UPPER     LOWER     UPPER     LOWER   CHANNEL      BANK

     1  5.000E+00 5.000E+00 1.000E+00 1.000E+00 4.850E+01 3.800E+01 2.000E+01 2.000E+01                     5.000E-02
     2  5.000E+00 5.000E+00 1.000E+00 1.000E+00 4.025E+01 3.800E+01 2.000E+01 2.000E+01                     5.000E-02
     3  5.000E+00 5.000E+00 1.000E+00 1.000E+00 3.800E+01 3.000E+01 2.000E+01 2.000E+01                     5.000E-02



 
 SOLVING FOR HEAD 


     9 CALLS TO PCG ROUTINE FOR TIME STEP   1 IN STRESS PERIOD    1
    36 TOTAL ITERATIONS

 OUTPUT CONTROL FOR STRESS PERIOD    1   TIME STEP    1
    SAVE BUDGET
    SAVE HEAD FOR ALL LAYERS
    PRINT HEAD FOR ALL LAYERS
 UBDSV2 SAVING "STREAMFLOW OUT  " ON UNIT  50 AT TIME STEP  1, STRESS PERIOD   1



 STREAM LISTING     PERIOD      1   STEP        1

 LAYER ROW COL. STREAM  RCH.  FLOW INTO     FLOW TO   FLOW OUT OF   OVRLND.     DIRECT     STREAM       STREAM     STREAM     STREAM   STREAMBED  STREAMBED
                SEG.NO.  NO.  STRM. RCH.    AQUIFER    STRM. RCH.    RUNOFF     PRECIP       ET          HEAD       DEPTH      WIDTH   CONDCTNC.   GRADIENT

   1   13    1     1     1    1.0000E+05 -6.1178E+03   1.0612E+05  0.000E+00  0.000E+00  0.000E+00  4.84087E+01  1.473E-01  2.000E+01  2.000E+04 -3.059E-01
   1   13    2     1     2    1.0612E+05 -7.5871E+03   1.1370E+05  0.000E+00  0.000E+00  0.000E+00  4.79372E+01  1.531E-01  2.000E+01  2.000E+04 -3.794E-01
   1   14    3     1     3    1.1370E+05 -2.1988E+03   1.1590E+05  0.000E+00  0.000E+00  0.000E+00  4.74640E+01  1.571E-01  2.000E+01  2.000E+04 -1.099E-01
   1   15    4     1     4    1.1590E+05 -2.2703E+03   1.1817E+05  0.000E+00  0.000E+00  0.000E+00  4.69885E+01  1.590E-01  2.000E+01  2.000E+04 -1.135E-01
   1   16    5     1     5    1.1817E+05 -7.1870E+03   1.2536E+05  0.000E+00  0.000E+00  0.000E+00  4.65151E+01  1.628E-01  2.000E+01  2.000E+04 -3.593E-01
   1   16    6     1     6    1.2536E+05 -4.3051E+03   1.2967E+05  0.000E+00  0.000E+00  0.000E+00  4.60424E+01  1.674E-01  2.000E+01  2.000E+04 -2.153E-01
   1   16    7     1     7    1.2967E+05 -4.1404E+03   1.3381E+05  0.000E+00  0.000E+00  0.000E+00  4.55684E+01  1.707E-01  2.000E+01  2.000E+04 -2.070E-01
   1   16    8     1     8    1.3381E+05 -4.1000E+03   1.3791E+05  0.000E+00  0.000E+00  0.000E+00  4.50943E+01  1.738E-01  2.000E+01  2.000E+04 -2.050E-01
   1   16    9     1     9    1.3791E+05 -4.0900E+03   1.4200E+05  0.000E+00  0.000E+00  0.000E+00  4.46202E+01  1.770E-01  2.000E+01  2.000E+04 -2.045E-01
   1   16   10     1    10    1.4200E+05 -4.0880E+03   1.4608E+05  0.000E+00  0.000E+00  0.000E+00  4.41460E+01  1.801E-01  2.000E+01  2.000E+04 -2.044E-01
   1   16   11     1    11    1.4608E+05 -4.1242E+03   1.5021E+05  0.000E+00  0.000E+00  0.000E+00  4.36718E+01  1.831E-01  2.000E+01  2.000E+04 -2.062E-01
   1   16   12     1    12    1.5021E+05 -6.9976E+03   1.5721E+05  0.000E+00  0.000E+00  0.000E+00  4.31986E+01  1.872E-01  2.000E+01  2.000E+04 -3.499E-01
   1   15   13     1    13    1.5721E+05 -7.2661E+03   1.6447E+05  0.000E+00  0.000E+00  0.000E+00  4.27265E+01  1.924E-01  2.000E+01  2.000E+04 -3.633E-01
   1   14   14     1    14    1.6447E+05 -7.6819E+03   1.7215E+05  0.000E+00  0.000E+00  0.000E+00  4.22545E+01  1.977E-01  2.000E+01  2.000E+04 -3.841E-01
   1   13   15     1    15    1.7215E+05 -7.8187E+03   1.7997E+05  0.000E+00  0.000E+00  0.000E+00  4.17827E+01  2.031E-01  2.000E+01  2.000E+04 -3.909E-01
   1   12   16     1    16    1.7997E+05 -7.4135E+03   1.8739E+05  0.000E+00  0.000E+00  0.000E+00  4.13106E+01  2.083E-01  2.000E+01  2.000E+04 -3.707E-01
   1   12   17     1    17    1.8739E+05 -3.9879E+03   1.9137E+05  0.000E+00  0.000E+00  0.000E+00  4.08372E+01  2.122E-01  2.000E+01  2.000E+04 -1.994E-01
   1   12   18     1    18    1.9137E+05 -5.8645E+02   1.9196E+05  0.000E+00  0.000E+00  0.000E+00  4.03615E+01  2.137E-01  2.000E+01  2.000E+04 -2.932E-02
   1   12   19     1    19    1.9196E+05 -1.9904E+03   1.9395E+05  0.000E+00  0.000E+00  0.000E+00  3.98850E+01  2.146E-01  2.000E+01  2.000E+04 -9.952E-02
   1   13   20     1    20    1.9395E+05 -5.7916E+03   1.9974E+05  0.000E+00  0.000E+00  0.000E+00  3.94104E+01  2.172E-01  2.000E+01  2.000E+04 -2.896E-01
   1   14   21     1    21    1.9974E+05 -6.1920E+03   2.0593E+05  0.000E+00  0.000E+00  0.000E+00  3.89370E+01  2.211E-01  2.000E+01  2.000E+04 -3.096E-01
   1   14   22     1    22    2.0593E+05  3.6537E+03   2.0228E+05  0.000E+00  0.000E+00  0.000E+00  3.84606E+01  2.219E-01  2.000E+01  2.000E+04  1.827E-01
   1    9   30     2     1    5.0000E+04 -4.7821E+03   5.4782E+04  0.000E+00  0.000E+00  0.000E+00  4.02442E+01  1.192E-01  2.000E+01  2.000E+04 -2.391E-01
   1    9   29     2     2    5.4782E+04 -5.0641E+03   5.9846E+04  0.000E+00  0.000E+00  0.000E+00  4.00008E+01  1.258E-01  2.000E+01  2.000E+04 -2.532E-01
   1    9   28     2     3    5.9846E+04 -5.3137E+03   6.5160E+04  0.000E+00  0.000E+00  0.000E+00  3.97575E+01  1.325E-01  2.000E+01  2.000E+04 -2.657E-01
   1    9   27     2     4    6.5160E+04 -7.9525E+03   7.3112E+04  0.000E+00  0.000E+00  0.000E+00  3.95157E+01  1.407E-01  2.000E+01  2.000E+04 -3.976E-01
   1   10   26     2     5    7.3112E+04 -6.9639E+03   8.0076E+04  0.000E+00  0.000E+00  0.000E+00  3.92747E+01  1.497E-01  2.000E+01  2.000E+04 -3.482E-01
   1   11   25     2     6    8.0076E+04 -6.3454E+03   8.6422E+04  0.000E+00  0.000E+00  0.000E+00  3.90323E+01  1.573E-01  2.000E+01  2.000E+04 -3.173E-01
   1   12   24     2     7    8.6422E+04 -5.7274E+03   9.2149E+04  0.000E+00  0.000E+00  0.000E+00  3.87891E+01  1.641E-01  2.000E+01  2.000E+04 -2.864E-01
   1   13   23     2     8    9.2149E+04 -1.5436E+03   9.3693E+04  0.000E+00  0.000E+00  0.000E+00  3.85431E+01  1.681E-01  2.000E+01  2.000E+04 -7.718E-02
   1   14   22     2     9    9.3693E+04  3.1641E+02   9.3376E+04  0.000E+00  0.000E+00  0.000E+00  3.82937E+01  1.687E-01  2.000E+01  2.000E+04  1.582E-02
   1   14   22     3     1    2.9566E+05 -9.8007E+03   3.0546E+05  0.000E+00  0.000E+00  0.000E+00  3.77879E+01  2.323E-01  2.000E+01  2.000E+04 -4.900E-01
   1   15   23     3     2    3.0546E+05 -1.9886E+03   3.0745E+05  0.000E+00  0.000E+00  0.000E+00  3.69017E+01  2.350E-01  2.000E+01  2.000E+04 -9.943E-02
   1   15   24     3     3    3.0745E+05 -1.5302E+03   3.0898E+05  0.000E+00  0.000E+00  0.000E+00  3.60136E+01  2.358E-01  2.000E+01  2.000E+04 -7.651E-02
   1   15   25     3     4    3.0898E+05 -1.5797E+03   3.1056E+05  0.000E+00  0.000E+00  0.000E+00  3.51254E+01  2.365E-01  2.000E+01  2.000E+04 -7.899E-02
   1   15   26     3     5    3.1056E+05 -1.8831E+03   3.1244E+05  0.000E+00  0.000E+00  0.000E+00  3.42373E+01  2.373E-01  2.000E+01  2.000E+04 -9.416E-02
   1   16   27     3     6    3.1244E+05 -2.1650E+03   3.1460E+05  0.000E+00  0.000E+00  0.000E+00  3.33494E+01  2.383E-01  2.000E+01  2.000E+04 -1.082E-01
   1   17   28     3     7    3.1460E+05 -6.5812E+03   3.2119E+05  0.000E+00  0.000E+00  0.000E+00  3.24625E+01  2.403E-01  2.000E+01  2.000E+04 -3.291E-01
   1   18   29     3     8    3.2119E+05 -7.9958E+03   3.2918E+05  0.000E+00  0.000E+00  0.000E+00  3.15769E+01  2.435E-01  2.000E+01  2.000E+04 -3.998E-01
   1   18   30     3     9    3.2918E+05 -7.1757E+03   3.3636E+05  0.000E+00  0.000E+00  0.000E+00  3.06914E+01  2.469E-01  2.000E+01  2.000E+04 -3.588E-01



1
              HEAD IN LAYER   1 AT END OF TIME STEP   1 IN STRESS PERIOD    1
  ---------------------------------------------------------------------------

          1      2      3      4      5      6      7      8      9     10
         11     12     13     14     15     16     17     18     19     20
         21     22     23     24     25     26     27     28     29     30
 .........................................................................
   1  ****** ****** ****** ****** ****** ****** ****** ****** ****** ******
      ****** ****** ****** ****** ****** ****** ****** ****** ****** ******
      ****** ****** ****** ****** ****** ****** ****** ****** ****** ******
   2  ****** ****** ****** ****** ****** ****** ****** ****** ****** ******
      ****** ****** ****** ****** ****** ****** ****** ****** ****** ******
      ****** ****** ****** ****** ****** ****** ****** ****** ****** ******
   3  ****** ****** ****** ****** ****** ****** ****** ****** ****** ******
      ****** ****** ****** ****** ****** ****** ****** ****** ****** ******
      ****** ****** ****** ****** ****** ****** ****** ****** ****** ******
   4  ****** ****** ****** ****** ****** ****** ****** ****** ****** ******
      ****** ****** ****** ****** ****** ****** ****** ****** ****** ******
      ****** ****** ****** ****** ****** ****** ****** ****** ****** ******
   5  ****** ****** ****** ****** ****** ****** ****** ****** ****** ******
      ****** ****** ****** ****** ****** ****** ****** ****** ****** ******
      ****** ****** ****** ****** ****** ****** ****** ****** ****** ******
   6  ****** ****** ****** ****** ****** ****** ****** ****** ****** ******
      ****** ****** ****** ****** ****** ****** ****** ****** ****** ******
      ****** ****** ****** ****** ****** ****** ****** ****** ****** ******
   7  ****** ****** ****** ****** ****** ****** ****** ****** ****** ******
      ****** ****** ****** ****** ****** ****** ****** ****** ****** ******
      ****** ****** ****** ****** ****** ****** ****** ****** ****** ******
   8  ****** ****** ****** ****** ****** ****** ****** ****** ****** ******
      ****** ****** ****** ****** ****** ****** ****** ****** ****** ******
      ****** ****** ****** ****** ****** ****** ****** ****** ****** ******
   9  ****** ****** ****** ****** ****** ****** ****** ****** ****** ******
      ****** ****** ****** ****** ****** ****** ****** ****** ****** ******
      ****** ****** ****** ****** ****** ****** ****** ****** ****** ******
  10  ****** ****** ****** ****** ****** ****** ****** ****** ****** ******
      ****** ****** ****** ****** ****** ****** ****** ****** ****** ******
      ****** ****** ****** ****** ****** ****** ****** ****** ****** ******
  11  ****** ****** ****** ****** ****** ****** ****** ****** ****** ******
      ****** ****** ****** ****** ****** ****** ****** ****** ****** ******
      ****** ****** ****** ****** ****** ****** ****** ****** ****** ******
  12  ****** ****** ****** ****** ****** ****** ****** ****** ****** ******
      ****** ****** ****** ****** ****** ****** ****** ****** ****** ******
      ****** ****** ****** ****** ****** ****** ****** ****** ****** ******
  13  ****** ****** ****** ****** ****** ****** ****** ****** ****** ******
      ****** ****** ****** ****** ****** ****** ****** ****** ****** ******
      ****** ****** ****** ****** ****** ****** ****** ****** ****** ******
  14  ****** ****** ****** ****** ****** ****** ****** ****** ****** ******
      ****** ****** ****** ****** ****** ****** ****** ****** ****** ******
      ****** ****** ****** ****** ****** ****** ****** ****** ****** ******
  15  ****** ****** ****** ****** ****** ****** ****** ****** ****** ******
      ****** ****** ****** ****** ****** ****** ****** ****** ****** ******
      ****** ****** ****** ****** ****** ****** ****** ****** ****** ******
  16  ****** ****** ****** ****** ****** ****** ****** ****** ****** ******
      ****** ****** ****** ****** ****** ****** ****** ****** ****** ******
      ****** ****** ****** ****** ****** ****** ****** ****** ****** ******
  17  ****** ****** ****** ****** ****** ****** ****** ****** ****** ******
      ****** ****** ****** ****** ****** ****** ****** ****** ****** ******
      ****** ****** ****** ****** ****** ****** ****** ****** ****** ******
  18  ****** ****** ****** ****** ****** ****** ****** ****** ****** ******
      ****** ****** ****** ****** ****** ****** ****** ****** ****** ******
      ****** ****** ****** ****** ****** ****** ****** ****** ****** ******
  19  ****** ****** ****** ****** ****** ****** ****** ****** ****** ******
      ****** ****** ****** ****** ****** ****** ****** ****** ****** ******
      ****** ****** ****** ****** ****** ****** ****** ****** ****** ******
  20  ****** ****** ****** ****** ****** ****** ****** ****** ****** ******
      ****** ****** ****** ****** ****** ****** ****** ****** ****** ******
      ****** ****** ****** ****** ****** ****** ****** ****** ****** ******
  21  ****** ****** ****** ****** ****** ****** ****** ****** ****** ******
      ****** ****** ****** ****** ****** ****** ****** ****** ****** ******
      ****** ****** ****** ****** ****** ****** ****** ****** ****** ******
  22  ****** ****** ****** ****** ****** ****** ****** ****** ****** ******
      ****** ****** ****** ****** ****** ****** ****** ****** ****** ******
      ****** ****** ****** ****** ****** ****** ****** ****** ****** ******
  23  ****** ****** ****** ****** ****** ****** ****** ****** ****** ******
      ****** ****** ****** ****** ****** ****** ****** ****** ****** ******
      ****** ****** ****** ****** ****** ****** ****** ****** ****** ******
  24  ****** ****** ****** ****** ****** ****** ****** ****** ****** ******
      ****** ****** ****** ****** ****** ****** ****** ****** ****** ******
      ****** ****** ****** ****** ****** ****** ****** ****** ****** ******
  25  ****** ****** ****** ****** ****** ****** ****** ****** ****** ******
      ****** ****** ****** ****** ****** ****** ****** ****** ****** ******
      ****** ****** ****** ****** ****** ****** ****** ****** ****** ******

 HEAD WILL BE SAVED ON UNIT   51 AT END OF TIME STEP    1, STRESS PERIOD    1
1
  VOLUMETRIC BUDGET FOR ENTIRE MODEL AT END OF TIME STEP    1, STRESS PERIOD   1
  ------------------------------------------------------------------------------

     CUMULATIVE VOLUMES      L**3       RATES FOR THIS TIME STEP      L**3/T
     ------------------                 ------------------------

           IN:                                      IN:
           ---                                      ---
             STORAGE =    17499477.9365               STORAGE =      190211.7167
       CONSTANT HEAD =     1149564.9312         CONSTANT HEAD =       12495.2710
               WELLS =           0.0000                 WELLS =           0.0000
            RECHARGE =     1269600.0000              RECHARGE =       13800.0000
      STREAM LEAKAGE =      365248.5178        STREAM LEAKAGE =        3970.0926

            TOTAL IN =    20283891.3855              TOTAL IN =      220477.0803

          OUT:                                     OUT:
          ----                                     ----
             STORAGE =           0.0000               STORAGE =           0.0000
       CONSTANT HEAD =           0.0000         CONSTANT HEAD =           0.0000
               WELLS =     2773772.6460                 WELLS =       30149.7027
            RECHARGE =           0.0000              RECHARGE =           0.0000
      STREAM LEAKAGE =    17510119.0303        STREAM LEAKAGE =      190327.3808

           TOTAL OUT =    20283891.6763             TOTAL OUT =      220477.0834

            IN - OUT =          -0.2908              IN - OUT =      -3.1611E-03

 PERCENT DISCREPANCY =          -0.00     PERCENT DISCREPANCY =          -0.00






         TIME SUMMARY AT END OF TIME STEP    1 IN STRESS PERIOD    1
                    SECONDS     MINUTES      HOURS       DAYS        YEARS
                    -----------------------------------------------------------
   TIME STEP LENGTH 7.94880E+06 1.32480E+05  2208.0      92.000     0.25188    
 STRESS PERIOD TIME 7.94880E+06 1.32480E+05  2208.0      92.000     0.25188    
         TOTAL TIME 7.94880E+06 1.32480E+05  2208.0      92.000     0.25188    
1
1
                            STRESS PERIOD NO.    2, LENGTH =   91.00000    
                            -----------------------------------------------

                              NUMBER OF TIME STEPS =     1

                               MULTIPLIER FOR DELT =     1.500

                            INITIAL TIME STEP SIZE =   91.00000    

 WELL NO.  LAYER   ROW   COL   STRESS RATE         
 --------------------------------------------------
      1      1     11     18     -0.1246E+05
      2      1      5     20      -7658.    
      3      1     11     16      -434.0    
      4      1     11     19      -9596.    

      4 WELLS

                 RECHARGE =  2.000000E-03

 REUSING STREAM SEGMENT DATA FROM LAST STRESS PERIOD
 
 SOLVING FOR HEAD 


     7 CALLS TO PCG ROUTINE FOR TIME STEP   1 IN STRESS PERIOD    2
    27 TOTAL ITERATIONS

 OUTPUT CONTROL FOR STRESS PERIOD    2   TIME STEP    1
    SAVE BUDGET
    SAVE HEAD FOR ALL LAYERS
    PRINT HEAD FOR ALL LAYERS
 UBDSV2 SAVING "STREAMFLOW OUT  " ON UNIT  50 AT TIME STEP  1, STRESS PERIOD   2



 STREAM LISTING     PERIOD      2   STEP        1

 LAYER ROW COL. STREAM  RCH.  FLOW INTO     FLOW TO   FLOW OUT OF   OVRLND.     DIRECT     STREAM       STREAM     STREAM     STREAM   STREAMBED  STREAMBED
                SEG.NO.  NO.  STRM. RCH.    AQUIFER    STRM. RCH.    RUNOFF     PRECIP       ET          HEAD       DEPTH      WIDTH   CONDCTNC.   GRADIENT

   1   13    1     1     1    1.0000E+05 -3.9948E+03   1.0399E+05  0.000E+00  0.000E+00  0.000E+00  4.84077E+01  1.464E-01  2.000E+01  2.000E+04 -1.997E-01
   1   13    2     1     2    1.0399E+05 -5.2560E+03   1.0925E+05  0.000E+00  0.000E+00  0.000E+00  4.79344E+01  1.503E-01  2.000E+01  2.000E+04 -2.628E-01
   1   14    3     1     3    1.0925E+05 -1.1158E+03   1.1037E+05  0.000E+00  0.000E+00  0.000E+00  4.74598E+01  1.530E-01  2.000E+01  2.000E+04 -5.579E-02
   1   15    4     1     4    1.1037E+05 -1.1442E+03   1.1151E+05  0.000E+00  0.000E+00  0.000E+00  4.69835E+01  1.539E-01  2.000E+01  2.000E+04 -5.721E-02
   1   16    5     1     5    1.1151E+05 -4.2600E+03   1.1577E+05  0.000E+00  0.000E+00  0.000E+00  4.65085E+01  1.562E-01  2.000E+01  2.000E+04 -2.130E-01
   1   16    6     1     6    1.1577E+05 -2.5120E+03   1.1828E+05  0.000E+00  0.000E+00  0.000E+00  4.60340E+01  1.590E-01  2.000E+01  2.000E+04 -1.256E-01
   1   16    7     1     7    1.1828E+05 -2.4185E+03   1.2070E+05  0.000E+00  0.000E+00  0.000E+00  4.55587E+01  1.610E-01  2.000E+01  2.000E+04 -1.209E-01
   1   16    8     1     8    1.2070E+05 -2.3904E+03   1.2309E+05  0.000E+00  0.000E+00  0.000E+00  4.50834E+01  1.629E-01  2.000E+01  2.000E+04 -1.195E-01
   1   16    9     1     9    1.2309E+05 -2.3711E+03   1.2546E+05  0.000E+00  0.000E+00  0.000E+00  4.46080E+01  1.648E-01  2.000E+01  2.000E+04 -1.186E-01
   1   16   10     1    10    1.2546E+05 -2.3484E+03   1.2781E+05  0.000E+00  0.000E+00  0.000E+00  4.41326E+01  1.667E-01  2.000E+01  2.000E+04 -1.174E-01
   1   16   11     1    11    1.2781E+05 -2.3566E+03   1.3017E+05  0.000E+00  0.000E+00  0.000E+00  4.36572E+01  1.685E-01  2.000E+01  2.000E+04 -1.178E-01
   1   16   12     1    12    1.3017E+05 -4.1282E+03   1.3430E+05  0.000E+00  0.000E+00  0.000E+00  4.31824E+01  1.711E-01  2.000E+01  2.000E+04 -2.064E-01
   1   15   13     1    13    1.3430E+05 -4.0225E+03   1.3832E+05  0.000E+00  0.000E+00  0.000E+00  4.27083E+01  1.742E-01  2.000E+01  2.000E+04 -2.011E-01
   1   14   14     1    14    1.3832E+05 -4.2861E+03   1.4260E+05  0.000E+00  0.000E+00  0.000E+00  4.22342E+01  1.774E-01  2.000E+01  2.000E+04 -2.143E-01
   1   13   15     1    15    1.4260E+05 -4.3680E+03   1.4697E+05  0.000E+00  0.000E+00  0.000E+00  4.17602E+01  1.806E-01  2.000E+01  2.000E+04 -2.184E-01
   1   12   16     1    16    1.4697E+05 -3.9749E+03   1.5095E+05  0.000E+00  0.000E+00  0.000E+00  4.12860E+01  1.837E-01  2.000E+01  2.000E+04 -1.987E-01
   1   12   17     1    17    1.5095E+05 -1.2287E+03   1.5218E+05  0.000E+00  0.000E+00  0.000E+00  4.08106E+01  1.856E-01  2.000E+01  2.000E+04 -6.144E-02
   1   12   18     1    18    1.5218E+05  2.2468E+03   1.4993E+05  0.000E+00  0.000E+00  0.000E+00  4.03330E+01  1.853E-01  2.000E+01  2.000E+04  1.123E-01
   1   12   19     1    19    1.4993E+05  1.5962E+03   1.4833E+05  0.000E+00  0.000E+00  0.000E+00  3.98543E+01  1.839E-01  2.000E+01  2.000E+04  7.981E-02
   1   13   20     1    20    1.4833E+05 -2.5126E+03   1.5085E+05  0.000E+00  0.000E+00  0.000E+00  3.93774E+01  1.842E-01  2.000E+01  2.000E+04 -1.256E-01
   1   14   21     1    21    1.5085E+05 -3.4482E+03   1.5429E+05  0.000E+00  0.000E+00  0.000E+00  3.89023E+01  1.864E-01  2.000E+01  2.000E+04 -1.724E-01
   1   14   22     1    22    1.5429E+05  4.4180E+03   1.4988E+05  0.000E+00  0.000E+00  0.000E+00  3.84247E+01  1.860E-01  2.000E+01  2.000E+04  2.209E-01
   1    9   30     2     1    5.0000E+04 -2.0068E+03   5.2007E+04  0.000E+00  0.000E+00  0.000E+00  4.02423E+01  1.173E-01  2.000E+01  2.000E+04 -1.003E-01
   1    9   29     2     2    5.2007E+04 -2.2949E+03   5.4302E+04  0.000E+00  0.000E+00  0.000E+00  3.99952E+01  1.202E-01  2.000E+01  2.000E+04 -1.147E-01
   1    9   28     2     3    5.4302E+04 -2.5426E+03   5.6844E+04  0.000E+00  0.000E+00  0.000E+00  3.97484E+01  1.234E-01  2.000E+01  2.000E+04 -1.271E-01
   1    9   27     2     4    5.6844E+04 -4.2917E+03   6.1136E+04  0.000E+00  0.000E+00  0.000E+00  3.95029E+01  1.279E-01  2.000E+01  2.000E+04 -2.146E-01
   1   10   26     2     5    6.1136E+04 -3.1813E+03   6.4317E+04  0.000E+00  0.000E+00  0.000E+00  3.92578E+01  1.328E-01  2.000E+01  2.000E+04 -1.591E-01
   1   11   25     2     6    6.4317E+04 -2.7149E+03   6.7032E+04  0.000E+00  0.000E+00  0.000E+00  3.90115E+01  1.365E-01  2.000E+01  2.000E+04 -1.357E-01
   1   12   24     2     7    6.7032E+04 -2.4352E+03   6.9467E+04  0.000E+00  0.000E+00  0.000E+00  3.87646E+01  1.396E-01  2.000E+01  2.000E+04 -1.218E-01
   1   13   23     2     8    6.9467E+04 -4.6726E+02   6.9935E+04  0.000E+00  0.000E+00  0.000E+00  3.85164E+01  1.414E-01  2.000E+01  2.000E+04 -2.336E-02
   1   14   22     2     9    6.9935E+04  1.2437E+03   6.8691E+04  0.000E+00  0.000E+00  0.000E+00  3.82659E+01  1.409E-01  2.000E+01  2.000E+04  6.218E-02
   1   14   22     3     1    2.1857E+05 -9.0788E+03   2.2765E+05  0.000E+00  0.000E+00  0.000E+00  3.77498E+01  1.943E-01  2.000E+01  2.000E+04 -4.539E-01
   1   15   23     3     2    2.2765E+05 -1.0545E+03   2.2870E+05  0.000E+00  0.000E+00  0.000E+00  3.68636E+01  1.969E-01  2.000E+01  2.000E+04 -5.272E-02
   1   15   24     3     3    2.2870E+05 -6.6549E+02   2.2937E+05  0.000E+00  0.000E+00  0.000E+00  3.59751E+01  1.974E-01  2.000E+01  2.000E+04 -3.327E-02
   1   15   25     3     4    2.2937E+05 -6.7153E+02   2.3004E+05  0.000E+00  0.000E+00  0.000E+00  3.50866E+01  1.977E-01  2.000E+01  2.000E+04 -3.358E-02
   1   15   26     3     5    2.3004E+05 -7.7316E+02   2.3081E+05  0.000E+00  0.000E+00  0.000E+00  3.41981E+01  1.981E-01  2.000E+01  2.000E+04 -3.866E-02
   1   16   27     3     6    2.3081E+05 -8.9903E+02   2.3171E+05  0.000E+00  0.000E+00  0.000E+00  3.33096E+01  1.985E-01  2.000E+01  2.000E+04 -4.495E-02
   1   17   28     3     7    2.3171E+05 -3.2600E+03   2.3497E+05  0.000E+00  0.000E+00  0.000E+00  3.24218E+01  1.996E-01  2.000E+01  2.000E+04 -1.630E-01
   1   18   29     3     8    2.3497E+05 -5.0588E+03   2.4003E+05  0.000E+00  0.000E+00  0.000E+00  3.15350E+01  2.017E-01  2.000E+01  2.000E+04 -2.529E-01
   1   18   30     3     9    2.4003E+05 -4.6865E+03   2.4471E+05  0.000E+00  0.000E+00  0.000E+00  3.06486E+01  2.042E-01  2.000E+01  2.000E+04 -2.343E-01



1
              HEAD IN LAYER   1 AT END OF TIME STEP   1 IN STRESS PERIOD    2
  ---------------------------------------------------------------------------

          1      2      3      4      5      6      7      8      9     10
         11     12     13     14     15     16     17     18     19     20
         21     22     23     24     25     26     27     28     29     30
 .........................................................................
   1  ****** ****** ****** ****** ****** ****** ****** ****** ****** ******
      ****** ****** ****** ****** ****** ****** ****** ****** ****** ******
      ****** ****** ****** ****** ****** ****** ****** ****** ****** ******
   2  ****** ****** ****** ****** ****** ****** ****** ****** ****** ******
      ****** ****** ****** ****** ****** ****** ****** ****** ****** ******
      ****** ****** ****** ****** ****** ****** ****** ****** ****** ******
   3  ****** ****** ****** ****** ****** ****** ****** ****** ****** ******
      ****** ****** ****** ****** ****** ****** ****** ****** ****** ******
      ****** ****** ****** ****** ****** ****** ****** ****** ****** ******
   4  ****** ****** ****** ****** ****** ****** ****** ****** ****** ******
      ****** ****** ****** ****** ****** ****** ****** ****** ****** ******
      ****** ****** ****** ****** ****** ****** ****** ****** ****** ******
   5  ****** ****** ****** ****** ****** ****** ****** ****** ****** ******
      ****** ****** ****** ****** ****** ****** ****** ****** ****** ******
      ****** ****** ****** ****** ****** ****** ****** ****** ****** ******
   6  ****** ****** ****** ****** ****** ****** ****** ****** ****** ******
      ****** ****** ****** ****** ****** ****** ****** ****** ****** ******
      ****** ****** ****** ****** ****** ****** ****** ****** ****** ******
   7  ****** ****** ****** ****** ****** ****** ****** ****** ****** ******
      ****** ****** ****** ****** ****** ****** ****** ****** ****** ******
      ****** ****** ****** ****** ****** ****** ****** ****** ****** ******
   8  ****** ****** ****** ****** ****** ****** ****** ****** ****** ******
      ****** ****** ****** ****** ****** ****** ****** ****** ****** ******
      ****** ****** ****** ****** ****** ****** ****** ****** ****** ******
   9  ****** ****** ****** ****** ****** ****** ****** ****** ****** ******
      ****** ****** ****** ****** ****** ****** ****** ****** ****** ******
      ****** ****** ****** ****** ****** ****** ****** ****** ****** ******
  10  ****** ****** ****** ****** ****** ****** ****** ****** ****** ******
      ****** ****** ****** ****** ****** ****** ****** ****** ****** ******
      ****** ****** ****** ****** ****** ****** ****** ****** ****** ******
  11  ****** ****** ****** ****** ****** ****** ****** ****** ****** ******
      ****** ****** ****** ****** ****** ****** ****** ****** ****** ******
      ****** ****** ****** ****** ****** ****** ****** ****** ****** ******
  12  ****** ****** ****** ****** ****** ****** ****** ****** ****** ******
      ****** ****** ****** ****** ****** ****** ****** ****** ****** ******
      ****** ****** ****** ****** ****** ****** ****** ****** ****** ******
  13  ****** ****** ****** ****** ****** ****** ****** ****** ****** ******
      ****** ****** ****** ****** ****** ****** ****** ****** ****** ******
      ****** ****** ****** ****** ****** ****** ****** ****** ****** ******
  14  ****** ****** ****** ****** ****** ****** ****** ****** ****** ******
      ****** ****** ****** ****** ****** ****** ****** ****** ****** ******
      ****** ****** ****** ****** ****** ****** ****** ****** ****** ******
  15  ****** ****** ****** ****** ****** ****** ****** ****** ****** ******
      ****** ****** ****** ****** ****** ****** ****** ****** ****** ******
      ****** ****** ****** ****** ****** ****** ****** ****** ****** ******
  16  ****** ****** ****** ****** ****** ****** ****** ****** ****** ******
      ****** ****** ****** ****** ****** ****** ****** ****** ****** ******
      ****** ****** ****** ****** ****** ****** ****** ****** ****** ******
  17  ****** ****** ****** ****** ****** ****** ****** ****** ****** ******
      ****** ****** ****** ****** ****** ****** ****** ****** ****** ******
      ****** ****** ****** ****** ****** ****** ****** ****** ****** ******
  18  ****** ****** ****** ****** ****** ****** ****** ****** ****** ******
      ****** ****** ****** ****** ****** ****** ****** ****** ****** ******
      ****** ****** ****** ****** ****** ****** ****** ****** ****** ******
  19  ****** ****** ****** ****** ****** ****** ****** ****** ****** ******
      ****** ****** ****** ****** ****** ****** ****** ****** ****** ******
      ****** ****** ****** ****** ****** ****** ****** ****** ****** ******
  20  ****** ****** ****** ****** ****** ****** ****** ****** ****** ******
      ****** ****** ****** ****** ****** ****** ****** ****** ****** ******
      ****** ****** ****** ****** ****** ****** ****** ****** ****** ******
  21  ****** ****** ****** ****** ****** ****** ****** ****** ****** ******
      ****** ****** ****** ****** ****** ****** ****** ****** ****** ******
      ****** ****** ****** ****** ****** ****** ****** ****** ****** ******
  22  ****** ****** ****** ****** ****** ****** ****** ****** ****** ******
      ****** ****** ****** ****** ****** ****** ****** ****** ****** ******
      ****** ****** ****** ****** ****** ****** ****** ****** ****** ******
  23  ****** ****** ****** ****** ****** ****** ****** ****** ****** ******
      ****** ****** ****** ****** ****** ****** ****** ****** ****** ******
      ****** ****** ****** ****** ****** ****** ****** ****** ****** ******
  24  ****** ****** ****** ****** ****** ****** ****** ****** ****** ******
      ****** ****** ****** ****** ****** ****** ****** ****** ****** ******
      ****** ****** ****** ****** ****** ****** ****** ****** ****** ******
  25  ****** ****** ****** ****** ****** ****** ****** ****** ****** ******
      ****** ****** ****** ****** ****** ****** ****** ****** ****** ******
      ****** ****** ****** ****** ****** ****** ****** ****** ****** ******

 HEAD WILL BE SAVED ON UNIT   51 AT END OF TIME STEP    1, STRESS PERIOD    2
1
  VOLUMETRIC BUDGET FOR ENTIRE MODEL AT END OF TIME STEP    1, STRESS PERIOD   2
  ------------------------------------------------------------------------------

     CUMULATIVE VOLUMES      L**3       RATES FOR THIS TIME STEP      L**3/T
     ------------------                 ------------------------

           IN:                                      IN:
           ---                                      ---
             STORAGE =    22297496.8447               STORAGE =       52725.4825
       CONSTANT HEAD =     2691013.3108         CONSTANT HEAD =       16938.9932
               WELLS =           0.0000                 WELLS =           0.0000
            RECHARGE =     6292800.0000              RECHARGE =       55200.0000
      STREAM LEAKAGE =     1230166.0390        STREAM LEAKAGE =        9504.5881

            TOTAL IN =    32511476.1946              TOTAL IN =      134369.0638

          OUT:                                     OUT:
          ----                                     ----
             STORAGE =           0.0000               STORAGE =           0.0000
       CONSTANT HEAD =           0.0000         CONSTANT HEAD =           0.0000
               WELLS =     5517395.5894                 WELLS =       30149.7027
            RECHARGE =           0.0000              RECHARGE =           0.0000
      STREAM LEAKAGE =    26994081.8332        STREAM LEAKAGE =      104219.3715

           TOTAL OUT =    32511477.4226             TOTAL OUT =      134369.0741

            IN - OUT =          -1.2280              IN - OUT =      -1.0299E-02

 PERCENT DISCREPANCY =          -0.00     PERCENT DISCREPANCY =          -0.00






         TIME SUMMARY AT END OF TIME STEP    1 IN STRESS PERIOD    2
                    SECONDS     MINUTES      HOURS       DAYS        YEARS
                    -----------------------------------------------------------
   TIME STEP LENGTH 7.86240E+06 1.31040E+05  2184.0      91.000     0.24914    
 STRESS PERIOD TIME 7.86240E+06 1.31040E+05  2184.0      91.000     0.24914    
         TOTAL TIME 1.58112E+07 2.63520E+05  4392.0      183.00     0.50103    
1
1
                            STRESS PERIOD NO.    3, LENGTH =   91.00000    
                            -----------------------------------------------

                              NUMBER OF TIME STEPS =     1

                               MULTIPLIER FOR DELT =     1.500

                            INITIAL TIME STEP SIZE =   91.00000    

 WELL NO.  LAYER   ROW   COL   STRESS RATE         
 --------------------------------------------------
      1      1     11     18     -0.1246E+05
      2      1      5     20      -7658.    
      3      1     11     16      -434.0    
      4      1     11     19      -9596.    

      4 WELLS

                 RECHARGE =   0.00000    

 REUSING STREAM SEGMENT DATA FROM LAST STRESS PERIOD
 
 SOLVING FOR HEAD 


     7 CALLS TO PCG ROUTINE FOR TIME STEP   1 IN STRESS PERIOD    3
    27 TOTAL ITERATIONS

 OUTPUT CONTROL FOR STRESS PERIOD    3   TIME STEP    1
    SAVE BUDGET
    SAVE HEAD FOR ALL LAYERS
    PRINT HEAD FOR ALL LAYERS
 UBDSV2 SAVING "STREAMFLOW OUT  " ON UNIT  50 AT TIME STEP  1, STRESS PERIOD   3



 STREAM LISTING     PERIOD      3   STEP        1

 LAYER ROW COL. STREAM  RCH.  FLOW INTO     FLOW TO   FLOW OUT OF   OVRLND.     DIRECT     STREAM       STREAM     STREAM     STREAM   STREAMBED  STREAMBED
                SEG.NO.  NO.  STRM. RCH.    AQUIFER    STRM. RCH.    RUNOFF     PRECIP       ET          HEAD       DEPTH      WIDTH   CONDCTNC.   GRADIENT

   1   13    1     1     1    1.0000E+05 -2.7384E+03   1.0274E+05  0.000E+00  0.000E+00  0.000E+00  4.84072E+01  1.458E-01  2.000E+01  2.000E+04 -1.369E-01
   1   13    2     1     2    1.0274E+05 -3.8454E+03   1.0658E+05  0.000E+00  0.000E+00  0.000E+00  4.79328E+01  1.487E-01  2.000E+01  2.000E+04 -1.923E-01
   1   14    3     1     3    1.0658E+05 -6.5480E+02   1.0724E+05  0.000E+00  0.000E+00  0.000E+00  4.74574E+01  1.506E-01  2.000E+01  2.000E+04 -3.274E-02
   1   15    4     1     4    1.0724E+05 -6.3948E+02   1.0788E+05  0.000E+00  0.000E+00  0.000E+00  4.69807E+01  1.511E-01  2.000E+01  2.000E+04 -3.197E-02
   1   16    5     1     5    1.0788E+05 -2.4713E+03   1.1035E+05  0.000E+00  0.000E+00  0.000E+00  4.65047E+01  1.524E-01  2.000E+01  2.000E+04 -1.236E-01
   1   16    6     1     6    1.1035E+05 -1.5127E+03   1.1186E+05  0.000E+00  0.000E+00  0.000E+00  4.60291E+01  1.541E-01  2.000E+01  2.000E+04 -7.564E-02
   1   16    7     1     7    1.1186E+05 -1.4775E+03   1.1334E+05  0.000E+00  0.000E+00  0.000E+00  4.55531E+01  1.553E-01  2.000E+01  2.000E+04 -7.387E-02
   1   16    8     1     8    1.1334E+05 -1.4678E+03   1.1481E+05  0.000E+00  0.000E+00  0.000E+00  4.50770E+01  1.565E-01  2.000E+01  2.000E+04 -7.339E-02
   1   16    9     1     9    1.1481E+05 -1.4534E+03   1.1626E+05  0.000E+00  0.000E+00  0.000E+00  4.46009E+01  1.577E-01  2.000E+01  2.000E+04 -7.267E-02
   1   16   10     1    10    1.1626E+05 -1.4319E+03   1.1769E+05  0.000E+00  0.000E+00  0.000E+00  4.41248E+01  1.589E-01  2.000E+01  2.000E+04 -7.160E-02
   1   16   11     1    11    1.1769E+05 -1.4358E+03   1.1913E+05  0.000E+00  0.000E+00  0.000E+00  4.36487E+01  1.601E-01  2.000E+01  2.000E+04 -7.179E-02
   1   16   12     1    12    1.1913E+05 -2.5273E+03   1.2166E+05  0.000E+00  0.000E+00  0.000E+00  4.31731E+01  1.617E-01  2.000E+01  2.000E+04 -1.264E-01
   1   15   13     1    13    1.2166E+05 -2.3641E+03   1.2402E+05  0.000E+00  0.000E+00  0.000E+00  4.26977E+01  1.637E-01  2.000E+01  2.000E+04 -1.182E-01
   1   14   14     1    14    1.2402E+05 -2.5627E+03   1.2658E+05  0.000E+00  0.000E+00  0.000E+00  4.22224E+01  1.656E-01  2.000E+01  2.000E+04 -1.281E-01
   1   13   15     1    15    1.2658E+05 -2.6149E+03   1.2920E+05  0.000E+00  0.000E+00  0.000E+00  4.17472E+01  1.677E-01  2.000E+01  2.000E+04 -1.307E-01
   1   12   16     1    16    1.2920E+05 -2.1010E+03   1.3130E+05  0.000E+00  0.000E+00  0.000E+00  4.12718E+01  1.695E-01  2.000E+01  2.000E+04 -1.050E-01
   1   12   17     1    17    1.3130E+05  1.2107E+02   1.3118E+05  0.000E+00  0.000E+00  0.000E+00  4.07953E+01  1.703E-01  2.000E+01  2.000E+04  6.053E-03
   1   12   18     1    18    1.3118E+05  3.5807E+03   1.2760E+05  0.000E+00  0.000E+00  0.000E+00  4.03166E+01  1.688E-01  2.000E+01  2.000E+04  1.790E-01
   1   12   19     1    19    1.2760E+05  3.2942E+03   1.2430E+05  0.000E+00  0.000E+00  0.000E+00  3.98366E+01  1.661E-01  2.000E+01  2.000E+04  1.647E-01
   1   13   20     1    20    1.2430E+05 -1.0205E+03   1.2532E+05  0.000E+00  0.000E+00  0.000E+00  3.93584E+01  1.652E-01  2.000E+01  2.000E+04 -5.102E-02
   1   14   21     1    21    1.2532E+05 -1.9849E+03   1.2731E+05  0.000E+00  0.000E+00  0.000E+00  3.88823E+01  1.664E-01  2.000E+01  2.000E+04 -9.925E-02
   1   14   22     1    22    1.2731E+05  4.7710E+03   1.2254E+05  0.000E+00  0.000E+00  0.000E+00  3.84039E+01  1.653E-01  2.000E+01  2.000E+04  2.386E-01
   1    9   30     2     1    5.0000E+04 -7.7261E+02   5.0773E+04  0.000E+00  0.000E+00  0.000E+00  4.02414E+01  1.164E-01  2.000E+01  2.000E+04 -3.863E-02
   1    9   29     2     2    5.0773E+04 -1.0591E+03   5.1832E+04  0.000E+00  0.000E+00  0.000E+00  3.99927E+01  1.177E-01  2.000E+01  2.000E+04 -5.295E-02
   1    9   28     2     3    5.1832E+04 -1.2848E+03   5.3116E+04  0.000E+00  0.000E+00  0.000E+00  3.97443E+01  1.193E-01  2.000E+01  2.000E+04 -6.424E-02
   1    9   27     2     4    5.3116E+04 -2.4470E+03   5.5563E+04  0.000E+00  0.000E+00  0.000E+00  3.94968E+01  1.218E-01  2.000E+01  2.000E+04 -1.224E-01
   1   10   26     2     5    5.5563E+04 -1.4696E+03   5.7033E+04  0.000E+00  0.000E+00  0.000E+00  3.92494E+01  1.244E-01  2.000E+01  2.000E+04 -7.348E-02
   1   11   25     2     6    5.7033E+04 -1.1202E+03   5.8153E+04  0.000E+00  0.000E+00  0.000E+00  3.90011E+01  1.261E-01  2.000E+01  2.000E+04 -5.601E-02
   1   12   24     2     7    5.8153E+04 -1.0018E+03   5.9155E+04  0.000E+00  0.000E+00  0.000E+00  3.87525E+01  1.275E-01  2.000E+01  2.000E+04 -5.009E-02
   1   13   23     2     8    5.9155E+04 -1.1934E+02   5.9274E+04  0.000E+00  0.000E+00  0.000E+00  3.85032E+01  1.282E-01  2.000E+01  2.000E+04 -5.967E-03
   1   14   22     2     9    5.9274E+04  1.7358E+03   5.7539E+04  0.000E+00  0.000E+00  0.000E+00  3.82522E+01  1.272E-01  2.000E+01  2.000E+04  8.679E-02
   1   14   22     3     1    1.8008E+05 -8.7307E+03   1.8881E+05  0.000E+00  0.000E+00  0.000E+00  3.77289E+01  1.733E-01  2.000E+01  2.000E+04 -4.365E-01
   1   15   23     3     2    1.8881E+05 -6.6885E+02   1.8948E+05  0.000E+00  0.000E+00  0.000E+00  3.68426E+01  1.759E-01  2.000E+01  2.000E+04 -3.344E-02
   1   15   24     3     3    1.8948E+05 -3.4555E+02   1.8982E+05  0.000E+00  0.000E+00  0.000E+00  3.59540E+01  1.762E-01  2.000E+01  2.000E+04 -1.728E-02
   1   15   25     3     4    1.8982E+05 -3.3443E+02   1.9016E+05  0.000E+00  0.000E+00  0.000E+00  3.50653E+01  1.764E-01  2.000E+01  2.000E+04 -1.672E-02
   1   15   26     3     5    1.9016E+05 -3.7054E+02   1.9053E+05  0.000E+00  0.000E+00  0.000E+00  3.41766E+01  1.766E-01  2.000E+01  2.000E+04 -1.853E-02
   1   16   27     3     6    1.9053E+05 -4.3551E+02   1.9096E+05  0.000E+00  0.000E+00  0.000E+00  3.32879E+01  1.768E-01  2.000E+01  2.000E+04 -2.178E-02
   1   17   28     3     7    1.9096E+05 -1.8552E+03   1.9282E+05  0.000E+00  0.000E+00  0.000E+00  3.23997E+01  1.775E-01  2.000E+01  2.000E+04 -9.276E-02
   1   18   29     3     8    1.9282E+05 -3.5563E+03   1.9637E+05  0.000E+00  0.000E+00  0.000E+00  3.15123E+01  1.790E-01  2.000E+01  2.000E+04 -1.778E-01
   1   18   30     3     9    1.9637E+05 -3.5588E+03   1.9993E+05  0.000E+00  0.000E+00  0.000E+00  3.06254E+01  1.809E-01  2.000E+01  2.000E+04 -1.779E-01



1
              HEAD IN LAYER   1 AT END OF TIME STEP   1 IN STRESS PERIOD    3
  ---------------------------------------------------------------------------

          1      2      3      4      5      6      7      8      9     10
         11     12     13     14     15     16     17     18     19     20
         21     22     23     24     25     26     27     28     29     30
 .........................................................................
   1  ****** ****** ****** ****** ****** ****** ****** ****** ****** ******
      ****** ****** ****** ****** ****** ****** ****** ****** ****** ******
      ****** ****** ****** ****** ****** ****** ****** ****** ****** ******
   2  ****** ****** ****** ****** ****** ****** ****** ****** ****** ******
      ****** ****** ****** ****** ****** ****** ****** ****** ****** ******
      ****** ****** ****** ****** ****** ****** ****** ****** ****** ******
   3  ****** ****** ****** ****** ****** ****** ****** ****** ****** ******
      ****** ****** ****** ****** ****** ****** ****** ****** ****** ******
      ****** ****** ****** ****** ****** ****** ****** ****** ****** ******
   4  ****** ****** ****** ****** ****** ****** ****** ****** ****** ******
      ****** ****** ****** ****** ****** ****** ****** ****** ****** ******
      ****** ****** ****** ****** ****** ****** ****** ****** ****** ******
   5  ****** ****** ****** ****** ****** ****** ****** ****** ****** ******
      ****** ****** ****** ****** ****** ****** ****** ****** ****** ******
      ****** ****** ****** ****** ****** ****** ****** ****** ****** ******
   6  ****** ****** ****** ****** ****** ****** ****** ****** ****** ******
      ****** ****** ****** ****** ****** ****** ****** ****** ****** ******
      ****** ****** ****** ****** ****** ****** ****** ****** ****** ******
   7  ****** ****** ****** ****** ****** ****** ****** ****** ****** ******
      ****** ****** ****** ****** ****** ****** ****** ****** ****** ******
      ****** ****** ****** ****** ****** ****** ****** ****** ****** ******
   8  ****** ****** ****** ****** ****** ****** ****** ****** ****** ******
      ****** ****** ****** ****** ****** ****** ****** ****** ****** ******
      ****** ****** ****** ****** ****** ****** ****** ****** ****** ******
   9  ****** ****** ****** ****** ****** ****** ****** ****** ****** ******
      ****** ****** ****** ****** ****** ****** ****** ****** ****** ******
      ****** ****** ****** ****** ****** ****** ****** ****** ****** ******
  10  ****** ****** ****** ****** ****** ****** ****** ****** ****** ******
      ****** ****** ****** ****** ****** ****** ****** ****** ****** ******
      ****** ****** ****** ****** ****** ****** ****** ****** ****** ******
  11  ****** ****** ****** ****** ****** ****** ****** ****** ****** ******
      ****** ****** ****** ****** ****** ****** ****** ****** ****** ******
      ****** ****** ****** ****** ****** ****** ****** ****** ****** ******
  12  ****** ****** ****** ****** ****** ****** ****** ****** ****** ******
      ****** ****** ****** ****** ****** ****** ****** ****** ****** ******
      ****** ****** ****** ****** ****** ****** ****** ****** ****** ******
  13  ****** ****** ****** ****** ****** ****** ****** ****** ****** ******
      ****** ****** ****** ****** ****** ****** ****** ****** ****** ******
      ****** ****** ****** ****** ****** ****** ****** ****** ****** ******
  14  ****** ****** ****** ****** ****** ****** ****** ****** ****** ******
      ****** ****** ****** ****** ****** ****** ****** ****** ****** ******
      ****** ****** ****** ****** ****** ****** ****** ****** ****** ******
  15  ****** ****** ****** ****** ****** ****** ****** ****** ****** ******
      ****** ****** ****** ****** ****** ****** ****** ****** ****** ******
      ****** ****** ****** ****** ****** ****** ****** ****** ****** ******
  16  ****** ****** ****** ****** ****** ****** ****** ****** ****** ******
      ****** ****** ****** ****** ****** ****** ****** ****** ****** ******
      ****** ****** ****** ****** ****** ****** ****** ****** ****** ******
  17  ****** ****** ****** ****** ****** ****** ****** ****** ****** ******
      ****** ****** ****** ****** ****** ****** ****** ****** ****** ******
      ****** ****** ****** ****** ****** ****** ****** ****** ****** ******
  18  ****** ****** ****** ****** ****** ****** ****** ****** ****** ******
      ****** ****** ****** ****** ****** ****** ****** ****** ****** ******
      ****** ****** ****** ****** ****** ****** ****** ****** ****** ******
  19  ****** ****** ****** ****** ****** ****** ****** ****** ****** ******
      ****** ****** ****** ****** ****** ****** ****** ****** ****** ******
      ****** ****** ****** ****** ****** ****** ****** ****** ****** ******
  20  ****** ****** ****** ****** ****** ****** ****** ****** ****** ******
      ****** ****** ****** ****** ****** ****** ****** ****** ****** ******
      ****** ****** ****** ****** ****** ****** ****** ****** ****** ******
  21  ****** ****** ****** ****** ****** ****** ****** ****** ****** ******
      ****** ****** ****** ****** ****** ****** ****** ****** ****** ******
      ****** ****** ****** ****** ****** ****** ****** ****** ****** ******
  22  ****** ****** ****** ****** ****** ****** ****** ****** ****** ******
      ****** ****** ****** ****** ****** ****** ****** ****** ****** ******
      ****** ****** ****** ****** ****** ****** ****** ****** ****** ******
  23  ****** ****** ****** ****** ****** ****** ****** ****** ****** ******
      ****** ****** ****** ****** ****** ****** ****** ****** ****** ******
      ****** ****** ****** ****** ****** ****** ****** ****** ****** ******
  24  ****** ****** ****** ****** ****** ****** ****** ****** ****** ******
      ****** ****** ****** ****** ****** ****** ****** ****** ****** ******
      ****** ****** ****** ****** ****** ****** ****** ****** ****** ******
  25  ****** ****** ****** ****** ****** ****** ****** ****** ****** ******
      ****** ****** ****** ****** ****** ****** ****** ****** ****** ******
      ****** ****** ****** ****** ****** ****** ****** ****** ****** ******

 HEAD WILL BE SAVED ON UNIT   51 AT END OF TIME STEP    1, STRESS PERIOD    3
1
  VOLUMETRIC BUDGET FOR ENTIRE MODEL AT END OF TIME STEP    1, STRESS PERIOD   3
  ------------------------------------------------------------------------------

     CUMULATIVE VOLUMES      L**3       RATES FOR THIS TIME STEP      L**3/T
     ------------------                 ------------------------

           IN:                                      IN:
           ---                                      ---
             STORAGE =    27269437.2854               STORAGE =       54636.7081
       CONSTANT HEAD =     5006444.3890         CONSTANT HEAD =       25444.2976
               WELLS =           0.0000                 WELLS =           0.0000
            RECHARGE =     6292800.0000              RECHARGE =           0.0000
      STREAM LEAKAGE =     2458925.6815        STREAM LEAKAGE =       13502.8532

            TOTAL IN =    41027607.3559              TOTAL IN =       93583.8589

          OUT:                                     OUT:
          ----                                     ----
             STORAGE =           0.0000               STORAGE =           0.0000
       CONSTANT HEAD =           0.0000         CONSTANT HEAD =           0.0000
               WELLS =     8261018.5327                 WELLS =       30149.7027
            RECHARGE =           0.0000              RECHARGE =           0.0000
      STREAM LEAKAGE =    32766590.7253        STREAM LEAKAGE =       63434.1636

           TOTAL OUT =    41027609.2581             TOTAL OUT =       93583.8663

            IN - OUT =          -1.9021              IN - OUT =      -7.4078E-03

 PERCENT DISCREPANCY =          -0.00     PERCENT DISCREPANCY =          -0.00






         TIME SUMMARY AT END OF TIME STEP    1 IN STRESS PERIOD    3
                    SECONDS     MINUTES      HOURS       DAYS        YEARS
                    -----------------------------------------------------------
   TIME STEP LENGTH 7.86240E+06 1.31040E+05  2184.0      91.000     0.24914    
 STRESS PERIOD TIME 7.86240E+06 1.31040E+05  2184.0      91.000     0.24914    
         TOTAL TIME 2.36736E+07 3.94560E+05  6576.0      274.00     0.75017    
1
1
                            STRESS PERIOD NO.    4, LENGTH =   91.00000    
                            -----------------------------------------------

                              NUMBER OF TIME STEPS =     1

                               MULTIPLIER FOR DELT =     1.500

                            INITIAL TIME STEP SIZE =   91.00000    

 WELL NO.  LAYER   ROW   COL   STRESS RATE         
 --------------------------------------------------
      1      1     11     18     -0.1246E+05
      2      1      5     20      -7658.    
      3      1     11     16      -434.0    
      4      1     11     19      -9596.    

      4 WELLS

                 RECHARGE =  1.000000E-03

 REUSING STREAM SEGMENT DATA FROM LAST STRESS PERIOD
 
 SOLVING FOR HEAD 


     6 CALLS TO PCG ROUTINE FOR TIME STEP   1 IN STRESS PERIOD    4
    23 TOTAL ITERATIONS

 OUTPUT CONTROL FOR STRESS PERIOD    4   TIME STEP    1
    SAVE BUDGET
    SAVE HEAD FOR ALL LAYERS
    PRINT HEAD FOR ALL LAYERS
 UBDSV2 SAVING "STREAMFLOW OUT  " ON UNIT  50 AT TIME STEP  1, STRESS PERIOD   4



 STREAM LISTING     PERIOD      4   STEP        1

 LAYER ROW COL. STREAM  RCH.  FLOW INTO     FLOW TO   FLOW OUT OF   OVRLND.     DIRECT     STREAM       STREAM     STREAM     STREAM   STREAMBED  STREAMBED
                SEG.NO.  NO.  STRM. RCH.    AQUIFER    STRM. RCH.    RUNOFF     PRECIP       ET          HEAD       DEPTH      WIDTH   CONDCTNC.   GRADIENT

   1   13    1     1     1    1.0000E+05 -2.4975E+03   1.0250E+05  0.000E+00  0.000E+00  0.000E+00  4.84071E+01  1.457E-01  2.000E+01  2.000E+04 -1.249E-01
   1   13    2     1     2    1.0250E+05 -3.5657E+03   1.0606E+05  0.000E+00  0.000E+00  0.000E+00  4.79324E+01  1.483E-01  2.000E+01  2.000E+04 -1.783E-01
   1   14    3     1     3    1.0606E+05 -6.2622E+02   1.0669E+05  0.000E+00  0.000E+00  0.000E+00  4.74569E+01  1.501E-01  2.000E+01  2.000E+04 -3.131E-02
   1   15    4     1     4    1.0669E+05 -6.0157E+02   1.0729E+05  0.000E+00  0.000E+00  0.000E+00  4.69802E+01  1.506E-01  2.000E+01  2.000E+04 -3.008E-02
   1   16    5     1     5    1.0729E+05 -2.1761E+03   1.0947E+05  0.000E+00  0.000E+00  0.000E+00  4.65041E+01  1.518E-01  2.000E+01  2.000E+04 -1.088E-01
   1   16    6     1     6    1.0947E+05 -1.3681E+03   1.1084E+05  0.000E+00  0.000E+00  0.000E+00  4.60283E+01  1.533E-01  2.000E+01  2.000E+04 -6.841E-02
   1   16    7     1     7    1.1084E+05 -1.3443E+03   1.1218E+05  0.000E+00  0.000E+00  0.000E+00  4.55521E+01  1.544E-01  2.000E+01  2.000E+04 -6.722E-02
   1   16    8     1     8    1.1218E+05 -1.3393E+03   1.1352E+05  0.000E+00  0.000E+00  0.000E+00  4.50760E+01  1.555E-01  2.000E+01  2.000E+04 -6.697E-02
   1   16    9     1     9    1.1352E+05 -1.3285E+03   1.1485E+05  0.000E+00  0.000E+00  0.000E+00  4.45998E+01  1.566E-01  2.000E+01  2.000E+04 -6.642E-02
   1   16   10     1    10    1.1485E+05 -1.3115E+03   1.1616E+05  0.000E+00  0.000E+00  0.000E+00  4.41236E+01  1.577E-01  2.000E+01  2.000E+04 -6.558E-02
   1   16   11     1    11    1.1616E+05 -1.3172E+03   1.1748E+05  0.000E+00  0.000E+00  0.000E+00  4.36474E+01  1.588E-01  2.000E+01  2.000E+04 -6.586E-02
   1   16   12     1    12    1.1748E+05 -2.2760E+03   1.1975E+05  0.000E+00  0.000E+00  0.000E+00  4.31716E+01  1.603E-01  2.000E+01  2.000E+04 -1.138E-01
   1   15   13     1    13    1.1975E+05 -2.1206E+03   1.2187E+05  0.000E+00  0.000E+00  0.000E+00  4.26961E+01  1.620E-01  2.000E+01  2.000E+04 -1.060E-01
   1   14   14     1    14    1.2187E+05 -2.2877E+03   1.2416E+05  0.000E+00  0.000E+00  0.000E+00  4.22206E+01  1.638E-01  2.000E+01  2.000E+04 -1.144E-01
   1   13   15     1    15    1.2416E+05 -2.3031E+03   1.2646E+05  0.000E+00  0.000E+00  0.000E+00  4.17452E+01  1.656E-01  2.000E+01  2.000E+04 -1.152E-01
   1   12   16     1    16    1.2646E+05 -1.6671E+03   1.2813E+05  0.000E+00  0.000E+00  0.000E+00  4.12695E+01  1.672E-01  2.000E+01  2.000E+04 -8.336E-02
   1   12   17     1    17    1.2813E+05  3.7951E+02   1.2775E+05  0.000E+00  0.000E+00  0.000E+00  4.07927E+01  1.677E-01  2.000E+01  2.000E+04  1.898E-02
   1   12   18     1    18    1.2775E+05  3.8221E+03   1.2393E+05  0.000E+00  0.000E+00  0.000E+00  4.03138E+01  1.660E-01  2.000E+01  2.000E+04  1.911E-01
   1   12   19     1    19    1.2393E+05  3.6035E+03   1.2033E+05  0.000E+00  0.000E+00  0.000E+00  3.98335E+01  1.631E-01  2.000E+01  2.000E+04  1.802E-01
   1   13   20     1    20    1.2033E+05 -8.4004E+02   1.2117E+05  0.000E+00  0.000E+00  0.000E+00  3.93552E+01  1.620E-01  2.000E+01  2.000E+04 -4.200E-02
   1   14   21     1    21    1.2117E+05 -1.7699E+03   1.2294E+05  0.000E+00  0.000E+00  0.000E+00  3.88789E+01  1.630E-01  2.000E+01  2.000E+04 -8.849E-02
   1   14   22     1    22    1.2294E+05  4.8045E+03   1.1813E+05  0.000E+00  0.000E+00  0.000E+00  3.84004E+01  1.618E-01  2.000E+01  2.000E+04  2.402E-01
   1    9   30     2     1    5.0000E+04 -6.6624E+02   5.0666E+04  0.000E+00  0.000E+00  0.000E+00  4.02413E+01  1.163E-01  2.000E+01  2.000E+04 -3.331E-02
   1    9   29     2     2    5.0666E+04 -9.4420E+02   5.1610E+04  0.000E+00  0.000E+00  0.000E+00  3.99924E+01  1.174E-01  2.000E+01  2.000E+04 -4.721E-02
   1    9   28     2     3    5.1610E+04 -1.1458E+03   5.2756E+04  0.000E+00  0.000E+00  0.000E+00  3.97439E+01  1.189E-01  2.000E+01  2.000E+04 -5.729E-02
   1    9   27     2     4    5.2756E+04 -2.1324E+03   5.4889E+04  0.000E+00  0.000E+00  0.000E+00  3.94961E+01  1.211E-01  2.000E+01  2.000E+04 -1.066E-01
   1   10   26     2     5    5.4889E+04 -1.2760E+03   5.6165E+04  0.000E+00  0.000E+00  0.000E+00  3.92484E+01  1.234E-01  2.000E+01  2.000E+04 -6.380E-02
   1   11   25     2     6    5.6165E+04 -9.7061E+02   5.7135E+04  0.000E+00  0.000E+00  0.000E+00  3.89999E+01  1.249E-01  2.000E+01  2.000E+04 -4.853E-02
   1   12   24     2     7    5.7135E+04 -8.7086E+02   5.8006E+04  0.000E+00  0.000E+00  0.000E+00  3.87511E+01  1.261E-01  2.000E+01  2.000E+04 -4.354E-02
   1   13   23     2     8    5.8006E+04 -1.4001E+02   5.8146E+04  0.000E+00  0.000E+00  0.000E+00  3.85018E+01  1.268E-01  2.000E+01  2.000E+04 -7.001E-03
   1   14   22     2     9    5.8146E+04  1.8090E+03   5.6337E+04  0.000E+00  0.000E+00  0.000E+00  3.82507E+01  1.257E-01  2.000E+01  2.000E+04  9.045E-02
   1   14   22     3     1    1.7447E+05 -8.6909E+03   1.8316E+05  0.000E+00  0.000E+00  0.000E+00  3.77257E+01  1.701E-01  2.000E+01  2.000E+04 -4.345E-01
   1   15   23     3     2    1.8316E+05 -6.5041E+02   1.8381E+05  0.000E+00  0.000E+00  0.000E+00  3.68394E+01  1.728E-01  2.000E+01  2.000E+04 -3.252E-02
   1   15   24     3     3    1.8381E+05 -3.4723E+02   1.8416E+05  0.000E+00  0.000E+00  0.000E+00  3.59508E+01  1.730E-01  2.000E+01  2.000E+04 -1.736E-02
   1   15   25     3     4    1.8416E+05 -3.3553E+02   1.8449E+05  0.000E+00  0.000E+00  0.000E+00  3.50621E+01  1.732E-01  2.000E+01  2.000E+04 -1.678E-02
   1   15   26     3     5    1.8449E+05 -3.8080E+02   1.8487E+05  0.000E+00  0.000E+00  0.000E+00  3.41734E+01  1.734E-01  2.000E+01  2.000E+04 -1.904E-02
   1   16   27     3     6    1.8487E+05 -4.3793E+02   1.8531E+05  0.000E+00  0.000E+00  0.000E+00  3.32848E+01  1.737E-01  2.000E+01  2.000E+04 -2.190E-02
   1   17   28     3     7    1.8531E+05 -1.7993E+03   1.8711E+05  0.000E+00  0.000E+00  0.000E+00  3.23965E+01  1.743E-01  2.000E+01  2.000E+04 -8.996E-02
   1   18   29     3     8    1.8711E+05 -3.3553E+03   1.9047E+05  0.000E+00  0.000E+00  0.000E+00  3.15091E+01  1.757E-01  2.000E+01  2.000E+04 -1.678E-01
   1   18   30     3     9    1.9047E+05 -3.4608E+03   1.9393E+05  0.000E+00  0.000E+00  0.000E+00  3.06221E+01  1.776E-01  2.000E+01  2.000E+04 -1.730E-01



1
              HEAD IN LAYER   1 AT END OF TIME STEP   1 IN STRESS PERIOD    4
  ---------------------------------------------------------------------------

          1      2      3      4      5      6      7      8      9     10
         11     12     13     14     15     16     17     18     19     20
         21     22     23     24     25     26     27     28     29     30
 .........................................................................
   1  ****** ****** ****** ****** ****** ****** ****** ****** ****** ******
      ****** ****** ****** ****** ****** ****** ****** ****** ****** ******
      ****** ****** ****** ****** ****** ****** ****** ****** ****** ******
   2  ****** ****** ****** ****** ****** ****** ****** ****** ****** ******
      ****** ****** ****** ****** ****** ****** ****** ****** ****** ******
      ****** ****** ****** ****** ****** ****** ****** ****** ****** ******
   3  ****** ****** ****** ****** ****** ****** ****** ****** ****** ******
      ****** ****** ****** ****** ****** ****** ****** ****** ****** ******
      ****** ****** ****** ****** ****** ****** ****** ****** ****** ******
   4  ****** ****** ****** ****** ****** ****** ****** ****** ****** ******
      ****** ****** ****** ****** ****** ****** ****** ****** ****** ******
      ****** ****** ****** ****** ****** ****** ****** ****** ****** ******
   5  ****** ****** ****** ****** ****** ****** ****** ****** ****** ******
      ****** ****** ****** ****** ****** ****** ****** ****** ****** ******
      ****** ****** ****** ****** ****** ****** ****** ****** ****** ******
   6  ****** ****** ****** ****** ****** ****** ****** ****** ****** ******
      ****** ****** ****** ****** ****** ****** ****** ****** ****** ******
      ****** ****** ****** ****** ****** ****** ****** ****** ****** ******
   7  ****** ****** ****** ****** ****** ****** ****** ****** ****** ******
      ****** ****** ****** ****** ****** ****** ****** ****** ****** ******
      ****** ****** ****** ****** ****** ****** ****** ****** ****** ******
   8  ****** ****** ****** ****** ****** ****** ****** ****** ****** ******
      ****** ****** ****** ****** ****** ****** ****** ****** ****** ******
      ****** ****** ****** ****** ****** ****** ****** ****** ****** ******
   9  ****** ****** ****** ****** ****** ****** ****** ****** ****** ******
      ****** ****** ****** ****** ****** ****** ****** ****** ****** ******
      ****** ****** ****** ****** ****** ****** ****** ****** ****** ******
  10  ****** ****** ****** ****** ****** ****** ****** ****** ****** ******
      ****** ****** ****** ****** ****** ****** ****** ****** ****** ******
      ****** ****** ****** ****** ****** ****** ****** ****** ****** ******
  11  ****** ****** ****** ****** ****** ****** ****** ****** ****** ******
      ****** ****** ****** ****** ****** ****** ****** ****** ****** ******
      ****** ****** ****** ****** ****** ****** ****** ****** ****** ******
  12  ****** ****** ****** ****** ****** ****** ****** ****** ****** ******
      ****** ****** ****** ****** ****** ****** ****** ****** ****** ******
      ****** ****** ****** ****** ****** ****** ****** ****** ****** ******
  13  ****** ****** ****** ****** ****** ****** ****** ****** ****** ******
      ****** ****** ****** ****** ****** ****** ****** ****** ****** ******
      ****** ****** ****** ****** ****** ****** ****** ****** ****** ******
  14  ****** ****** ****** ****** ****** ****** ****** ****** ****** ******
      ****** ****** ****** ****** ****** ****** ****** ****** ****** ******
      ****** ****** ****** ****** ****** ****** ****** ****** ****** ******
  15  ****** ****** ****** ****** ****** ****** ****** ****** ****** ******
      ****** ****** ****** ****** ****** ****** ****** ****** ****** ******
      ****** ****** ****** ****** ****** ****** ****** ****** ****** ******
  16  ****** ****** ****** ****** ****** ****** ****** ****** ****** ******
      ****** ****** ****** ****** ****** ****** ****** ****** ****** ******
      ****** ****** ****** ****** ****** ****** ****** ****** ****** ******
  17  ****** ****** ****** ****** ****** ****** ****** ****** ****** ******
      ****** ****** ****** ****** ****** ****** ****** ****** ****** ******
      ****** ****** ****** ****** ****** ****** ****** ****** ****** ******
  18  ****** ****** ****** ****** ****** ****** ****** ****** ****** ******
      ****** ****** ****** ****** ****** ****** ****** ****** ****** ******
      ****** ****** ****** ****** ****** ****** ****** ****** ****** ******
  19  ****** ****** ****** ****** ****** ****** ****** ****** ****** ******
      ****** ****** ****** ****** ****** ****** ****** ****** ****** ******
      ****** ****** ****** ****** ****** ****** ****** ****** ****** ******
  20  ****** ****** ****** ****** ****** ****** ****** ****** ****** ******
      ****** ****** ****** ****** ****** ****** ****** ****** ****** ******
      ****** ****** ****** ****** ****** ****** ****** ****** ****** ******
  21  ****** ****** ****** ****** ****** ****** ****** ****** ****** ******
      ****** ****** ****** ****** ****** ****** ****** ****** ****** ******
      ****** ****** ****** ****** ****** ****** ****** ****** ****** ******
  22  ****** ****** ****** ****** ****** ****** ****** ****** ****** ******
      ****** ****** ****** ****** ****** ****** ****** ****** ****** ******
      ****** ****** ****** ****** ****** ****** ****** ****** ****** ******
  23  ****** ****** ****** ****** ****** ****** ****** ****** ****** ******
      ****** ****** ****** ****** ****** ****** ****** ****** ****** ******
      ****** ****** ****** ****** ****** ****** ****** ****** ****** ******
  24  ****** ****** ****** ****** ****** ****** ****** ****** ****** ******
      ****** ****** ****** ****** ****** ****** ****** ****** ****** ******
      ****** ****** ****** ****** ****** ****** ****** ****** ****** ******
  25  ****** ****** ****** ****** ****** ****** ****** ****** ****** ******
      ****** ****** ****** ****** ****** ****** ****** ****** ****** ******
      ****** ****** ****** ****** ****** ****** ****** ****** ****** ******

 HEAD WILL BE SAVED ON UNIT   51 AT END OF TIME STEP    1, STRESS PERIOD    4
1
  VOLUMETRIC BUDGET FOR ENTIRE MODEL AT END OF TIME STEP    1, STRESS PERIOD   4
  ------------------------------------------------------------------------------

     CUMULATIVE VOLUMES      L**3       RATES FOR THIS TIME STEP      L**3/T
     ------------------                 ------------------------

           IN:                                      IN:
           ---                                      ---
             STORAGE =    28949240.8411               STORAGE =       18459.3797
       CONSTANT HEAD =     7557121.8859         CONSTANT HEAD =       28029.4230
               WELLS =           0.0000                 WELLS =           0.0000
            RECHARGE =     8804400.0000              RECHARGE =       27600.0000
      STREAM LEAKAGE =     3771024.3392        STREAM LEAKAGE =       14418.6666

            TOTAL IN =    49081787.0663              TOTAL IN =       88507.4693

          OUT:                                     OUT:
          ----                                     ----
             STORAGE =        1183.0877               STORAGE =          13.0010
       CONSTANT HEAD =           0.0000         CONSTANT HEAD =           0.0000
               WELLS =    11004641.4761                 WELLS =       30149.7027
            RECHARGE =           0.0000              RECHARGE =           0.0000
      STREAM LEAKAGE =    38075964.4771        STREAM LEAKAGE =       58344.7665

           TOTAL OUT =    49081789.0409             TOTAL OUT =       88507.4701

            IN - OUT =          -1.9746              IN - OUT =      -7.9659E-04

 PERCENT DISCREPANCY =          -0.00     PERCENT DISCREPANCY =          -0.00






         TIME SUMMARY AT END OF TIME STEP    1 IN STRESS PERIOD    4
                    SECONDS     MINUTES      HOURS       DAYS        YEARS
                    -----------------------------------------------------------
   TIME STEP LENGTH 7.86240E+06 1.31040E+05  2184.0      91.000     0.24914    
 STRESS PERIOD TIME 7.86240E+06 1.31040E+05  2184.0      91.000     0.24914    
         TOTAL TIME 3.15360E+07 5.25600E+05  8760.0      365.00     0.99932    
1
1
                            STRESS PERIOD NO.    5, LENGTH =   92.00000    
                            -----------------------------------------------

                              NUMBER OF TIME STEPS =     1

                               MULTIPLIER FOR DELT =     1.500

                            INITIAL TIME STEP SIZE =   92.00000    

 WELL NO.  LAYER   ROW   COL   STRESS RATE         
 --------------------------------------------------
      1      1     11     18     -0.1246E+05
      2      1      5     20      -7658.    
      3      1     11     16      -434.0    
      4      1     11     19      -9596.    

      4 WELLS

                 RECHARGE =  5.000000E-04

 REUSING STREAM SEGMENT DATA FROM LAST STRESS PERIOD
 
 SOLVING FOR HEAD 


     7 CALLS TO PCG ROUTINE FOR TIME STEP   1 IN STRESS PERIOD    5
    26 TOTAL ITERATIONS

 OUTPUT CONTROL FOR STRESS PERIOD    5   TIME STEP    1
    SAVE BUDGET
    SAVE HEAD FOR ALL LAYERS
    PRINT HEAD FOR ALL LAYERS
 UBDSV2 SAVING "STREAMFLOW OUT  " ON UNIT  50 AT TIME STEP  1, STRESS PERIOD   5



 STREAM LISTING     PERIOD      5   STEP        1

 LAYER ROW COL. STREAM  RCH.  FLOW INTO     FLOW TO   FLOW OUT OF   OVRLND.     DIRECT     STREAM       STREAM     STREAM     STREAM   STREAMBED  STREAMBED
                SEG.NO.  NO.  STRM. RCH.    AQUIFER    STRM. RCH.    RUNOFF     PRECIP       ET          HEAD       DEPTH      WIDTH   CONDCTNC.   GRADIENT

   1   13    1     1     1    1.0000E+05 -2.0772E+03   1.0208E+05  0.000E+00  0.000E+00  0.000E+00  4.84069E+01  1.456E-01  2.000E+01  2.000E+04 -1.039E-01
   1   13    2     1     2    1.0208E+05 -3.0907E+03   1.0517E+05  0.000E+00  0.000E+00  0.000E+00  4.79319E+01  1.478E-01  2.000E+01  2.000E+04 -1.545E-01
   1   14    3     1     3    1.0517E+05 -5.0377E+02   1.0567E+05  0.000E+00  0.000E+00  0.000E+00  4.74561E+01  1.493E-01  2.000E+01  2.000E+04 -2.519E-02
   1   15    4     1     4    1.0567E+05 -4.7300E+02   1.0614E+05  0.000E+00  0.000E+00  0.000E+00  4.69793E+01  1.497E-01  2.000E+01  2.000E+04 -2.365E-02
   1   16    5     1     5    1.0614E+05 -1.7502E+03   1.0789E+05  0.000E+00  0.000E+00  0.000E+00  4.65029E+01  1.507E-01  2.000E+01  2.000E+04 -8.751E-02
   1   16    6     1     6    1.0789E+05 -1.1187E+03   1.0901E+05  0.000E+00  0.000E+00  0.000E+00  4.60269E+01  1.519E-01  2.000E+01  2.000E+04 -5.593E-02
   1   16    7     1     7    1.0901E+05 -1.1053E+03   1.1012E+05  0.000E+00  0.000E+00  0.000E+00  4.55505E+01  1.528E-01  2.000E+01  2.000E+04 -5.526E-02
   1   16    8     1     8    1.1012E+05 -1.1042E+03   1.1122E+05  0.000E+00  0.000E+00  0.000E+00  4.50742E+01  1.537E-01  2.000E+01  2.000E+04 -5.521E-02
   1   16    9     1     9    1.1122E+05 -1.0967E+03   1.1232E+05  0.000E+00  0.000E+00  0.000E+00  4.45978E+01  1.546E-01  2.000E+01  2.000E+04 -5.484E-02
   1   16   10     1    10    1.1232E+05 -1.0839E+03   1.1340E+05  0.000E+00  0.000E+00  0.000E+00  4.41215E+01  1.555E-01  2.000E+01  2.000E+04 -5.420E-02
   1   16   11     1    11    1.1340E+05 -1.0904E+03   1.1449E+05  0.000E+00  0.000E+00  0.000E+00  4.36451E+01  1.564E-01  2.000E+01  2.000E+04 -5.452E-02
   1   16   12     1    12    1.1449E+05 -1.8701E+03   1.1636E+05  0.000E+00  0.000E+00  0.000E+00  4.31690E+01  1.577E-01  2.000E+01  2.000E+04 -9.350E-02
   1   15   13     1    13    1.1636E+05 -1.6857E+03   1.1805E+05  0.000E+00  0.000E+00  0.000E+00  4.26932E+01  1.591E-01  2.000E+01  2.000E+04 -8.428E-02
   1   14   14     1    14    1.1805E+05 -1.8196E+03   1.1987E+05  0.000E+00  0.000E+00  0.000E+00  4.22174E+01  1.605E-01  2.000E+01  2.000E+04 -9.098E-02
   1   13   15     1    15    1.1987E+05 -1.8112E+03   1.2168E+05  0.000E+00  0.000E+00  0.000E+00  4.17415E+01  1.620E-01  2.000E+01  2.000E+04 -9.056E-02
   1   12   16     1    16    1.2168E+05 -1.1161E+03   1.2280E+05  0.000E+00  0.000E+00  0.000E+00  4.12654E+01  1.632E-01  2.000E+01  2.000E+04 -5.581E-02
   1   12   17     1    17    1.2280E+05  7.4612E+02   1.2205E+05  0.000E+00  0.000E+00  0.000E+00  4.07883E+01  1.633E-01  2.000E+01  2.000E+04  3.731E-02
   1   12   18     1    18    1.2205E+05  4.1709E+03   1.1788E+05  0.000E+00  0.000E+00  0.000E+00  4.03091E+01  1.613E-01  2.000E+01  2.000E+04  2.085E-01
   1   12   19     1    19    1.1788E+05  4.0306E+03   1.1385E+05  0.000E+00  0.000E+00  0.000E+00  3.98285E+01  1.580E-01  2.000E+01  2.000E+04  2.015E-01
   1   13   20     1    20    1.1385E+05 -4.8174E+02   1.1433E+05  0.000E+00  0.000E+00  0.000E+00  3.93497E+01  1.566E-01  2.000E+01  2.000E+04 -2.409E-02
   1   14   21     1    21    1.1433E+05 -1.4007E+03   1.1573E+05  0.000E+00  0.000E+00  0.000E+00  3.88732E+01  1.573E-01  2.000E+01  2.000E+04 -7.003E-02
   1   14   22     1    22    1.1573E+05  4.8812E+03   1.1085E+05  0.000E+00  0.000E+00  0.000E+00  3.83945E+01  1.559E-01  2.000E+01  2.000E+04  2.441E-01
   1    9   30     2     1    5.0000E+04 -4.2581E+02   5.0426E+04  0.000E+00  0.000E+00  0.000E+00  4.02412E+01  1.162E-01  2.000E+01  2.000E+04 -2.129E-02
   1    9   29     2     2    5.0426E+04 -6.9961E+02   5.1125E+04  0.000E+00  0.000E+00  0.000E+00  3.99919E+01  1.169E-01  2.000E+01  2.000E+04 -3.498E-02
   1    9   28     2     3    5.1125E+04 -8.8772E+02   5.2013E+04  0.000E+00  0.000E+00  0.000E+00  3.97430E+01  1.180E-01  2.000E+01  2.000E+04 -4.439E-02
   1    9   27     2     4    5.2013E+04 -1.7208E+03   5.3734E+04  0.000E+00  0.000E+00  0.000E+00  3.94948E+01  1.198E-01  2.000E+01  2.000E+04 -8.604E-02
   1   10   26     2     5    5.3734E+04 -9.1901E+02   5.4653E+04  0.000E+00  0.000E+00  0.000E+00  3.92466E+01  1.216E-01  2.000E+01  2.000E+04 -4.595E-02
   1   11   25     2     6    5.4653E+04 -6.4359E+02   5.5297E+04  0.000E+00  0.000E+00  0.000E+00  3.89977E+01  1.227E-01  2.000E+01  2.000E+04 -3.218E-02
   1   12   24     2     7    5.5297E+04 -5.7163E+02   5.5868E+04  0.000E+00  0.000E+00  0.000E+00  3.87485E+01  1.235E-01  2.000E+01  2.000E+04 -2.858E-02
   1   13   23     2     8    5.5868E+04 -6.9330E+01   5.5938E+04  0.000E+00  0.000E+00  0.000E+00  3.84989E+01  1.239E-01  2.000E+01  2.000E+04 -3.466E-03
   1   14   22     2     9    5.5938E+04  1.9433E+03   5.3994E+04  0.000E+00  0.000E+00  0.000E+00  3.82476E+01  1.226E-01  2.000E+01  2.000E+04  9.717E-02
   1   14   22     3     1    1.6484E+05 -8.6076E+03   1.7345E+05  0.000E+00  0.000E+00  0.000E+00  3.77201E+01  1.645E-01  2.000E+01  2.000E+04 -4.304E-01
   1   15   23     3     2    1.7345E+05 -5.5452E+02   1.7401E+05  0.000E+00  0.000E+00  0.000E+00  3.68339E+01  1.672E-01  2.000E+01  2.000E+04 -2.773E-02
   1   15   24     3     3    1.7401E+05 -2.7636E+02   1.7428E+05  0.000E+00  0.000E+00  0.000E+00  3.59452E+01  1.674E-01  2.000E+01  2.000E+04 -1.382E-02
   1   15   25     3     4    1.7428E+05 -2.6507E+02   1.7455E+05  0.000E+00  0.000E+00  0.000E+00  3.50565E+01  1.676E-01  2.000E+01  2.000E+04 -1.325E-02
   1   15   26     3     5    1.7455E+05 -3.0921E+02   1.7486E+05  0.000E+00  0.000E+00  0.000E+00  3.41678E+01  1.678E-01  2.000E+01  2.000E+04 -1.546E-02
   1   16   27     3     6    1.7486E+05 -3.4836E+02   1.7521E+05  0.000E+00  0.000E+00  0.000E+00  3.32791E+01  1.679E-01  2.000E+01  2.000E+04 -1.742E-02
   1   17   28     3     7    1.7521E+05 -1.5348E+03   1.7674E+05  0.000E+00  0.000E+00  0.000E+00  3.23907E+01  1.685E-01  2.000E+01  2.000E+04 -7.674E-02
   1   18   29     3     8    1.7674E+05 -2.9886E+03   1.7973E+05  0.000E+00  0.000E+00  0.000E+00  3.15031E+01  1.698E-01  2.000E+01  2.000E+04 -1.494E-01
   1   18   30     3     9    1.7973E+05 -3.2077E+03   1.8294E+05  0.000E+00  0.000E+00  0.000E+00  3.06160E+01  1.715E-01  2.000E+01  2.000E+04 -1.604E-01



1
              HEAD IN LAYER   1 AT END OF TIME STEP   1 IN STRESS PERIOD    5
  ---------------------------------------------------------------------------

          1      2      3      4      5      6      7      8      9     10
         11     12     13     14     15     16     17     18     19     20
         21     22     23     24     25     26     27     28     29     30
 .........................................................................
   1  ****** ****** ****** ****** ****** ****** ****** ****** ****** ******
      ****** ****** ****** ****** ****** ****** ****** ****** ****** ******
      ****** ****** ****** ****** ****** ****** ****** ****** ****** ******
   2  ****** ****** ****** ****** ****** ****** ****** ****** ****** ******
      ****** ****** ****** ****** ****** ****** ****** ****** ****** ******
      ****** ****** ****** ****** ****** ****** ****** ****** ****** ******
   3  ****** ****** ****** ****** ****** ****** ****** ****** ****** ******
      ****** ****** ****** ****** ****** ****** ****** ****** ****** ******
      ****** ****** ****** ****** ****** ****** ****** ****** ****** ******
   4  ****** ****** ****** ****** ****** ****** ****** ****** ****** ******
      ****** ****** ****** ****** ****** ****** ****** ****** ****** ******
      ****** ****** ****** ****** ****** ****** ****** ****** ****** ******
   5  ****** ****** ****** ****** ****** ****** ****** ****** ****** ******
      ****** ****** ****** ****** ****** ****** ****** ****** ****** ******
      ****** ****** ****** ****** ****** ****** ****** ****** ****** ******
   6  ****** ****** ****** ****** ****** ****** ****** ****** ****** ******
      ****** ****** ****** ****** ****** ****** ****** ****** ****** ******
      ****** ****** ****** ****** ****** ****** ****** ****** ****** ******
   7  ****** ****** ****** ****** ****** ****** ****** ****** ****** ******
      ****** ****** ****** ****** ****** ****** ****** ****** ****** ******
      ****** ****** ****** ****** ****** ****** ****** ****** ****** ******
   8  ****** ****** ****** ****** ****** ****** ****** ****** ****** ******
      ****** ****** ****** ****** ****** ****** ****** ****** ****** ******
      ****** ****** ****** ****** ****** ****** ****** ****** ****** ******
   9  ****** ****** ****** ****** ****** ****** ****** ****** ****** ******
      ****** ****** ****** ****** ****** ****** ****** ****** ****** ******
      ****** ****** ****** ****** ****** ****** ****** ****** ****** ******
  10  ****** ****** ****** ****** ****** ****** ****** ****** ****** ******
      ****** ****** ****** ****** ****** ****** ****** ****** ****** ******
      ****** ****** ****** ****** ****** ****** ****** ****** ****** ******
  11  ****** ****** ****** ****** ****** ****** ****** ****** ****** ******
      ****** ****** ****** ****** ****** ****** ****** ****** ****** ******
      ****** ****** ****** ****** ****** ****** ****** ****** ****** ******
  12  ****** ****** ****** ****** ****** ****** ****** ****** ****** ******
      ****** ****** ****** ****** ****** ****** ****** ****** ****** ******
      ****** ****** ****** ****** ****** ****** ****** ****** ****** ******
  13  ****** ****** ****** ****** ****** ****** ****** ****** ****** ******
      ****** ****** ****** ****** ****** ****** ****** ****** ****** ******
      ****** ****** ****** ****** ****** ****** ****** ****** ****** ******
  14  ****** ****** ****** ****** ****** ****** ****** ****** ****** ******
      ****** ****** ****** ****** ****** ****** ****** ****** ****** ******
      ****** ****** ****** ****** ****** ****** ****** ****** ****** ******
  15  ****** ****** ****** ****** ****** ****** ****** ****** ****** ******
      ****** ****** ****** ****** ****** ****** ****** ****** ****** ******
      ****** ****** ****** ****** ****** ****** ****** ****** ****** ******
  16  ****** ****** ****** ****** ****** ****** ****** ****** ****** ******
      ****** ****** ****** ****** ****** ****** ****** ****** ****** ******
      ****** ****** ****** ****** ****** ****** ****** ****** ****** ******
  17  ****** ****** ****** ****** ****** ****** ****** ****** ****** ******
      ****** ****** ****** ****** ****** ****** ****** ****** ****** ******
      ****** ****** ****** ****** ****** ****** ****** ****** ****** ******
  18  ****** ****** ****** ****** ****** ****** ****** ****** ****** ******
      ****** ****** ****** ****** ****** ****** ****** ****** ****** ******
      ****** ****** ****** ****** ****** ****** ****** ****** ****** ******
  19  ****** ****** ****** ****** ****** ****** ****** ****** ****** ******
      ****** ****** ****** ****** ****** ****** ****** ****** ****** ******
      ****** ****** ****** ****** ****** ****** ****** ****** ****** ******
  20  ****** ****** ****** ****** ****** ****** ****** ****** ****** ******
      ****** ****** ****** ****** ****** ****** ****** ****** ****** ******
      ****** ****** ****** ****** ****** ****** ****** ****** ****** ******
  21  ****** ****** ****** ****** ****** ****** ****** ****** ****** ******
      ****** ****** ****** ****** ****** ****** ****** ****** ****** ******
      ****** ****** ****** ****** ****** ****** ****** ****** ****** ******
  22  ****** ****** ****** ****** ****** ****** ****** ****** ****** ******
      ****** ****** ****** ****** ****** ****** ****** ****** ****** ******
      ****** ****** ****** ****** ****** ****** ****** ****** ****** ******
  23  ****** ****** ****** ****** ****** ****** ****** ****** ****** ******
      ****** ****** ****** ****** ****** ****** ****** ****** ****** ******
      ****** ****** ****** ****** ****** ****** ****** ****** ****** ******
  24  ****** ****** ****** ****** ****** ****** ****** ****** ****** ******
      ****** ****** ****** ****** ****** ****** ****** ****** ****** ******
      ****** ****** ****** ****** ****** ****** ****** ****** ****** ******
  25  ****** ****** ****** ****** ****** ****** ****** ****** ****** ******
      ****** ****** ****** ****** ****** ****** ****** ****** ****** ******
      ****** ****** ****** ****** ****** ****** ****** ****** ****** ******

 HEAD WILL BE SAVED ON UNIT   51 AT END OF TIME STEP    1, STRESS PERIOD    5
1
  VOLUMETRIC BUDGET FOR ENTIRE MODEL AT END OF TIME STEP    1, STRESS PERIOD   5
  ------------------------------------------------------------------------------

     CUMULATIVE VOLUMES      L**3       RATES FOR THIS TIME STEP      L**3/T
     ------------------                 ------------------------

           IN:                                      IN:
           ---                                      ---
             STORAGE =    30636307.8848               STORAGE =       18337.6853
       CONSTANT HEAD =    10404415.3055         CONSTANT HEAD =       30948.8415
               WELLS =           0.0000                 WELLS =           0.0000
            RECHARGE =    10074000.0000              RECHARGE =       13800.0000
      STREAM LEAKAGE =     5222060.4844        STREAM LEAKAGE =       15772.1320

            TOTAL IN =    56336783.6746              TOTAL IN =       78858.6588

          OUT:                                     OUT:
          ----                                     ----
             STORAGE =        1183.0877               STORAGE =           0.0000
       CONSTANT HEAD =           0.0000         CONSTANT HEAD =           0.0000
               WELLS =    13778414.1221                 WELLS =       30149.7027
            RECHARGE =           0.0000              RECHARGE =           0.0000
      STREAM LEAKAGE =    42557188.7276        STREAM LEAKAGE =       48708.9592

           TOTAL OUT =    56336785.9374             TOTAL OUT =       78858.6619

            IN - OUT =          -2.2628              IN - OUT =      -3.1323E-03

 PERCENT DISCREPANCY =          -0.00     PERCENT DISCREPANCY =          -0.00






         TIME SUMMARY AT END OF TIME STEP    1 IN STRESS PERIOD    5
                    SECONDS     MINUTES      HOURS       DAYS        YEARS
                    -----------------------------------------------------------
   TIME STEP LENGTH 7.94880E+06 1.32480E+05  2208.0      92.000     0.25188    
 STRESS PERIOD TIME 7.94880E+06 1.32480E+05  2208.0      92.000     0.25188    
         TOTAL TIME 3.94848E+07 6.58080E+05  10968.      457.00      1.2512    
1
1
                            STRESS PERIOD NO.    6, LENGTH =   91.00000    
                            -----------------------------------------------

                              NUMBER OF TIME STEPS =     1

                               MULTIPLIER FOR DELT =     1.500

                            INITIAL TIME STEP SIZE =   91.00000    

 WELL NO.  LAYER   ROW   COL   STRESS RATE         
 --------------------------------------------------
      1      1     11     18     -0.1246E+05
      2      1      5     20      -7658.    
      3      1     11     16      -434.0    
      4      1     11     19      -9596.    

      4 WELLS

                 RECHARGE =  2.000000E-03

 REUSING STREAM SEGMENT DATA FROM LAST STRESS PERIOD
 
 SOLVING FOR HEAD 


     7 CALLS TO PCG ROUTINE FOR TIME STEP   1 IN STRESS PERIOD    6
    26 TOTAL ITERATIONS

 OUTPUT CONTROL FOR STRESS PERIOD    6   TIME STEP    1
    SAVE BUDGET
    SAVE HEAD FOR ALL LAYERS
    PRINT HEAD FOR ALL LAYERS
 UBDSV2 SAVING "STREAMFLOW OUT  " ON UNIT  50 AT TIME STEP  1, STRESS PERIOD   6



 STREAM LISTING     PERIOD      6   STEP        1

 LAYER ROW COL. STREAM  RCH.  FLOW INTO     FLOW TO   FLOW OUT OF   OVRLND.     DIRECT     STREAM       STREAM     STREAM     STREAM   STREAMBED  STREAMBED
                SEG.NO.  NO.  STRM. RCH.    AQUIFER    STRM. RCH.    RUNOFF     PRECIP       ET          HEAD       DEPTH      WIDTH   CONDCTNC.   GRADIENT

   1   13    1     1     1    1.0000E+05 -2.3878E+03   1.0239E+05  0.000E+00  0.000E+00  0.000E+00  4.84070E+01  1.457E-01  2.000E+01  2.000E+04 -1.194E-01
   1   13    2     1     2    1.0239E+05 -3.4306E+03   1.0582E+05  0.000E+00  0.000E+00  0.000E+00  4.79323E+01  1.482E-01  2.000E+01  2.000E+04 -1.715E-01
   1   14    3     1     3    1.0582E+05 -6.5838E+02   1.0648E+05  0.000E+00  0.000E+00  0.000E+00  4.74567E+01  1.499E-01  2.000E+01  2.000E+04 -3.292E-02
   1   15    4     1     4    1.0648E+05 -6.3937E+02   1.0712E+05  0.000E+00  0.000E+00  0.000E+00  4.69800E+01  1.505E-01  2.000E+01  2.000E+04 -3.197E-02
   1   16    5     1     5    1.0712E+05 -2.2499E+03   1.0937E+05  0.000E+00  0.000E+00  0.000E+00  4.65040E+01  1.517E-01  2.000E+01  2.000E+04 -1.125E-01
   1   16    6     1     6    1.0937E+05 -1.4115E+03   1.1078E+05  0.000E+00  0.000E+00  0.000E+00  4.60282E+01  1.532E-01  2.000E+01  2.000E+04 -7.058E-02
   1   16    7     1     7    1.1078E+05 -1.3828E+03   1.1216E+05  0.000E+00  0.000E+00  0.000E+00  4.55521E+01  1.544E-01  2.000E+01  2.000E+04 -6.914E-02
   1   16    8     1     8    1.1216E+05 -1.3773E+03   1.1354E+05  0.000E+00  0.000E+00  0.000E+00  4.50760E+01  1.555E-01  2.000E+01  2.000E+04 -6.886E-02
   1   16    9     1     9    1.1354E+05 -1.3696E+03   1.1491E+05  0.000E+00  0.000E+00  0.000E+00  4.45998E+01  1.567E-01  2.000E+01  2.000E+04 -6.848E-02
   1   16   10     1    10    1.1491E+05 -1.3588E+03   1.1627E+05  0.000E+00  0.000E+00  0.000E+00  4.41237E+01  1.578E-01  2.000E+01  2.000E+04 -6.794E-02
   1   16   11     1    11    1.1627E+05 -1.3693E+03   1.1764E+05  0.000E+00  0.000E+00  0.000E+00  4.36475E+01  1.589E-01  2.000E+01  2.000E+04 -6.847E-02
   1   16   12     1    12    1.1764E+05 -2.3211E+03   1.1996E+05  0.000E+00  0.000E+00  0.000E+00  4.31718E+01  1.604E-01  2.000E+01  2.000E+04 -1.161E-01
   1   15   13     1    13    1.1996E+05 -2.1424E+03   1.2210E+05  0.000E+00  0.000E+00  0.000E+00  4.26963E+01  1.622E-01  2.000E+01  2.000E+04 -1.071E-01
   1   14   14     1    14    1.2210E+05 -2.2683E+03   1.2437E+05  0.000E+00  0.000E+00  0.000E+00  4.22208E+01  1.640E-01  2.000E+01  2.000E+04 -1.134E-01
   1   13   15     1    15    1.2437E+05 -2.2370E+03   1.2660E+05  0.000E+00  0.000E+00  0.000E+00  4.17453E+01  1.658E-01  2.000E+01  2.000E+04 -1.119E-01
   1   12   16     1    16    1.2660E+05 -1.4889E+03   1.2809E+05  0.000E+00  0.000E+00  0.000E+00  4.12695E+01  1.672E-01  2.000E+01  2.000E+04 -7.445E-02
   1   12   17     1    17    1.2809E+05  4.3828E+02   1.2765E+05  0.000E+00  0.000E+00  0.000E+00  4.07926E+01  1.676E-01  2.000E+01  2.000E+04  2.191E-02
   1   12   18     1    18    1.2765E+05  3.8587E+03   1.2380E+05  0.000E+00  0.000E+00  0.000E+00  4.03137E+01  1.660E-01  2.000E+01  2.000E+04  1.929E-01
   1   12   19     1    19    1.2380E+05  3.6447E+03   1.2015E+05  0.000E+00  0.000E+00  0.000E+00  3.98334E+01  1.630E-01  2.000E+01  2.000E+04  1.822E-01
   1   13   20     1    20    1.2015E+05 -9.0319E+02   1.2105E+05  0.000E+00  0.000E+00  0.000E+00  3.93550E+01  1.619E-01  2.000E+01  2.000E+04 -4.516E-02
   1   14   21     1    21    1.2105E+05 -1.8186E+03   1.2287E+05  0.000E+00  0.000E+00  0.000E+00  3.88789E+01  1.630E-01  2.000E+01  2.000E+04 -9.093E-02
   1   14   22     1    22    1.2287E+05  4.7750E+03   1.1810E+05  0.000E+00  0.000E+00  0.000E+00  3.84004E+01  1.618E-01  2.000E+01  2.000E+04  2.387E-01
   1    9   30     2     1    5.0000E+04 -7.8525E+02   5.0785E+04  0.000E+00  0.000E+00  0.000E+00  4.02414E+01  1.164E-01  2.000E+01  2.000E+04 -3.926E-02
   1    9   29     2     2    5.0785E+04 -1.0544E+03   5.1840E+04  0.000E+00  0.000E+00  0.000E+00  3.99927E+01  1.177E-01  2.000E+01  2.000E+04 -5.272E-02
   1    9   28     2     3    5.1840E+04 -1.2350E+03   5.3075E+04  0.000E+00  0.000E+00  0.000E+00  3.97442E+01  1.192E-01  2.000E+01  2.000E+04 -6.175E-02
   1    9   27     2     4    5.3075E+04 -2.1563E+03   5.5231E+04  0.000E+00  0.000E+00  0.000E+00  3.94965E+01  1.215E-01  2.000E+01  2.000E+04 -1.078E-01
   1   10   26     2     5    5.5231E+04 -1.3811E+03   5.6612E+04  0.000E+00  0.000E+00  0.000E+00  3.92489E+01  1.239E-01  2.000E+01  2.000E+04 -6.905E-02
   1   11   25     2     6    5.6612E+04 -1.0920E+03   5.7704E+04  0.000E+00  0.000E+00  0.000E+00  3.90006E+01  1.256E-01  2.000E+01  2.000E+04 -5.460E-02
   1   12   24     2     7    5.7704E+04 -9.7565E+02   5.8680E+04  0.000E+00  0.000E+00  0.000E+00  3.87519E+01  1.269E-01  2.000E+01  2.000E+04 -4.878E-02
   1   13   23     2     8    5.8680E+04 -2.0633E+02   5.8886E+04  0.000E+00  0.000E+00  0.000E+00  3.85027E+01  1.277E-01  2.000E+01  2.000E+04 -1.032E-02
   1   14   22     2     9    5.8886E+04  1.7997E+03   5.7086E+04  0.000E+00  0.000E+00  0.000E+00  3.82516E+01  1.266E-01  2.000E+01  2.000E+04  8.999E-02
   1   14   22     3     1    1.7518E+05 -8.7114E+03   1.8390E+05  0.000E+00  0.000E+00  0.000E+00  3.77261E+01  1.705E-01  2.000E+01  2.000E+04 -4.356E-01
   1   15   23     3     2    1.8390E+05 -6.9375E+02   1.8459E+05  0.000E+00  0.000E+00  0.000E+00  3.68399E+01  1.732E-01  2.000E+01  2.000E+04 -3.469E-02
   1   15   24     3     3    1.8459E+05 -3.9936E+02   1.8499E+05  0.000E+00  0.000E+00  0.000E+00  3.59513E+01  1.735E-01  2.000E+01  2.000E+04 -1.997E-02
   1   15   25     3     4    1.8499E+05 -3.9240E+02   1.8538E+05  0.000E+00  0.000E+00  0.000E+00  3.50626E+01  1.737E-01  2.000E+01  2.000E+04 -1.962E-02
   1   15   26     3     5    1.8538E+05 -4.6120E+02   1.8584E+05  0.000E+00  0.000E+00  0.000E+00  3.41740E+01  1.740E-01  2.000E+01  2.000E+04 -2.306E-02
   1   16   27     3     6    1.8584E+05 -5.1817E+02   1.8636E+05  0.000E+00  0.000E+00  0.000E+00  3.32854E+01  1.742E-01  2.000E+01  2.000E+04 -2.591E-02
   1   17   28     3     7    1.8636E+05 -2.0016E+03   1.8836E+05  0.000E+00  0.000E+00  0.000E+00  3.23972E+01  1.749E-01  2.000E+01  2.000E+04 -1.001E-01
   1   18   29     3     8    1.8836E+05 -3.4370E+03   1.9180E+05  0.000E+00  0.000E+00  0.000E+00  3.15098E+01  1.765E-01  2.000E+01  2.000E+04 -1.719E-01
   1   18   30     3     9    1.9180E+05 -3.5693E+03   1.9537E+05  0.000E+00  0.000E+00  0.000E+00  3.06229E+01  1.784E-01  2.000E+01  2.000E+04 -1.785E-01



1
              HEAD IN LAYER   1 AT END OF TIME STEP   1 IN STRESS PERIOD    6
  ---------------------------------------------------------------------------

          1      2      3      4      5      6      7      8      9     10
         11     12     13     14     15     16     17     18     19     20
         21     22     23     24     25     26     27     28     29     30
 .........................................................................
   1  ****** ****** ****** ****** ****** ****** ****** ****** ****** ******
      ****** ****** ****** ****** ****** ****** ****** ****** ****** ******
      ****** ****** ****** ****** ****** ****** ****** ****** ****** ******
   2  ****** ****** ****** ****** ****** ****** ****** ****** ****** ******
      ****** ****** ****** ****** ****** ****** ****** ****** ****** ******
      ****** ****** ****** ****** ****** ****** ****** ****** ****** ******
   3  ****** ****** ****** ****** ****** ****** ****** ****** ****** ******
      ****** ****** ****** ****** ****** ****** ****** ****** ****** ******
      ****** ****** ****** ****** ****** ****** ****** ****** ****** ******
   4  ****** ****** ****** ****** ****** ****** ****** ****** ****** ******
      ****** ****** ****** ****** ****** ****** ****** ****** ****** ******
      ****** ****** ****** ****** ****** ****** ****** ****** ****** ******
   5  ****** ****** ****** ****** ****** ****** ****** ****** ****** ******
      ****** ****** ****** ****** ****** ****** ****** ****** ****** ******
      ****** ****** ****** ****** ****** ****** ****** ****** ****** ******
   6  ****** ****** ****** ****** ****** ****** ****** ****** ****** ******
      ****** ****** ****** ****** ****** ****** ****** ****** ****** ******
      ****** ****** ****** ****** ****** ****** ****** ****** ****** ******
   7  ****** ****** ****** ****** ****** ****** ****** ****** ****** ******
      ****** ****** ****** ****** ****** ****** ****** ****** ****** ******
      ****** ****** ****** ****** ****** ****** ****** ****** ****** ******
   8  ****** ****** ****** ****** ****** ****** ****** ****** ****** ******
      ****** ****** ****** ****** ****** ****** ****** ****** ****** ******
      ****** ****** ****** ****** ****** ****** ****** ****** ****** ******
   9  ****** ****** ****** ****** ****** ****** ****** ****** ****** ******
      ****** ****** ****** ****** ****** ****** ****** ****** ****** ******
      ****** ****** ****** ****** ****** ****** ****** ****** ****** ******
  10  ****** ****** ****** ****** ****** ****** ****** ****** ****** ******
      ****** ****** ****** ****** ****** ****** ****** ****** ****** ******
      ****** ****** ****** ****** ****** ****** ****** ****** ****** ******
  11  ****** ****** ****** ****** ****** ****** ****** ****** ****** ******
      ****** ****** ****** ****** ****** ****** ****** ****** ****** ******
      ****** ****** ****** ****** ****** ****** ****** ****** ****** ******
  12  ****** ****** ****** ****** ****** ****** ****** ****** ****** ******
      ****** ****** ****** ****** ****** ****** ****** ****** ****** ******
      ****** ****** ****** ****** ****** ****** ****** ****** ****** ******
  13  ****** ****** ****** ****** ****** ****** ****** ****** ****** ******
      ****** ****** ****** ****** ****** ****** ****** ****** ****** ******
      ****** ****** ****** ****** ****** ****** ****** ****** ****** ******
  14  ****** ****** ****** ****** ****** ****** ****** ****** ****** ******
      ****** ****** ****** ****** ****** ****** ****** ****** ****** ******
      ****** ****** ****** ****** ****** ****** ****** ****** ****** ******
  15  ****** ****** ****** ****** ****** ****** ****** ****** ****** ******
      ****** ****** ****** ****** ****** ****** ****** ****** ****** ******
      ****** ****** ****** ****** ****** ****** ****** ****** ****** ******
  16  ****** ****** ****** ****** ****** ****** ****** ****** ****** ******
      ****** ****** ****** ****** ****** ****** ****** ****** ****** ******
      ****** ****** ****** ****** ****** ****** ****** ****** ****** ******
  17  ****** ****** ****** ****** ****** ****** ****** ****** ****** ******
      ****** ****** ****** ****** ****** ****** ****** ****** ****** ******
      ****** ****** ****** ****** ****** ****** ****** ****** ****** ******
  18  ****** ****** ****** ****** ****** ****** ****** ****** ****** ******
      ****** ****** ****** ****** ****** ****** ****** ****** ****** ******
      ****** ****** ****** ****** ****** ****** ****** ****** ****** ******
  19  ****** ****** ****** ****** ****** ****** ****** ****** ****** ******
      ****** ****** ****** ****** ****** ****** ****** ****** ****** ******
      ****** ****** ****** ****** ****** ****** ****** ****** ****** ******
  20  ****** ****** ****** ****** ****** ****** ****** ****** ****** ******
      ****** ****** ****** ****** ****** ****** ****** ****** ****** ******
      ****** ****** ****** ****** ****** ****** ****** ****** ****** ******
  21  ****** ****** ****** ****** ****** ****** ****** ****** ****** ******
      ****** ****** ****** ****** ****** ****** ****** ****** ****** ******
      ****** ****** ****** ****** ****** ****** ****** ****** ****** ******
  22  ****** ****** ****** ****** ****** ****** ****** ****** ****** ******
      ****** ****** ****** ****** ****** ****** ****** ****** ****** ******
      ****** ****** ****** ****** ****** ****** ****** ****** ****** ******
  23  ****** ****** ****** ****** ****** ****** ****** ****** ****** ******
      ****** ****** ****** ****** ****** ****** ****** ****** ****** ******
      ****** ****** ****** ****** ****** ****** ****** ****** ****** ******
  24  ****** ****** ****** ****** ****** ****** ****** ****** ****** ******
      ****** ****** ****** ****** ****** ****** ****** ****** ****** ******
      ****** ****** ****** ****** ****** ****** ****** ****** ****** ******
  25  ****** ****** ****** ****** ****** ****** ****** ****** ****** ******
      ****** ****** ****** ****** ****** ****** ****** ****** ****** ******
      ****** ****** ****** ****** ****** ****** ****** ****** ****** ******

 HEAD WILL BE SAVED ON UNIT   51 AT END OF TIME STEP    1, STRESS PERIOD    6
1
  VOLUMETRIC BUDGET FOR ENTIRE MODEL AT END OF TIME STEP    1, STRESS PERIOD   6
  ------------------------------------------------------------------------------

     CUMULATIVE VOLUMES      L**3       RATES FOR THIS TIME STEP      L**3/T
     ------------------                 ------------------------

           IN:                                      IN:
           ---                                      ---
             STORAGE =    30636307.8848               STORAGE =           0.0000
       CONSTANT HEAD =    13047400.8356         CONSTANT HEAD =       29043.7970
               WELLS =           0.0000                 WELLS =           0.0000
            RECHARGE =    15097200.0000              RECHARGE =       55200.0000
      STREAM LEAKAGE =     6543051.6817        STREAM LEAKAGE =       14516.3868

            TOTAL IN =    65323960.4020              TOTAL IN =       98760.1838

          OUT:                                     OUT:
          ----                                     ----
             STORAGE =      795173.2041               STORAGE =        8725.1661
       CONSTANT HEAD =           0.0000         CONSTANT HEAD =           0.0000
               WELLS =    16522037.0654                 WELLS =       30149.7027
            RECHARGE =           0.0000              RECHARGE =           0.0000
      STREAM LEAKAGE =    48006752.1350        STREAM LEAKAGE =       59885.3122

           TOTAL OUT =    65323962.4045             TOTAL OUT =       98760.1810

            IN - OUT =          -2.0025              IN - OUT =       2.8602E-03

 PERCENT DISCREPANCY =          -0.00     PERCENT DISCREPANCY =           0.00






         TIME SUMMARY AT END OF TIME STEP    1 IN STRESS PERIOD    6
                    SECONDS     MINUTES      HOURS       DAYS        YEARS
                    -----------------------------------------------------------
   TIME STEP LENGTH 7.86240E+06 1.31040E+05  2184.0      91.000     0.24914    
 STRESS PERIOD TIME 7.86240E+06 1.31040E+05  2184.0      91.000     0.24914    
         TOTAL TIME 4.73472E+07 7.89120E+05  13152.      548.00      1.5003    
1
1
                            STRESS PERIOD NO.    7, LENGTH =   91.00000    
                            -----------------------------------------------

                              NUMBER OF TIME STEPS =     1

                               MULTIPLIER FOR DELT =     1.500

                            INITIAL TIME STEP SIZE =   91.00000    

 WELL NO.  LAYER   ROW   COL   STRESS RATE         
 --------------------------------------------------
      1      1     11     18     -0.1246E+05
      2      1      5     20      -7658.    
      3      1     11     16      -434.0    
      4      1     11     19      -9596.    

      4 WELLS

                 RECHARGE =   0.00000    

 REUSING STREAM SEGMENT DATA FROM LAST STRESS PERIOD
 
 SOLVING FOR HEAD 


     7 CALLS TO PCG ROUTINE FOR TIME STEP   1 IN STRESS PERIOD    7
    26 TOTAL ITERATIONS

 OUTPUT CONTROL FOR STRESS PERIOD    7   TIME STEP    1
    SAVE BUDGET
    SAVE HEAD FOR ALL LAYERS
    PRINT HEAD FOR ALL LAYERS
 UBDSV2 SAVING "STREAMFLOW OUT  " ON UNIT  50 AT TIME STEP  1, STRESS PERIOD   7



 STREAM LISTING     PERIOD      7   STEP        1

 LAYER ROW COL. STREAM  RCH.  FLOW INTO     FLOW TO   FLOW OUT OF   OVRLND.     DIRECT     STREAM       STREAM     STREAM     STREAM   STREAMBED  STREAMBED
                SEG.NO.  NO.  STRM. RCH.    AQUIFER    STRM. RCH.    RUNOFF     PRECIP       ET          HEAD       DEPTH      WIDTH   CONDCTNC.   GRADIENT

   1   13    1     1     1    1.0000E+05 -1.7187E+03   1.0172E+05  0.000E+00  0.000E+00  0.000E+00  4.84068E+01  1.454E-01  2.000E+01  2.000E+04 -8.593E-02
   1   13    2     1     2    1.0172E+05 -2.6818E+03   1.0440E+05  0.000E+00  0.000E+00  0.000E+00  4.79314E+01  1.473E-01  2.000E+01  2.000E+04 -1.341E-01
   1   14    3     1     3    1.0440E+05 -4.0616E+02   1.0481E+05  0.000E+00  0.000E+00  0.000E+00  4.74554E+01  1.486E-01  2.000E+01  2.000E+04 -2.031E-02
   1   15    4     1     4    1.0481E+05 -3.7660E+02   1.0518E+05  0.000E+00  0.000E+00  0.000E+00  4.69785E+01  1.489E-01  2.000E+01  2.000E+04 -1.883E-02
   1   16    5     1     5    1.0518E+05 -1.4985E+03   1.0668E+05  0.000E+00  0.000E+00  0.000E+00  4.65020E+01  1.497E-01  2.000E+01  2.000E+04 -7.493E-02
   1   16    6     1     6    1.0668E+05 -9.5797E+02   1.0764E+05  0.000E+00  0.000E+00  0.000E+00  4.60258E+01  1.508E-01  2.000E+01  2.000E+04 -4.790E-02
   1   16    7     1     7    1.0764E+05 -9.4760E+02   1.0859E+05  0.000E+00  0.000E+00  0.000E+00  4.55493E+01  1.516E-01  2.000E+01  2.000E+04 -4.738E-02
   1   16    8     1     8    1.0859E+05 -9.4803E+02   1.0954E+05  0.000E+00  0.000E+00  0.000E+00  4.50728E+01  1.524E-01  2.000E+01  2.000E+04 -4.740E-02
   1   16    9     1     9    1.0954E+05 -9.4364E+02   1.1048E+05  0.000E+00  0.000E+00  0.000E+00  4.45964E+01  1.532E-01  2.000E+01  2.000E+04 -4.718E-02
   1   16   10     1    10    1.1048E+05 -9.3558E+02   1.1141E+05  0.000E+00  0.000E+00  0.000E+00  4.41199E+01  1.540E-01  2.000E+01  2.000E+04 -4.678E-02
   1   16   11     1    11    1.1141E+05 -9.4522E+02   1.1236E+05  0.000E+00  0.000E+00  0.000E+00  4.36434E+01  1.547E-01  2.000E+01  2.000E+04 -4.726E-02
   1   16   12     1    12    1.1236E+05 -1.6085E+03   1.1397E+05  0.000E+00  0.000E+00  0.000E+00  4.31672E+01  1.558E-01  2.000E+01  2.000E+04 -8.043E-02
   1   15   13     1    13    1.1397E+05 -1.3755E+03   1.1534E+05  0.000E+00  0.000E+00  0.000E+00  4.26911E+01  1.570E-01  2.000E+01  2.000E+04 -6.877E-02
   1   14   14     1    14    1.1534E+05 -1.4719E+03   1.1682E+05  0.000E+00  0.000E+00  0.000E+00  4.22150E+01  1.582E-01  2.000E+01  2.000E+04 -7.359E-02
   1   13   15     1    15    1.1682E+05 -1.4367E+03   1.1825E+05  0.000E+00  0.000E+00  0.000E+00  4.17389E+01  1.594E-01  2.000E+01  2.000E+04 -7.183E-02
   1   12   16     1    16    1.1825E+05 -6.9134E+02   1.1894E+05  0.000E+00  0.000E+00  0.000E+00  4.12625E+01  1.602E-01  2.000E+01  2.000E+04 -3.457E-02
   1   12   17     1    17    1.1894E+05  1.0169E+03   1.1793E+05  0.000E+00  0.000E+00  0.000E+00  4.07851E+01  1.601E-01  2.000E+01  2.000E+04  5.085E-02
   1   12   18     1    18    1.1793E+05  4.4230E+03   1.1350E+05  0.000E+00  0.000E+00  0.000E+00  4.03056E+01  1.579E-01  2.000E+01  2.000E+04  2.211E-01
   1   12   19     1    19    1.1350E+05  4.3349E+03   1.0917E+05  0.000E+00  0.000E+00  0.000E+00  3.98247E+01  1.543E-01  2.000E+01  2.000E+04  2.167E-01
   1   13   20     1    20    1.0917E+05 -2.3467E+02   1.0940E+05  0.000E+00  0.000E+00  0.000E+00  3.93457E+01  1.526E-01  2.000E+01  2.000E+04 -1.173E-02
   1   14   21     1    21    1.0940E+05 -1.1624E+03   1.1057E+05  0.000E+00  0.000E+00  0.000E+00  3.88691E+01  1.532E-01  2.000E+01  2.000E+04 -5.812E-02
   1   14   22     1    22    1.1057E+05  4.9292E+03   1.0564E+05  0.000E+00  0.000E+00  0.000E+00  3.83902E+01  1.516E-01  2.000E+01  2.000E+04  2.465E-01
   1    9   30     2     1    5.0000E+04 -2.6957E+02   5.0270E+04  0.000E+00  0.000E+00  0.000E+00  4.02411E+01  1.161E-01  2.000E+01  2.000E+04 -1.348E-02
   1    9   29     2     2    5.0270E+04 -5.4039E+02   5.0810E+04  0.000E+00  0.000E+00  0.000E+00  3.99916E+01  1.166E-01  2.000E+01  2.000E+04 -2.702E-02
   1    9   28     2     3    5.0810E+04 -7.1935E+02   5.1529E+04  0.000E+00  0.000E+00  0.000E+00  3.97425E+01  1.175E-01  2.000E+01  2.000E+04 -3.597E-02
   1    9   27     2     4    5.1529E+04 -1.4541E+03   5.2983E+04  0.000E+00  0.000E+00  0.000E+00  3.94940E+01  1.190E-01  2.000E+01  2.000E+04 -7.271E-02
   1   10   26     2     5    5.2983E+04 -6.7824E+02   5.3662E+04  0.000E+00  0.000E+00  0.000E+00  3.92454E+01  1.204E-01  2.000E+01  2.000E+04 -3.391E-02
   1   11   25     2     6    5.3662E+04 -4.1832E+02   5.4080E+04  0.000E+00  0.000E+00  0.000E+00  3.89962E+01  1.212E-01  2.000E+01  2.000E+04 -2.092E-02
   1   12   24     2     7    5.4080E+04 -3.6135E+02   5.4441E+04  0.000E+00  0.000E+00  0.000E+00  3.87467E+01  1.217E-01  2.000E+01  2.000E+04 -1.807E-02
   1   13   23     2     8    5.4441E+04 -1.4030E+01   5.4455E+04  0.000E+00  0.000E+00  0.000E+00  3.84969E+01  1.219E-01  2.000E+01  2.000E+04 -7.015E-04
   1   14   22     2     9    5.4455E+04  2.0366E+03   5.2419E+04  0.000E+00  0.000E+00  0.000E+00  3.82456E+01  1.206E-01  2.000E+01  2.000E+04  1.018E-01
   1   14   22     3     1    1.5806E+05 -8.5534E+03   1.6661E+05  0.000E+00  0.000E+00  0.000E+00  3.77161E+01  1.605E-01  2.000E+01  2.000E+04 -4.277E-01
   1   15   23     3     2    1.6661E+05 -4.8887E+02   1.6710E+05  0.000E+00  0.000E+00  0.000E+00  3.68299E+01  1.632E-01  2.000E+01  2.000E+04 -2.444E-02
   1   15   24     3     3    1.6710E+05 -2.2662E+02   1.6732E+05  0.000E+00  0.000E+00  0.000E+00  3.59412E+01  1.634E-01  2.000E+01  2.000E+04 -1.133E-02
   1   15   25     3     4    1.6732E+05 -2.1649E+02   1.6754E+05  0.000E+00  0.000E+00  0.000E+00  3.50524E+01  1.635E-01  2.000E+01  2.000E+04 -1.082E-02
   1   15   26     3     5    1.6754E+05 -2.6054E+02   1.6780E+05  0.000E+00  0.000E+00  0.000E+00  3.41637E+01  1.637E-01  2.000E+01  2.000E+04 -1.303E-02
   1   16   27     3     6    1.6780E+05 -2.8680E+02   1.6809E+05  0.000E+00  0.000E+00  0.000E+00  3.32749E+01  1.638E-01  2.000E+01  2.000E+04 -1.434E-02
   1   17   28     3     7    1.6809E+05 -1.3635E+03   1.6945E+05  0.000E+00  0.000E+00  0.000E+00  3.23865E+01  1.643E-01  2.000E+01  2.000E+04 -6.818E-02
   1   18   29     3     8    1.6945E+05 -2.7580E+03   1.7221E+05  0.000E+00  0.000E+00  0.000E+00  3.14988E+01  1.655E-01  2.000E+01  2.000E+04 -1.379E-01
   1   18   30     3     9    1.7221E+05 -3.0451E+03   1.7525E+05  0.000E+00  0.000E+00  0.000E+00  3.06116E+01  1.672E-01  2.000E+01  2.000E+04 -1.523E-01



1
              HEAD IN LAYER   1 AT END OF TIME STEP   1 IN STRESS PERIOD    7
  ---------------------------------------------------------------------------

          1      2      3      4      5      6      7      8      9     10
         11     12     13     14     15     16     17     18     19     20
         21     22     23     24     25     26     27     28     29     30
 .........................................................................
   1  ****** ****** ****** ****** ****** ****** ****** ****** ****** ******
      ****** ****** ****** ****** ****** ****** ****** ****** ****** ******
      ****** ****** ****** ****** ****** ****** ****** ****** ****** ******
   2  ****** ****** ****** ****** ****** ****** ****** ****** ****** ******
      ****** ****** ****** ****** ****** ****** ****** ****** ****** ******
      ****** ****** ****** ****** ****** ****** ****** ****** ****** ******
   3  ****** ****** ****** ****** ****** ****** ****** ****** ****** ******
      ****** ****** ****** ****** ****** ****** ****** ****** ****** ******
      ****** ****** ****** ****** ****** ****** ****** ****** ****** ******
   4  ****** ****** ****** ****** ****** ****** ****** ****** ****** ******
      ****** ****** ****** ****** ****** ****** ****** ****** ****** ******
      ****** ****** ****** ****** ****** ****** ****** ****** ****** ******
   5  ****** ****** ****** ****** ****** ****** ****** ****** ****** ******
      ****** ****** ****** ****** ****** ****** ****** ****** ****** ******
      ****** ****** ****** ****** ****** ****** ****** ****** ****** ******
   6  ****** ****** ****** ****** ****** ****** ****** ****** ****** ******
      ****** ****** ****** ****** ****** ****** ****** ****** ****** ******
      ****** ****** ****** ****** ****** ****** ****** ****** ****** ******
   7  ****** ****** ****** ****** ****** ****** ****** ****** ****** ******
      ****** ****** ****** ****** ****** ****** ****** ****** ****** ******
      ****** ****** ****** ****** ****** ****** ****** ****** ****** ******
   8  ****** ****** ****** ****** ****** ****** ****** ****** ****** ******
      ****** ****** ****** ****** ****** ****** ****** ****** ****** ******
      ****** ****** ****** ****** ****** ****** ****** ****** ****** ******
   9  ****** ****** ****** ****** ****** ****** ****** ****** ****** ******
      ****** ****** ****** ****** ****** ****** ****** ****** ****** ******
      ****** ****** ****** ****** ****** ****** ****** ****** ****** ******
  10  ****** ****** ****** ****** ****** ****** ****** ****** ****** ******
      ****** ****** ****** ****** ****** ****** ****** ****** ****** ******
      ****** ****** ****** ****** ****** ****** ****** ****** ****** ******
  11  ****** ****** ****** ****** ****** ****** ****** ****** ****** ******
      ****** ****** ****** ****** ****** ****** ****** ****** ****** ******
      ****** ****** ****** ****** ****** ****** ****** ****** ****** ******
  12  ****** ****** ****** ****** ****** ****** ****** ****** ****** ******
      ****** ****** ****** ****** ****** ****** ****** ****** ****** ******
      ****** ****** ****** ****** ****** ****** ****** ****** ****** ******
  13  ****** ****** ****** ****** ****** ****** ****** ****** ****** ******
      ****** ****** ****** ****** ****** ****** ****** ****** ****** ******
      ****** ****** ****** ****** ****** ****** ****** ****** ****** ******
  14  ****** ****** ****** ****** ****** ****** ****** ****** ****** ******
      ****** ****** ****** ****** ****** ****** ****** ****** ****** ******
      ****** ****** ****** ****** ****** ****** ****** ****** ****** ******
  15  ****** ****** ****** ****** ****** ****** ****** ****** ****** ******
      ****** ****** ****** ****** ****** ****** ****** ****** ****** ******
      ****** ****** ****** ****** ****** ****** ****** ****** ****** ******
  16  ****** ****** ****** ****** ****** ****** ****** ****** ****** ******
      ****** ****** ****** ****** ****** ****** ****** ****** ****** ******
      ****** ****** ****** ****** ****** ****** ****** ****** ****** ******
  17  ****** ****** ****** ****** ****** ****** ****** ****** ****** ******
      ****** ****** ****** ****** ****** ****** ****** ****** ****** ******
      ****** ****** ****** ****** ****** ****** ****** ****** ****** ******
  18  ****** ****** ****** ****** ****** ****** ****** ****** ****** ******
      ****** ****** ****** ****** ****** ****** ****** ****** ****** ******
      ****** ****** ****** ****** ****** ****** ****** ****** ****** ******
  19  ****** ****** ****** ****** ****** ****** ****** ****** ****** ******
      ****** ****** ****** ****** ****** ****** ****** ****** ****** ******
      ****** ****** ****** ****** ****** ****** ****** ****** ****** ******
  20  ****** ****** ****** ****** ****** ****** ****** ****** ****** ******
      ****** ****** ****** ****** ****** ****** ****** ****** ****** ******
      ****** ****** ****** ****** ****** ****** ****** ****** ****** ******
  21  ****** ****** ****** ****** ****** ****** ****** ****** ****** ******
      ****** ****** ****** ****** ****** ****** ****** ****** ****** ******
      ****** ****** ****** ****** ****** ****** ****** ****** ****** ******
  22  ****** ****** ****** ****** ****** ****** ****** ****** ****** ******
      ****** ****** ****** ****** ****** ****** ****** ****** ****** ******
      ****** ****** ****** ****** ****** ****** ****** ****** ****** ******
  23  ****** ****** ****** ****** ****** ****** ****** ****** ****** ******
      ****** ****** ****** ****** ****** ****** ****** ****** ****** ******
      ****** ****** ****** ****** ****** ****** ****** ****** ****** ******
  24  ****** ****** ****** ****** ****** ****** ****** ****** ****** ******
      ****** ****** ****** ****** ****** ****** ****** ****** ****** ******
      ****** ****** ****** ****** ****** ****** ****** ****** ****** ******
  25  ****** ****** ****** ****** ****** ****** ****** ****** ****** ******
      ****** ****** ****** ****** ****** ****** ****** ****** ****** ******
      ****** ****** ****** ****** ****** ****** ****** ****** ****** ******

 HEAD WILL BE SAVED ON UNIT   51 AT END OF TIME STEP    1, STRESS PERIOD    7
1
  VOLUMETRIC BUDGET FOR ENTIRE MODEL AT END OF TIME STEP    1, STRESS PERIOD   7
  ------------------------------------------------------------------------------

     CUMULATIVE VOLUMES      L**3       RATES FOR THIS TIME STEP      L**3/T
     ------------------                 ------------------------

           IN:                                      IN:
           ---                                      ---
             STORAGE =    32677501.2183               STORAGE =       22430.6960
       CONSTANT HEAD =    16048013.4417         CONSTANT HEAD =       32973.7649
               WELLS =           0.0000                 WELLS =           0.0000
            RECHARGE =    15097200.0000              RECHARGE =           0.0000
      STREAM LEAKAGE =     8066446.9026        STREAM LEAKAGE =       16740.6068

            TOTAL IN =    71889161.5626              TOTAL IN =       72145.0677

          OUT:                                     OUT:
          ----                                     ----
             STORAGE =      795173.2041               STORAGE =           0.0000
       CONSTANT HEAD =           0.0000         CONSTANT HEAD =           0.0000
               WELLS =    19265660.0088                 WELLS =       30149.7027
            RECHARGE =           0.0000              RECHARGE =           0.0000
      STREAM LEAKAGE =    51828330.8509        STREAM LEAKAGE =       41995.3705

           TOTAL OUT =    71889164.0637             TOTAL OUT =       72145.0732

            IN - OUT =          -2.5011              IN - OUT =      -5.4790E-03

 PERCENT DISCREPANCY =          -0.00     PERCENT DISCREPANCY =          -0.00






         TIME SUMMARY AT END OF TIME STEP    1 IN STRESS PERIOD    7
                    SECONDS     MINUTES      HOURS       DAYS        YEARS
                    -----------------------------------------------------------
   TIME STEP LENGTH 7.86240E+06 1.31040E+05  2184.0      91.000     0.24914    
 STRESS PERIOD TIME 7.86240E+06 1.31040E+05  2184.0      91.000     0.24914    
         TOTAL TIME 5.52096E+07 9.20160E+05  15336.      639.00      1.7495    
1
1
                            STRESS PERIOD NO.    8, LENGTH =   91.00000    
                            -----------------------------------------------

                              NUMBER OF TIME STEPS =     1

                               MULTIPLIER FOR DELT =     1.500

                            INITIAL TIME STEP SIZE =   91.00000    

 WELL NO.  LAYER   ROW   COL   STRESS RATE         
 --------------------------------------------------
      1      1     11     18     -0.1246E+05
      2      1      5     20      -7658.    
      3      1     11     16      -434.0    
      4      1     11     19      -9596.    

      4 WELLS

                 RECHARGE =  1.000000E-03

 REUSING STREAM SEGMENT DATA FROM LAST STRESS PERIOD
 
 SOLVING FOR HEAD 


     6 CALLS TO PCG ROUTINE FOR TIME STEP   1 IN STRESS PERIOD    8
    22 TOTAL ITERATIONS

 OUTPUT CONTROL FOR STRESS PERIOD    8   TIME STEP    1
    SAVE BUDGET
    SAVE HEAD FOR ALL LAYERS
    PRINT HEAD FOR ALL LAYERS
 UBDSV2 SAVING "STREAMFLOW OUT  " ON UNIT  50 AT TIME STEP  1, STRESS PERIOD   8



 STREAM LISTING     PERIOD      8   STEP        1

 LAYER ROW COL. STREAM  RCH.  FLOW INTO     FLOW TO   FLOW OUT OF   OVRLND.     DIRECT     STREAM       STREAM     STREAM     STREAM   STREAMBED  STREAMBED
                SEG.NO.  NO.  STRM. RCH.    AQUIFER    STRM. RCH.    RUNOFF     PRECIP       ET          HEAD       DEPTH      WIDTH   CONDCTNC.   GRADIENT

   1   13    1     1     1    1.0000E+05 -1.7898E+03   1.0179E+05  0.000E+00  0.000E+00  0.000E+00  4.84068E+01  1.454E-01  2.000E+01  2.000E+04 -8.949E-02
   1   13    2     1     2    1.0179E+05 -2.7520E+03   1.0454E+05  0.000E+00  0.000E+00  0.000E+00  4.79315E+01  1.474E-01  2.000E+01  2.000E+04 -1.376E-01
   1   14    3     1     3    1.0454E+05 -4.6991E+02   1.0501E+05  0.000E+00  0.000E+00  0.000E+00  4.74556E+01  1.488E-01  2.000E+01  2.000E+04 -2.350E-02
   1   15    4     1     4    1.0501E+05 -4.4513E+02   1.0546E+05  0.000E+00  0.000E+00  0.000E+00  4.69787E+01  1.491E-01  2.000E+01  2.000E+04 -2.226E-02
   1   16    5     1     5    1.0546E+05 -1.6735E+03   1.0713E+05  0.000E+00  0.000E+00  0.000E+00  4.65023E+01  1.500E-01  2.000E+01  2.000E+04 -8.367E-02
   1   16    6     1     6    1.0713E+05 -1.0653E+03   1.0820E+05  0.000E+00  0.000E+00  0.000E+00  4.60262E+01  1.512E-01  2.000E+01  2.000E+04 -5.327E-02
   1   16    7     1     7    1.0820E+05 -1.0499E+03   1.0925E+05  0.000E+00  0.000E+00  0.000E+00  4.55498E+01  1.521E-01  2.000E+01  2.000E+04 -5.249E-02
   1   16    8     1     8    1.0925E+05 -1.0495E+03   1.1030E+05  0.000E+00  0.000E+00  0.000E+00  4.50734E+01  1.530E-01  2.000E+01  2.000E+04 -5.248E-02
   1   16    9     1     9    1.1030E+05 -1.0464E+03   1.1134E+05  0.000E+00  0.000E+00  0.000E+00  4.45970E+01  1.538E-01  2.000E+01  2.000E+04 -5.232E-02
   1   16   10     1    10    1.1134E+05 -1.0410E+03   1.1238E+05  0.000E+00  0.000E+00  0.000E+00  4.41206E+01  1.547E-01  2.000E+01  2.000E+04 -5.205E-02
   1   16   11     1    11    1.1238E+05 -1.0540E+03   1.1344E+05  0.000E+00  0.000E+00  0.000E+00  4.36442E+01  1.556E-01  2.000E+01  2.000E+04 -5.270E-02
   1   16   12     1    12    1.1344E+05 -1.7715E+03   1.1521E+05  0.000E+00  0.000E+00  0.000E+00  4.31681E+01  1.567E-01  2.000E+01  2.000E+04 -8.858E-02
   1   15   13     1    13    1.1521E+05 -1.5436E+03   1.1675E+05  0.000E+00  0.000E+00  0.000E+00  4.26922E+01  1.581E-01  2.000E+01  2.000E+04 -7.718E-02
   1   14   14     1    14    1.1675E+05 -1.6317E+03   1.1838E+05  0.000E+00  0.000E+00  0.000E+00  4.22162E+01  1.594E-01  2.000E+01  2.000E+04 -8.159E-02
   1   13   15     1    15    1.1838E+05 -1.5823E+03   1.1997E+05  0.000E+00  0.000E+00  0.000E+00  4.17403E+01  1.607E-01  2.000E+01  2.000E+04 -7.912E-02
   1   12   16     1    16    1.1997E+05 -7.9648E+02   1.2076E+05  0.000E+00  0.000E+00  0.000E+00  4.12639E+01  1.617E-01  2.000E+01  2.000E+04 -3.982E-02
   1   12   17     1    17    1.2076E+05  9.0855E+02   1.1985E+05  0.000E+00  0.000E+00  0.000E+00  4.07866E+01  1.616E-01  2.000E+01  2.000E+04  4.543E-02
   1   12   18     1    18    1.1985E+05  4.3075E+03   1.1555E+05  0.000E+00  0.000E+00  0.000E+00  4.03072E+01  1.595E-01  2.000E+01  2.000E+04  2.154E-01
   1   12   19     1    19    1.1555E+05  4.1897E+03   1.1136E+05  0.000E+00  0.000E+00  0.000E+00  3.98265E+01  1.560E-01  2.000E+01  2.000E+04  2.095E-01
   1   13   20     1    20    1.1136E+05 -4.1230E+02   1.1177E+05  0.000E+00  0.000E+00  0.000E+00  3.93476E+01  1.545E-01  2.000E+01  2.000E+04 -2.062E-02
   1   14   21     1    21    1.1177E+05 -1.3229E+03   1.1309E+05  0.000E+00  0.000E+00  0.000E+00  3.88711E+01  1.552E-01  2.000E+01  2.000E+04 -6.615E-02
   1   14   22     1    22    1.1309E+05  4.8817E+03   1.0821E+05  0.000E+00  0.000E+00  0.000E+00  3.83923E+01  1.537E-01  2.000E+01  2.000E+04  2.441E-01
   1    9   30     2     1    5.0000E+04 -4.3128E+02   5.0431E+04  0.000E+00  0.000E+00  0.000E+00  4.02412E+01  1.162E-01  2.000E+01  2.000E+04 -2.156E-02
   1    9   29     2     2    5.0431E+04 -6.9921E+02   5.1130E+04  0.000E+00  0.000E+00  0.000E+00  3.99919E+01  1.169E-01  2.000E+01  2.000E+04 -3.496E-02
   1    9   28     2     3    5.1130E+04 -8.7234E+02   5.2003E+04  0.000E+00  0.000E+00  0.000E+00  3.97430E+01  1.180E-01  2.000E+01  2.000E+04 -4.362E-02
   1    9   27     2     4    5.2003E+04 -1.6285E+03   5.3631E+04  0.000E+00  0.000E+00  0.000E+00  3.94947E+01  1.197E-01  2.000E+01  2.000E+04 -8.143E-02
   1   10   26     2     5    5.3631E+04 -8.8052E+02   5.4512E+04  0.000E+00  0.000E+00  0.000E+00  3.92464E+01  1.214E-01  2.000E+01  2.000E+04 -4.403E-02
   1   11   25     2     6    5.4512E+04 -6.1937E+02   5.5131E+04  0.000E+00  0.000E+00  0.000E+00  3.89974E+01  1.224E-01  2.000E+01  2.000E+04 -3.097E-02
   1   12   24     2     7    5.5131E+04 -5.4371E+02   5.5675E+04  0.000E+00  0.000E+00  0.000E+00  3.87482E+01  1.232E-01  2.000E+01  2.000E+04 -2.719E-02
   1   13   23     2     8    5.5675E+04 -8.7921E+01   5.5763E+04  0.000E+00  0.000E+00  0.000E+00  3.84986E+01  1.236E-01  2.000E+01  2.000E+04 -4.396E-03
   1   14   22     2     9    5.5763E+04  1.9824E+03   5.3781E+04  0.000E+00  0.000E+00  0.000E+00  3.82474E+01  1.224E-01  2.000E+01  2.000E+04  9.912E-02
   1   14   22     3     1    1.6199E+05 -8.5969E+03   1.7059E+05  0.000E+00  0.000E+00  0.000E+00  3.77184E+01  1.629E-01  2.000E+01  2.000E+04 -4.298E-01
   1   15   23     3     2    1.7059E+05 -5.5376E+02   1.7114E+05  0.000E+00  0.000E+00  0.000E+00  3.68322E+01  1.655E-01  2.000E+01  2.000E+04 -2.769E-02
   1   15   24     3     3    1.7114E+05 -2.8752E+02   1.7143E+05  0.000E+00  0.000E+00  0.000E+00  3.59436E+01  1.658E-01  2.000E+01  2.000E+04 -1.438E-02
   1   15   25     3     4    1.7143E+05 -2.7908E+02   1.7171E+05  0.000E+00  0.000E+00  0.000E+00  3.50548E+01  1.659E-01  2.000E+01  2.000E+04 -1.395E-02
   1   15   26     3     5    1.7171E+05 -3.3542E+02   1.7204E+05  0.000E+00  0.000E+00  0.000E+00  3.41661E+01  1.661E-01  2.000E+01  2.000E+04 -1.677E-02
   1   16   27     3     6    1.7204E+05 -3.6904E+02   1.7241E+05  0.000E+00  0.000E+00  0.000E+00  3.32774E+01  1.663E-01  2.000E+01  2.000E+04 -1.845E-02
   1   17   28     3     7    1.7241E+05 -1.5688E+03   1.7398E+05  0.000E+00  0.000E+00  0.000E+00  3.23891E+01  1.669E-01  2.000E+01  2.000E+04 -7.844E-02
   1   18   29     3     8    1.7398E+05 -2.9266E+03   1.7691E+05  0.000E+00  0.000E+00  0.000E+00  3.15015E+01  1.682E-01  2.000E+01  2.000E+04 -1.463E-01
   1   18   30     3     9    1.7691E+05 -3.1937E+03   1.8010E+05  0.000E+00  0.000E+00  0.000E+00  3.06144E+01  1.699E-01  2.000E+01  2.000E+04 -1.597E-01



1
              HEAD IN LAYER   1 AT END OF TIME STEP   1 IN STRESS PERIOD    8
  ---------------------------------------------------------------------------

          1      2      3      4      5      6      7      8      9     10
         11     12     13     14     15     16     17     18     19     20
         21     22     23     24     25     26     27     28     29     30
 .........................................................................
   1  ****** ****** ****** ****** ****** ****** ****** ****** ****** ******
      ****** ****** ****** ****** ****** ****** ****** ****** ****** ******
      ****** ****** ****** ****** ****** ****** ****** ****** ****** ******
   2  ****** ****** ****** ****** ****** ****** ****** ****** ****** ******
      ****** ****** ****** ****** ****** ****** ****** ****** ****** ******
      ****** ****** ****** ****** ****** ****** ****** ****** ****** ******
   3  ****** ****** ****** ****** ****** ****** ****** ****** ****** ******
      ****** ****** ****** ****** ****** ****** ****** ****** ****** ******
      ****** ****** ****** ****** ****** ****** ****** ****** ****** ******
   4  ****** ****** ****** ****** ****** ****** ****** ****** ****** ******
      ****** ****** ****** ****** ****** ****** ****** ****** ****** ******
      ****** ****** ****** ****** ****** ****** ****** ****** ****** ******
   5  ****** ****** ****** ****** ****** ****** ****** ****** ****** ******
      ****** ****** ****** ****** ****** ****** ****** ****** ****** ******
      ****** ****** ****** ****** ****** ****** ****** ****** ****** ******
   6  ****** ****** ****** ****** ****** ****** ****** ****** ****** ******
      ****** ****** ****** ****** ****** ****** ****** ****** ****** ******
      ****** ****** ****** ****** ****** ****** ****** ****** ****** ******
   7  ****** ****** ****** ****** ****** ****** ****** ****** ****** ******
      ****** ****** ****** ****** ****** ****** ****** ****** ****** ******
      ****** ****** ****** ****** ****** ****** ****** ****** ****** ******
   8  ****** ****** ****** ****** ****** ****** ****** ****** ****** ******
      ****** ****** ****** ****** ****** ****** ****** ****** ****** ******
      ****** ****** ****** ****** ****** ****** ****** ****** ****** ******
   9  ****** ****** ****** ****** ****** ****** ****** ****** ****** ******
      ****** ****** ****** ****** ****** ****** ****** ****** ****** ******
      ****** ****** ****** ****** ****** ****** ****** ****** ****** ******
  10  ****** ****** ****** ****** ****** ****** ****** ****** ****** ******
      ****** ****** ****** ****** ****** ****** ****** ****** ****** ******
      ****** ****** ****** ****** ****** ****** ****** ****** ****** ******
  11  ****** ****** ****** ****** ****** ****** ****** ****** ****** ******
      ****** ****** ****** ****** ****** ****** ****** ****** ****** ******
      ****** ****** ****** ****** ****** ****** ****** ****** ****** ******
  12  ****** ****** ****** ****** ****** ****** ****** ****** ****** ******
      ****** ****** ****** ****** ****** ****** ****** ****** ****** ******
      ****** ****** ****** ****** ****** ****** ****** ****** ****** ******
  13  ****** ****** ****** ****** ****** ****** ****** ****** ****** ******
      ****** ****** ****** ****** ****** ****** ****** ****** ****** ******
      ****** ****** ****** ****** ****** ****** ****** ****** ****** ******
  14  ****** ****** ****** ****** ****** ****** ****** ****** ****** ******
      ****** ****** ****** ****** ****** ****** ****** ****** ****** ******
      ****** ****** ****** ****** ****** ****** ****** ****** ****** ******
  15  ****** ****** ****** ****** ****** ****** ****** ****** ****** ******
      ****** ****** ****** ****** ****** ****** ****** ****** ****** ******
      ****** ****** ****** ****** ****** ****** ****** ****** ****** ******
  16  ****** ****** ****** ****** ****** ****** ****** ****** ****** ******
      ****** ****** ****** ****** ****** ****** ****** ****** ****** ******
      ****** ****** ****** ****** ****** ****** ****** ****** ****** ******
  17  ****** ****** ****** ****** ****** ****** ****** ****** ****** ******
      ****** ****** ****** ****** ****** ****** ****** ****** ****** ******
      ****** ****** ****** ****** ****** ****** ****** ****** ****** ******
  18  ****** ****** ****** ****** ****** ****** ****** ****** ****** ******
      ****** ****** ****** ****** ****** ****** ****** ****** ****** ******
      ****** ****** ****** ****** ****** ****** ****** ****** ****** ******
  19  ****** ****** ****** ****** ****** ****** ****** ****** ****** ******
      ****** ****** ****** ****** ****** ****** ****** ****** ****** ******
      ****** ****** ****** ****** ****** ****** ****** ****** ****** ******
  20  ****** ****** ****** ****** ****** ****** ****** ****** ****** ******
      ****** ****** ****** ****** ****** ****** ****** ****** ****** ******
      ****** ****** ****** ****** ****** ****** ****** ****** ****** ******
  21  ****** ****** ****** ****** ****** ****** ****** ****** ****** ******
      ****** ****** ****** ****** ****** ****** ****** ****** ****** ******
      ****** ****** ****** ****** ****** ****** ****** ****** ****** ******
  22  ****** ****** ****** ****** ****** ****** ****** ****** ****** ******
      ****** ****** ****** ****** ****** ****** ****** ****** ****** ******
      ****** ****** ****** ****** ****** ****** ****** ****** ****** ******
  23  ****** ****** ****** ****** ****** ****** ****** ****** ****** ******
      ****** ****** ****** ****** ****** ****** ****** ****** ****** ******
      ****** ****** ****** ****** ****** ****** ****** ****** ****** ******
  24  ****** ****** ****** ****** ****** ****** ****** ****** ****** ******
      ****** ****** ****** ****** ****** ****** ****** ****** ****** ******
      ****** ****** ****** ****** ****** ****** ****** ****** ****** ******
  25  ****** ****** ****** ****** ****** ****** ****** ****** ****** ******
      ****** ****** ****** ****** ****** ****** ****** ****** ****** ******
      ****** ****** ****** ****** ****** ****** ****** ****** ****** ******

 HEAD WILL BE SAVED ON UNIT   51 AT END OF TIME STEP    1, STRESS PERIOD    8
1
  VOLUMETRIC BUDGET FOR ENTIRE MODEL AT END OF TIME STEP    1, STRESS PERIOD   8
  ------------------------------------------------------------------------------

     CUMULATIVE VOLUMES      L**3       RATES FOR THIS TIME STEP      L**3/T
     ------------------                 ------------------------

           IN:                                      IN:
           ---                                      ---
             STORAGE =    32819872.6873               STORAGE =        1564.5216
       CONSTANT HEAD =    19022150.5773         CONSTANT HEAD =       32682.8257
               WELLS =           0.0000                 WELLS =           0.0000
            RECHARGE =    17608800.0000              RECHARGE =       27600.0000
      STREAM LEAKAGE =     9546988.8083        STREAM LEAKAGE =       16269.6913

            TOTAL IN =    78997812.0729              TOTAL IN =       78117.0386

          OUT:                                     OUT:
          ----                                     ----
             STORAGE =      940429.1871               STORAGE =        1596.2196
       CONSTANT HEAD =           0.0000         CONSTANT HEAD =           0.0000
               WELLS =    22009282.9521                 WELLS =       30149.7027
            RECHARGE =           0.0000              RECHARGE =           0.0000
      STREAM LEAKAGE =    56048101.6785        STREAM LEAKAGE =       46371.1080

           TOTAL OUT =    78997813.8178             TOTAL OUT =       78117.0303

            IN - OUT =          -1.7449              IN - OUT =       8.3101E-03

 PERCENT DISCREPANCY =          -0.00     PERCENT DISCREPANCY =           0.00






         TIME SUMMARY AT END OF TIME STEP    1 IN STRESS PERIOD    8
                    SECONDS     MINUTES      HOURS       DAYS        YEARS
                    -----------------------------------------------------------
   TIME STEP LENGTH 7.86240E+06 1.31040E+05  2184.0      91.000     0.24914    
 STRESS PERIOD TIME 7.86240E+06 1.31040E+05  2184.0      91.000     0.24914    
         TOTAL TIME 6.30720E+07 1.05120E+06  17520.      730.00      1.9986    
1
1
                            STRESS PERIOD NO.    9, LENGTH =   92.00000    
                            -----------------------------------------------

                              NUMBER OF TIME STEPS =     1

                               MULTIPLIER FOR DELT =     1.500

                            INITIAL TIME STEP SIZE =   92.00000    

 WELL NO.  LAYER   ROW   COL   STRESS RATE         
 --------------------------------------------------
      1      1     11     18     -0.1246E+05
      2      1      5     20      -7658.    
      3      1     11     16      -434.0    
      4      1     11     19      -9596.    

      4 WELLS

                 RECHARGE =  5.000000E-04

 REUSING STREAM SEGMENT DATA FROM LAST STRESS PERIOD
 
 SOLVING FOR HEAD 


     6 CALLS TO PCG ROUTINE FOR TIME STEP   1 IN STRESS PERIOD    9
    23 TOTAL ITERATIONS

 OUTPUT CONTROL FOR STRESS PERIOD    9   TIME STEP    1
    SAVE BUDGET
    SAVE HEAD FOR ALL LAYERS
    PRINT HEAD FOR ALL LAYERS
 UBDSV2 SAVING "STREAMFLOW OUT  " ON UNIT  50 AT TIME STEP  1, STRESS PERIOD   9



 STREAM LISTING     PERIOD      9   STEP        1

 LAYER ROW COL. STREAM  RCH.  FLOW INTO     FLOW TO   FLOW OUT OF   OVRLND.     DIRECT     STREAM       STREAM     STREAM     STREAM   STREAMBED  STREAMBED
                SEG.NO.  NO.  STRM. RCH.    AQUIFER    STRM. RCH.    RUNOFF     PRECIP       ET          HEAD       DEPTH      WIDTH   CONDCTNC.   GRADIENT

   1   13    1     1     1    1.0000E+05 -1.5735E+03   1.0157E+05  0.000E+00  0.000E+00  0.000E+00  4.84067E+01  1.453E-01  2.000E+01  2.000E+04 -7.867E-02
   1   13    2     1     2    1.0157E+05 -2.5069E+03   1.0408E+05  0.000E+00  0.000E+00  0.000E+00  4.79312E+01  1.471E-01  2.000E+01  2.000E+04 -1.253E-01
   1   14    3     1     3    1.0408E+05 -3.9883E+02   1.0448E+05  0.000E+00  0.000E+00  0.000E+00  4.74552E+01  1.483E-01  2.000E+01  2.000E+04 -1.994E-02
   1   15    4     1     4    1.0448E+05 -3.7314E+02   1.0485E+05  0.000E+00  0.000E+00  0.000E+00  4.69782E+01  1.487E-01  2.000E+01  2.000E+04 -1.866E-02
   1   16    5     1     5    1.0485E+05 -1.4817E+03   1.0633E+05  0.000E+00  0.000E+00  0.000E+00  4.65017E+01  1.495E-01  2.000E+01  2.000E+04 -7.409E-02
   1   16    6     1     6    1.0633E+05 -9.4558E+02   1.0728E+05  0.000E+00  0.000E+00  0.000E+00  4.60255E+01  1.505E-01  2.000E+01  2.000E+04 -4.728E-02
   1   16    7     1     7    1.0728E+05 -9.3383E+02   1.0821E+05  0.000E+00  0.000E+00  0.000E+00  4.55490E+01  1.513E-01  2.000E+01  2.000E+04 -4.669E-02
   1   16    8     1     8    1.0821E+05 -9.3502E+02   1.0915E+05  0.000E+00  0.000E+00  0.000E+00  4.50725E+01  1.521E-01  2.000E+01  2.000E+04 -4.675E-02
   1   16    9     1     9    1.0915E+05 -9.3357E+02   1.1008E+05  0.000E+00  0.000E+00  0.000E+00  4.45960E+01  1.528E-01  2.000E+01  2.000E+04 -4.668E-02
   1   16   10     1    10    1.1008E+05 -9.3034E+02   1.1101E+05  0.000E+00  0.000E+00  0.000E+00  4.41195E+01  1.536E-01  2.000E+01  2.000E+04 -4.652E-02
   1   16   11     1    11    1.1101E+05 -9.4454E+02   1.1196E+05  0.000E+00  0.000E+00  0.000E+00  4.36430E+01  1.544E-01  2.000E+01  2.000E+04 -4.723E-02
   1   16   12     1    12    1.1196E+05 -1.5842E+03   1.1354E+05  0.000E+00  0.000E+00  0.000E+00  4.31668E+01  1.555E-01  2.000E+01  2.000E+04 -7.921E-02
   1   15   13     1    13    1.1354E+05 -1.3340E+03   1.1488E+05  0.000E+00  0.000E+00  0.000E+00  4.26907E+01  1.567E-01  2.000E+01  2.000E+04 -6.670E-02
   1   14   14     1    14    1.1488E+05 -1.4080E+03   1.1628E+05  0.000E+00  0.000E+00  0.000E+00  4.22146E+01  1.578E-01  2.000E+01  2.000E+04 -7.040E-02
   1   13   15     1    15    1.1628E+05 -1.3521E+03   1.1764E+05  0.000E+00  0.000E+00  0.000E+00  4.17385E+01  1.589E-01  2.000E+01  2.000E+04 -6.760E-02
   1   12   16     1    16    1.1764E+05 -5.5676E+02   1.1819E+05  0.000E+00  0.000E+00  0.000E+00  4.12620E+01  1.597E-01  2.000E+01  2.000E+04 -2.784E-02
   1   12   17     1    17    1.1819E+05  1.0725E+03   1.1712E+05  0.000E+00  0.000E+00  0.000E+00  4.07845E+01  1.595E-01  2.000E+01  2.000E+04  5.363E-02
   1   12   18     1    18    1.1712E+05  4.4637E+03   1.1266E+05  0.000E+00  0.000E+00  0.000E+00  4.03049E+01  1.572E-01  2.000E+01  2.000E+04  2.232E-01
   1   12   19     1    19    1.1266E+05  4.3780E+03   1.0828E+05  0.000E+00  0.000E+00  0.000E+00  3.98240E+01  1.536E-01  2.000E+01  2.000E+04  2.189E-01
   1   13   20     1    20    1.0828E+05 -2.3892E+02   1.0852E+05  0.000E+00  0.000E+00  0.000E+00  3.93450E+01  1.518E-01  2.000E+01  2.000E+04 -1.195E-02
   1   14   21     1    21    1.0852E+05 -1.1528E+03   1.0967E+05  0.000E+00  0.000E+00  0.000E+00  3.88683E+01  1.524E-01  2.000E+01  2.000E+04 -5.764E-02
   1   14   22     1    22    1.0967E+05  4.9188E+03   1.0475E+05  0.000E+00  0.000E+00  0.000E+00  3.83895E+01  1.508E-01  2.000E+01  2.000E+04  2.459E-01
   1    9   30     2     1    5.0000E+04 -3.0730E+02   5.0307E+04  0.000E+00  0.000E+00  0.000E+00  4.02411E+01  1.161E-01  2.000E+01  2.000E+04 -1.536E-02
   1    9   29     2     2    5.0307E+04 -5.7497E+02   5.0882E+04  0.000E+00  0.000E+00  0.000E+00  3.99917E+01  1.167E-01  2.000E+01  2.000E+04 -2.875E-02
   1    9   28     2     3    5.0882E+04 -7.4609E+02   5.1628E+04  0.000E+00  0.000E+00  0.000E+00  3.97426E+01  1.176E-01  2.000E+01  2.000E+04 -3.730E-02
   1    9   27     2     4    5.1628E+04 -1.4504E+03   5.3079E+04  0.000E+00  0.000E+00  0.000E+00  3.94941E+01  1.191E-01  2.000E+01  2.000E+04 -7.252E-02
   1   10   26     2     5    5.3079E+04 -7.0561E+02   5.3784E+04  0.000E+00  0.000E+00  0.000E+00  3.92456E+01  1.206E-01  2.000E+01  2.000E+04 -3.528E-02
   1   11   25     2     6    5.3784E+04 -4.5207E+02   5.4236E+04  0.000E+00  0.000E+00  0.000E+00  3.89964E+01  1.214E-01  2.000E+01  2.000E+04 -2.260E-02
   1   12   24     2     7    5.4236E+04 -3.8985E+02   5.4626E+04  0.000E+00  0.000E+00  0.000E+00  3.87469E+01  1.219E-01  2.000E+01  2.000E+04 -1.949E-02
   1   13   23     2     8    5.4626E+04 -4.0649E+01   5.4667E+04  0.000E+00  0.000E+00  0.000E+00  3.84972E+01  1.222E-01  2.000E+01  2.000E+04 -2.032E-03
   1   14   22     2     9    5.4667E+04  2.0468E+03   5.2620E+04  0.000E+00  0.000E+00  0.000E+00  3.82459E+01  1.209E-01  2.000E+01  2.000E+04  1.023E-01
   1   14   22     3     1    1.5737E+05 -8.5569E+03   1.6593E+05  0.000E+00  0.000E+00  0.000E+00  3.77157E+01  1.601E-01  2.000E+01  2.000E+04 -4.278E-01
   1   15   23     3     2    1.6593E+05 -5.0165E+02   1.6643E+05  0.000E+00  0.000E+00  0.000E+00  3.68295E+01  1.628E-01  2.000E+01  2.000E+04 -2.508E-02
   1   15   24     3     3    1.6643E+05 -2.4479E+02   1.6667E+05  0.000E+00  0.000E+00  0.000E+00  3.59408E+01  1.630E-01  2.000E+01  2.000E+04 -1.224E-02
   1   15   25     3     4    1.6667E+05 -2.3606E+02   1.6691E+05  0.000E+00  0.000E+00  0.000E+00  3.50520E+01  1.632E-01  2.000E+01  2.000E+04 -1.180E-02
   1   15   26     3     5    1.6691E+05 -2.8799E+02   1.6720E+05  0.000E+00  0.000E+00  0.000E+00  3.41633E+01  1.633E-01  2.000E+01  2.000E+04 -1.440E-02
   1   16   27     3     6    1.6720E+05 -3.1335E+02   1.6751E+05  0.000E+00  0.000E+00  0.000E+00  3.32746E+01  1.635E-01  2.000E+01  2.000E+04 -1.567E-02
   1   17   28     3     7    1.6751E+05 -1.4163E+03   1.6893E+05  0.000E+00  0.000E+00  0.000E+00  3.23862E+01  1.640E-01  2.000E+01  2.000E+04 -7.081E-02
   1   18   29     3     8    1.6893E+05 -2.7528E+03   1.7168E+05  0.000E+00  0.000E+00  0.000E+00  3.14985E+01  1.652E-01  2.000E+01  2.000E+04 -1.376E-01
   1   18   30     3     9    1.7168E+05 -3.0629E+03   1.7474E+05  0.000E+00  0.000E+00  0.000E+00  3.06113E+01  1.669E-01  2.000E+01  2.000E+04 -1.531E-01



1
              HEAD IN LAYER   1 AT END OF TIME STEP   1 IN STRESS PERIOD    9
  ---------------------------------------------------------------------------

          1      2      3      4      5      6      7      8      9     10
         11     12     13     14     15     16     17     18     19     20
         21     22     23     24     25     26     27     28     29     30
 .........................................................................
   1  ****** ****** ****** ****** ****** ****** ****** ****** ****** ******
      ****** ****** ****** ****** ****** ****** ****** ****** ****** ******
      ****** ****** ****** ****** ****** ****** ****** ****** ****** ******
   2  ****** ****** ****** ****** ****** ****** ****** ****** ****** ******
      ****** ****** ****** ****** ****** ****** ****** ****** ****** ******
      ****** ****** ****** ****** ****** ****** ****** ****** ****** ******
   3  ****** ****** ****** ****** ****** ****** ****** ****** ****** ******
      ****** ****** ****** ****** ****** ****** ****** ****** ****** ******
      ****** ****** ****** ****** ****** ****** ****** ****** ****** ******
   4  ****** ****** ****** ****** ****** ****** ****** ****** ****** ******
      ****** ****** ****** ****** ****** ****** ****** ****** ****** ******
      ****** ****** ****** ****** ****** ****** ****** ****** ****** ******
   5  ****** ****** ****** ****** ****** ****** ****** ****** ****** ******
      ****** ****** ****** ****** ****** ****** ****** ****** ****** ******
      ****** ****** ****** ****** ****** ****** ****** ****** ****** ******
   6  ****** ****** ****** ****** ****** ****** ****** ****** ****** ******
      ****** ****** ****** ****** ****** ****** ****** ****** ****** ******
      ****** ****** ****** ****** ****** ****** ****** ****** ****** ******
   7  ****** ****** ****** ****** ****** ****** ****** ****** ****** ******
      ****** ****** ****** ****** ****** ****** ****** ****** ****** ******
      ****** ****** ****** ****** ****** ****** ****** ****** ****** ******
   8  ****** ****** ****** ****** ****** ****** ****** ****** ****** ******
      ****** ****** ****** ****** ****** ****** ****** ****** ****** ******
      ****** ****** ****** ****** ****** ****** ****** ****** ****** ******
   9  ****** ****** ****** ****** ****** ****** ****** ****** ****** ******
      ****** ****** ****** ****** ****** ****** ****** ****** ****** ******
      ****** ****** ****** ****** ****** ****** ****** ****** ****** ******
  10  ****** ****** ****** ****** ****** ****** ****** ****** ****** ******
      ****** ****** ****** ****** ****** ****** ****** ****** ****** ******
      ****** ****** ****** ****** ****** ****** ****** ****** ****** ******
  11  ****** ****** ****** ****** ****** ****** ****** ****** ****** ******
      ****** ****** ****** ****** ****** ****** ****** ****** ****** ******
      ****** ****** ****** ****** ****** ****** ****** ****** ****** ******
  12  ****** ****** ****** ****** ****** ****** ****** ****** ****** ******
      ****** ****** ****** ****** ****** ****** ****** ****** ****** ******
      ****** ****** ****** ****** ****** ****** ****** ****** ****** ******
  13  ****** ****** ****** ****** ****** ****** ****** ****** ****** ******
      ****** ****** ****** ****** ****** ****** ****** ****** ****** ******
      ****** ****** ****** ****** ****** ****** ****** ****** ****** ******
  14  ****** ****** ****** ****** ****** ****** ****** ****** ****** ******
      ****** ****** ****** ****** ****** ****** ****** ****** ****** ******
      ****** ****** ****** ****** ****** ****** ****** ****** ****** ******
  15  ****** ****** ****** ****** ****** ****** ****** ****** ****** ******
      ****** ****** ****** ****** ****** ****** ****** ****** ****** ******
      ****** ****** ****** ****** ****** ****** ****** ****** ****** ******
  16  ****** ****** ****** ****** ****** ****** ****** ****** ****** ******
      ****** ****** ****** ****** ****** ****** ****** ****** ****** ******
      ****** ****** ****** ****** ****** ****** ****** ****** ****** ******
  17  ****** ****** ****** ****** ****** ****** ****** ****** ****** ******
      ****** ****** ****** ****** ****** ****** ****** ****** ****** ******
      ****** ****** ****** ****** ****** ****** ****** ****** ****** ******
  18  ****** ****** ****** ****** ****** ****** ****** ****** ****** ******
      ****** ****** ****** ****** ****** ****** ****** ****** ****** ******
      ****** ****** ****** ****** ****** ****** ****** ****** ****** ******
  19  ****** ****** ****** ****** ****** ****** ****** ****** ****** ******
      ****** ****** ****** ****** ****** ****** ****** ****** ****** ******
      ****** ****** ****** ****** ****** ****** ****** ****** ****** ******
  20  ****** ****** ****** ****** ****** ****** ****** ****** ****** ******
      ****** ****** ****** ****** ****** ****** ****** ****** ****** ******
      ****** ****** ****** ****** ****** ****** ****** ****** ****** ******
  21  ****** ****** ****** ****** ****** ****** ****** ****** ****** ******
      ****** ****** ****** ****** ****** ****** ****** ****** ****** ******
      ****** ****** ****** ****** ****** ****** ****** ****** ****** ******
  22  ****** ****** ****** ****** ****** ****** ****** ****** ****** ******
      ****** ****** ****** ****** ****** ****** ****** ****** ****** ******
      ****** ****** ****** ****** ****** ****** ****** ****** ****** ******
  23  ****** ****** ****** ****** ****** ****** ****** ****** ****** ******
      ****** ****** ****** ****** ****** ****** ****** ****** ****** ******
      ****** ****** ****** ****** ****** ****** ****** ****** ****** ******
  24  ****** ****** ****** ****** ****** ****** ****** ****** ****** ******
      ****** ****** ****** ****** ****** ****** ****** ****** ****** ******
      ****** ****** ****** ****** ****** ****** ****** ****** ****** ******
  25  ****** ****** ****** ****** ****** ****** ****** ****** ****** ******
      ****** ****** ****** ****** ****** ****** ****** ****** ****** ******
      ****** ****** ****** ****** ****** ****** ****** ****** ****** ******

 HEAD WILL BE SAVED ON UNIT   51 AT END OF TIME STEP    1, STRESS PERIOD    9
1
  VOLUMETRIC BUDGET FOR ENTIRE MODEL AT END OF TIME STEP    1, STRESS PERIOD   9
  ------------------------------------------------------------------------------

     CUMULATIVE VOLUMES      L**3       RATES FOR THIS TIME STEP      L**3/T
     ------------------                 ------------------------

           IN:                                      IN:
           ---                                      ---
             STORAGE =    33486055.2701               STORAGE =        7241.1150
       CONSTANT HEAD =    22136554.0509         CONSTANT HEAD =       33852.2117
               WELLS =           0.0000                 WELLS =           0.0000
            RECHARGE =    18878400.0000              RECHARGE =       13800.0000
      STREAM LEAKAGE =    11099934.5733        STREAM LEAKAGE =       16879.8453

            TOTAL IN =    85600943.8942              TOTAL IN =       71773.1720

          OUT:                                     OUT:
          ----                                     ----
             STORAGE =      940429.1871               STORAGE =           0.0000
       CONSTANT HEAD =           0.0000         CONSTANT HEAD =           0.0000
               WELLS =    24783055.5982                 WELLS =       30149.7027
            RECHARGE =           0.0000              RECHARGE =           0.0000
      STREAM LEAKAGE =    59877460.9239        STREAM LEAKAGE =       41623.4701

           TOTAL OUT =    85600945.7092             TOTAL OUT =       71773.1727

            IN - OUT =          -1.8150              IN - OUT =      -7.6198E-04

 PERCENT DISCREPANCY =          -0.00     PERCENT DISCREPANCY =          -0.00






         TIME SUMMARY AT END OF TIME STEP    1 IN STRESS PERIOD    9
                    SECONDS     MINUTES      HOURS       DAYS        YEARS
                    -----------------------------------------------------------
   TIME STEP LENGTH 7.94880E+06 1.32480E+05  2208.0      92.000     0.25188    
 STRESS PERIOD TIME 7.94880E+06 1.32480E+05  2208.0      92.000     0.25188    
         TOTAL TIME 7.10208E+07 1.18368E+06  19728.      822.00      2.2505    
1
1
                            STRESS PERIOD NO.   10, LENGTH =   91.00000    
                            -----------------------------------------------

                              NUMBER OF TIME STEPS =     1

                               MULTIPLIER FOR DELT =     1.500

                            INITIAL TIME STEP SIZE =   91.00000    

 WELL NO.  LAYER   ROW   COL   STRESS RATE         
 --------------------------------------------------
      1      1     11     18     -0.1246E+05
      2      1      5     20      -7658.    
      3      1     11     16      -434.0    
      4      1     11     19      -9596.    

      4 WELLS

                 RECHARGE =  2.000000E-03

 REUSING STREAM SEGMENT DATA FROM LAST STRESS PERIOD
 
 SOLVING FOR HEAD 


     7 CALLS TO PCG ROUTINE FOR TIME STEP   1 IN STRESS PERIOD   10
    26 TOTAL ITERATIONS

 OUTPUT CONTROL FOR STRESS PERIOD   10   TIME STEP    1
    SAVE BUDGET
    SAVE HEAD FOR ALL LAYERS
    PRINT HEAD FOR ALL LAYERS
 UBDSV2 SAVING "STREAMFLOW OUT  " ON UNIT  50 AT TIME STEP  1, STRESS PERIOD  10



 STREAM LISTING     PERIOD     10   STEP        1

 LAYER ROW COL. STREAM  RCH.  FLOW INTO     FLOW TO   FLOW OUT OF   OVRLND.     DIRECT     STREAM       STREAM     STREAM     STREAM   STREAMBED  STREAMBED
                SEG.NO.  NO.  STRM. RCH.    AQUIFER    STRM. RCH.    RUNOFF     PRECIP       ET          HEAD       DEPTH      WIDTH   CONDCTNC.   GRADIENT

   1   13    1     1     1    1.0000E+05 -2.0245E+03   1.0202E+05  0.000E+00  0.000E+00  0.000E+00  4.84069E+01  1.455E-01  2.000E+01  2.000E+04 -1.012E-01
   1   13    2     1     2    1.0202E+05 -3.0067E+03   1.0503E+05  0.000E+00  0.000E+00  0.000E+00  4.79318E+01  1.477E-01  2.000E+01  2.000E+04 -1.503E-01
   1   14    3     1     3    1.0503E+05 -5.8514E+02   1.0562E+05  0.000E+00  0.000E+00  0.000E+00  4.74560E+01  1.492E-01  2.000E+01  2.000E+04 -2.926E-02
   1   15    4     1     4    1.0562E+05 -5.7243E+02   1.0619E+05  0.000E+00  0.000E+00  0.000E+00  4.69793E+01  1.497E-01  2.000E+01  2.000E+04 -2.862E-02
   1   16    5     1     5    1.0619E+05 -2.1011E+03   1.0829E+05  0.000E+00  0.000E+00  0.000E+00  4.65031E+01  1.508E-01  2.000E+01  2.000E+04 -1.051E-01
   1   16    6     1     6    1.0829E+05 -1.3079E+03   1.0960E+05  0.000E+00  0.000E+00  0.000E+00  4.60273E+01  1.523E-01  2.000E+01  2.000E+04 -6.539E-02
   1   16    7     1     7    1.0960E+05 -1.2783E+03   1.1088E+05  0.000E+00  0.000E+00  0.000E+00  4.55511E+01  1.534E-01  2.000E+01  2.000E+04 -6.392E-02
   1   16    8     1     8    1.1088E+05 -1.2741E+03   1.1215E+05  0.000E+00  0.000E+00  0.000E+00  4.50749E+01  1.544E-01  2.000E+01  2.000E+04 -6.370E-02
   1   16    9     1     9    1.1215E+05 -1.2711E+03   1.1342E+05  0.000E+00  0.000E+00  0.000E+00  4.45987E+01  1.555E-01  2.000E+01  2.000E+04 -6.356E-02
   1   16   10     1    10    1.1342E+05 -1.2682E+03   1.1469E+05  0.000E+00  0.000E+00  0.000E+00  4.41224E+01  1.565E-01  2.000E+01  2.000E+04 -6.341E-02
   1   16   11     1    11    1.1469E+05 -1.2859E+03   1.1598E+05  0.000E+00  0.000E+00  0.000E+00  4.36462E+01  1.576E-01  2.000E+01  2.000E+04 -6.430E-02
   1   16   12     1    12    1.1598E+05 -2.1541E+03   1.1813E+05  0.000E+00  0.000E+00  0.000E+00  4.31703E+01  1.590E-01  2.000E+01  2.000E+04 -1.077E-01
   1   15   13     1    13    1.1813E+05 -1.9204E+03   1.2005E+05  0.000E+00  0.000E+00  0.000E+00  4.26947E+01  1.606E-01  2.000E+01  2.000E+04 -9.602E-02
   1   14   14     1    14    1.2005E+05 -2.0012E+03   1.2205E+05  0.000E+00  0.000E+00  0.000E+00  4.22190E+01  1.622E-01  2.000E+01  2.000E+04 -1.001E-01
   1   13   15     1    15    1.2205E+05 -1.9349E+03   1.2399E+05  0.000E+00  0.000E+00  0.000E+00  4.17433E+01  1.638E-01  2.000E+01  2.000E+04 -9.675E-02
   1   12   16     1    16    1.2399E+05 -1.1175E+03   1.2510E+05  0.000E+00  0.000E+00  0.000E+00  4.12673E+01  1.650E-01  2.000E+01  2.000E+04 -5.587E-02
   1   12   17     1    17    1.2510E+05  6.4751E+02   1.2446E+05  0.000E+00  0.000E+00  0.000E+00  4.07902E+01  1.652E-01  2.000E+01  2.000E+04  3.238E-02
   1   12   18     1    18    1.2446E+05  4.0428E+03   1.2041E+05  0.000E+00  0.000E+00  0.000E+00  4.03111E+01  1.633E-01  2.000E+01  2.000E+04  2.021E-01
   1   12   19     1    19    1.2041E+05  3.8602E+03   1.1655E+05  0.000E+00  0.000E+00  0.000E+00  3.98306E+01  1.601E-01  2.000E+01  2.000E+04  1.930E-01
   1   13   20     1    20    1.1655E+05 -7.6017E+02   1.1731E+05  0.000E+00  0.000E+00  0.000E+00  3.93521E+01  1.589E-01  2.000E+01  2.000E+04 -3.801E-02
   1   14   21     1    21    1.1731E+05 -1.6785E+03   1.1899E+05  0.000E+00  0.000E+00  0.000E+00  3.88758E+01  1.599E-01  2.000E+01  2.000E+04 -8.393E-02
   1   14   22     1    22    1.1899E+05  4.7940E+03   1.1420E+05  0.000E+00  0.000E+00  0.000E+00  3.83972E+01  1.586E-01  2.000E+01  2.000E+04  2.397E-01
   1    9   30     2     1    5.0000E+04 -7.2121E+02   5.0721E+04  0.000E+00  0.000E+00  0.000E+00  4.02414E+01  1.164E-01  2.000E+01  2.000E+04 -3.606E-02
   1    9   29     2     2    5.0721E+04 -9.8657E+02   5.1708E+04  0.000E+00  0.000E+00  0.000E+00  3.99925E+01  1.175E-01  2.000E+01  2.000E+04 -4.933E-02
   1    9   28     2     3    5.1708E+04 -1.1568E+03   5.2865E+04  0.000E+00  0.000E+00  0.000E+00  3.97440E+01  1.190E-01  2.000E+01  2.000E+04 -5.784E-02
   1    9   27     2     4    5.2865E+04 -2.0026E+03   5.4867E+04  0.000E+00  0.000E+00  0.000E+00  3.94962E+01  1.212E-01  2.000E+01  2.000E+04 -1.001E-01
   1   10   26     2     5    5.4867E+04 -1.2580E+03   5.6125E+04  0.000E+00  0.000E+00  0.000E+00  3.92483E+01  1.233E-01  2.000E+01  2.000E+04 -6.290E-02
   1   11   25     2     6    5.6125E+04 -9.7997E+02   5.7105E+04  0.000E+00  0.000E+00  0.000E+00  3.89998E+01  1.248E-01  2.000E+01  2.000E+04 -4.900E-02
   1   12   24     2     7    5.7105E+04 -8.6762E+02   5.7973E+04  0.000E+00  0.000E+00  0.000E+00  3.87511E+01  1.261E-01  2.000E+01  2.000E+04 -4.338E-02
   1   13   23     2     8    5.7973E+04 -1.8929E+02   5.8162E+04  0.000E+00  0.000E+00  0.000E+00  3.85017E+01  1.267E-01  2.000E+01  2.000E+04 -9.465E-03
   1   14   22     2     9    5.8162E+04  1.8620E+03   5.6300E+04  0.000E+00  0.000E+00  0.000E+00  3.82506E+01  1.256E-01  2.000E+01  2.000E+04  9.310E-02
   1   14   22     3     1    1.7050E+05 -8.6831E+03   1.7918E+05  0.000E+00  0.000E+00  0.000E+00  3.77234E+01  1.678E-01  2.000E+01  2.000E+04 -4.342E-01
   1   15   23     3     2    1.7918E+05 -6.6443E+02   1.7985E+05  0.000E+00  0.000E+00  0.000E+00  3.68372E+01  1.705E-01  2.000E+01  2.000E+04 -3.322E-02
   1   15   24     3     3    1.7985E+05 -3.8211E+02   1.8023E+05  0.000E+00  0.000E+00  0.000E+00  3.59486E+01  1.708E-01  2.000E+01  2.000E+04 -1.911E-02
   1   15   25     3     4    1.8023E+05 -3.7677E+02   1.8060E+05  0.000E+00  0.000E+00  0.000E+00  3.50599E+01  1.710E-01  2.000E+01  2.000E+04 -1.884E-02
   1   15   26     3     5    1.8060E+05 -4.5032E+02   1.8105E+05  0.000E+00  0.000E+00  0.000E+00  3.41713E+01  1.713E-01  2.000E+01  2.000E+04 -2.252E-02
   1   16   27     3     6    1.8105E+05 -4.9936E+02   1.8155E+05  0.000E+00  0.000E+00  0.000E+00  3.32826E+01  1.715E-01  2.000E+01  2.000E+04 -2.497E-02
   1   17   28     3     7    1.8155E+05 -1.9375E+03   1.8349E+05  0.000E+00  0.000E+00  0.000E+00  3.23944E+01  1.722E-01  2.000E+01  2.000E+04 -9.687E-02
   1   18   29     3     8    1.8349E+05 -3.3054E+03   1.8680E+05  0.000E+00  0.000E+00  0.000E+00  3.15070E+01  1.737E-01  2.000E+01  2.000E+04 -1.653E-01
   1   18   30     3     9    1.8680E+05 -3.4890E+03   1.9029E+05  0.000E+00  0.000E+00  0.000E+00  3.06201E+01  1.756E-01  2.000E+01  2.000E+04 -1.744E-01



1
              HEAD IN LAYER   1 AT END OF TIME STEP   1 IN STRESS PERIOD   10
  ---------------------------------------------------------------------------

          1      2      3      4      5      6      7      8      9     10
         11     12     13     14     15     16     17     18     19     20
         21     22     23     24     25     26     27     28     29     30
 .........................................................................
   1  ****** ****** ****** ****** ****** ****** ****** ****** ****** ******
      ****** ****** ****** ****** ****** ****** ****** ****** ****** ******
      ****** ****** ****** ****** ****** ****** ****** ****** ****** ******
   2  ****** ****** ****** ****** ****** ****** ****** ****** ****** ******
      ****** ****** ****** ****** ****** ****** ****** ****** ****** ******
      ****** ****** ****** ****** ****** ****** ****** ****** ****** ******
   3  ****** ****** ****** ****** ****** ****** ****** ****** ****** ******
      ****** ****** ****** ****** ****** ****** ****** ****** ****** ******
      ****** ****** ****** ****** ****** ****** ****** ****** ****** ******
   4  ****** ****** ****** ****** ****** ****** ****** ****** ****** ******
      ****** ****** ****** ****** ****** ****** ****** ****** ****** ******
      ****** ****** ****** ****** ****** ****** ****** ****** ****** ******
   5  ****** ****** ****** ****** ****** ****** ****** ****** ****** ******
      ****** ****** ****** ****** ****** ****** ****** ****** ****** ******
      ****** ****** ****** ****** ****** ****** ****** ****** ****** ******
   6  ****** ****** ****** ****** ****** ****** ****** ****** ****** ******
      ****** ****** ****** ****** ****** ****** ****** ****** ****** ******
      ****** ****** ****** ****** ****** ****** ****** ****** ****** ******
   7  ****** ****** ****** ****** ****** ****** ****** ****** ****** ******
      ****** ****** ****** ****** ****** ****** ****** ****** ****** ******
      ****** ****** ****** ****** ****** ****** ****** ****** ****** ******
   8  ****** ****** ****** ****** ****** ****** ****** ****** ****** ******
      ****** ****** ****** ****** ****** ****** ****** ****** ****** ******
      ****** ****** ****** ****** ****** ****** ****** ****** ****** ******
   9  ****** ****** ****** ****** ****** ****** ****** ****** ****** ******
      ****** ****** ****** ****** ****** ****** ****** ****** ****** ******
      ****** ****** ****** ****** ****** ****** ****** ****** ****** ******
  10  ****** ****** ****** ****** ****** ****** ****** ****** ****** ******
      ****** ****** ****** ****** ****** ****** ****** ****** ****** ******
      ****** ****** ****** ****** ****** ****** ****** ****** ****** ******
  11  ****** ****** ****** ****** ****** ****** ****** ****** ****** ******
      ****** ****** ****** ****** ****** ****** ****** ****** ****** ******
      ****** ****** ****** ****** ****** ****** ****** ****** ****** ******
  12  ****** ****** ****** ****** ****** ****** ****** ****** ****** ******
      ****** ****** ****** ****** ****** ****** ****** ****** ****** ******
      ****** ****** ****** ****** ****** ****** ****** ****** ****** ******
  13  ****** ****** ****** ****** ****** ****** ****** ****** ****** ******
      ****** ****** ****** ****** ****** ****** ****** ****** ****** ******
      ****** ****** ****** ****** ****** ****** ****** ****** ****** ******
  14  ****** ****** ****** ****** ****** ****** ****** ****** ****** ******
      ****** ****** ****** ****** ****** ****** ****** ****** ****** ******
      ****** ****** ****** ****** ****** ****** ****** ****** ****** ******
  15  ****** ****** ****** ****** ****** ****** ****** ****** ****** ******
      ****** ****** ****** ****** ****** ****** ****** ****** ****** ******
      ****** ****** ****** ****** ****** ****** ****** ****** ****** ******
  16  ****** ****** ****** ****** ****** ****** ****** ****** ****** ******
      ****** ****** ****** ****** ****** ****** ****** ****** ****** ******
      ****** ****** ****** ****** ****** ****** ****** ****** ****** ******
  17  ****** ****** ****** ****** ****** ****** ****** ****** ****** ******
      ****** ****** ****** ****** ****** ****** ****** ****** ****** ******
      ****** ****** ****** ****** ****** ****** ****** ****** ****** ******
  18  ****** ****** ****** ****** ****** ****** ****** ****** ****** ******
      ****** ****** ****** ****** ****** ****** ****** ****** ****** ******
      ****** ****** ****** ****** ****** ****** ****** ****** ****** ******
  19  ****** ****** ****** ****** ****** ****** ****** ****** ****** ******
      ****** ****** ****** ****** ****** ****** ****** ****** ****** ******
      ****** ****** ****** ****** ****** ****** ****** ****** ****** ******
  20  ****** ****** ****** ****** ****** ****** ****** ****** ****** ******
      ****** ****** ****** ****** ****** ****** ****** ****** ****** ******
      ****** ****** ****** ****** ****** ****** ****** ****** ****** ******
  21  ****** ****** ****** ****** ****** ****** ****** ****** ****** ******
      ****** ****** ****** ****** ****** ****** ****** ****** ****** ******
      ****** ****** ****** ****** ****** ****** ****** ****** ****** ******
  22  ****** ****** ****** ****** ****** ****** ****** ****** ****** ******
      ****** ****** ****** ****** ****** ****** ****** ****** ****** ******
      ****** ****** ****** ****** ****** ****** ****** ****** ****** ******
  23  ****** ****** ****** ****** ****** ****** ****** ****** ****** ******
      ****** ****** ****** ****** ****** ****** ****** ****** ****** ******
      ****** ****** ****** ****** ****** ****** ****** ****** ****** ******
  24  ****** ****** ****** ****** ****** ****** ****** ****** ****** ******
      ****** ****** ****** ****** ****** ****** ****** ****** ****** ******
      ****** ****** ****** ****** ****** ****** ****** ****** ****** ******
  25  ****** ****** ****** ****** ****** ****** ****** ****** ****** ******
      ****** ****** ****** ****** ****** ****** ****** ****** ****** ******
      ****** ****** ****** ****** ****** ****** ****** ****** ****** ******

 HEAD WILL BE SAVED ON UNIT   51 AT END OF TIME STEP    1, STRESS PERIOD   10
1
  VOLUMETRIC BUDGET FOR ENTIRE MODEL AT END OF TIME STEP    1, STRESS PERIOD  10
  ------------------------------------------------------------------------------

     CUMULATIVE VOLUMES      L**3       RATES FOR THIS TIME STEP      L**3/T
     ------------------                 ------------------------

           IN:                                      IN:
           ---                                      ---
             STORAGE =    33486055.2701               STORAGE =           0.0000
       CONSTANT HEAD =    24948553.0513         CONSTANT HEAD =       30901.0879
               WELLS =           0.0000                 WELLS =           0.0000
            RECHARGE =    23901600.0000              RECHARGE =       55200.0000
      STREAM LEAKAGE =    12483716.2239        STREAM LEAKAGE =       15206.3918

            TOTAL IN =    94819924.5453              TOTAL IN =      101307.4797

          OUT:                                     OUT:
          ----                                     ----
             STORAGE =     2365997.7640               STORAGE =       15665.5888
       CONSTANT HEAD =           0.0000         CONSTANT HEAD =           0.0000
               WELLS =    27526678.5415                 WELLS =       30149.7027
            RECHARGE =           0.0000              RECHARGE =           0.0000
      STREAM LEAKAGE =    64927249.7152        STREAM LEAKAGE =       55492.1845

           TOTAL OUT =    94819926.0207             TOTAL OUT =      101307.4759

            IN - OUT =          -1.4754              IN - OUT =       3.7319E-03

 PERCENT DISCREPANCY =          -0.00     PERCENT DISCREPANCY =           0.00






         TIME SUMMARY AT END OF TIME STEP    1 IN STRESS PERIOD   10
                    SECONDS     MINUTES      HOURS       DAYS        YEARS
                    -----------------------------------------------------------
   TIME STEP LENGTH 7.86240E+06 1.31040E+05  2184.0      91.000     0.24914    
 STRESS PERIOD TIME 7.86240E+06 1.31040E+05  2184.0      91.000     0.24914    
         TOTAL TIME 7.88832E+07 1.31472E+06  21912.      913.00      2.4997    
1
1
                            STRESS PERIOD NO.   11, LENGTH =   91.00000    
                            -----------------------------------------------

                              NUMBER OF TIME STEPS =     1

                               MULTIPLIER FOR DELT =     1.500

                            INITIAL TIME STEP SIZE =   91.00000    

 WELL NO.  LAYER   ROW   COL   STRESS RATE         
 --------------------------------------------------
      1      1     11     18     -0.1246E+05
      2      1      5     20      -7658.    
      3      1     11     16      -434.0    
      4      1     11     19      -9596.    

      4 WELLS

                 RECHARGE =   0.00000    

 REUSING STREAM SEGMENT DATA FROM LAST STRESS PERIOD
 
 SOLVING FOR HEAD 


     7 CALLS TO PCG ROUTINE FOR TIME STEP   1 IN STRESS PERIOD   11
    26 TOTAL ITERATIONS

 OUTPUT CONTROL FOR STRESS PERIOD   11   TIME STEP    1
    SAVE BUDGET
    SAVE HEAD FOR ALL LAYERS
    PRINT HEAD FOR ALL LAYERS
 UBDSV2 SAVING "STREAMFLOW OUT  " ON UNIT  50 AT TIME STEP  1, STRESS PERIOD  11



 STREAM LISTING     PERIOD     11   STEP        1

 LAYER ROW COL. STREAM  RCH.  FLOW INTO     FLOW TO   FLOW OUT OF   OVRLND.     DIRECT     STREAM       STREAM     STREAM     STREAM   STREAMBED  STREAMBED
                SEG.NO.  NO.  STRM. RCH.    AQUIFER    STRM. RCH.    RUNOFF     PRECIP       ET          HEAD       DEPTH      WIDTH   CONDCTNC.   GRADIENT

   1   13    1     1     1    1.0000E+05 -1.4557E+03   1.0146E+05  0.000E+00  0.000E+00  0.000E+00  4.84066E+01  1.453E-01  2.000E+01  2.000E+04 -7.279E-02
   1   13    2     1     2    1.0146E+05 -2.3733E+03   1.0383E+05  0.000E+00  0.000E+00  0.000E+00  4.79310E+01  1.469E-01  2.000E+01  2.000E+04 -1.187E-01
   1   14    3     1     3    1.0383E+05 -3.5407E+02   1.0418E+05  0.000E+00  0.000E+00  0.000E+00  4.74549E+01  1.481E-01  2.000E+01  2.000E+04 -1.770E-02
   1   15    4     1     4    1.0418E+05 -3.3042E+02   1.0451E+05  0.000E+00  0.000E+00  0.000E+00  4.69779E+01  1.484E-01  2.000E+01  2.000E+04 -1.652E-02
   1   16    5     1     5    1.0451E+05 -1.4134E+03   1.0593E+05  0.000E+00  0.000E+00  0.000E+00  4.65014E+01  1.491E-01  2.000E+01  2.000E+04 -7.067E-02
   1   16    6     1     6    1.0593E+05 -8.9364E+02   1.0682E+05  0.000E+00  0.000E+00  0.000E+00  4.60251E+01  1.501E-01  2.000E+01  2.000E+04 -4.468E-02
   1   16    7     1     7    1.0682E+05 -8.8164E+02   1.0770E+05  0.000E+00  0.000E+00  0.000E+00  4.55486E+01  1.509E-01  2.000E+01  2.000E+04 -4.408E-02
   1   16    8     1     8    1.0770E+05 -8.8291E+02   1.0859E+05  0.000E+00  0.000E+00  0.000E+00  4.50721E+01  1.516E-01  2.000E+01  2.000E+04 -4.415E-02
   1   16    9     1     9    1.0859E+05 -8.8223E+02   1.0947E+05  0.000E+00  0.000E+00  0.000E+00  4.45955E+01  1.524E-01  2.000E+01  2.000E+04 -4.411E-02
   1   16   10     1    10    1.0947E+05 -8.8039E+02   1.1035E+05  0.000E+00  0.000E+00  0.000E+00  4.41190E+01  1.531E-01  2.000E+01  2.000E+04 -4.402E-02
   1   16   11     1    11    1.1035E+05 -8.9643E+02   1.1124E+05  0.000E+00  0.000E+00  0.000E+00  4.36425E+01  1.538E-01  2.000E+01  2.000E+04 -4.482E-02
   1   16   12     1    12    1.1124E+05 -1.5087E+03   1.1275E+05  0.000E+00  0.000E+00  0.000E+00  4.31662E+01  1.548E-01  2.000E+01  2.000E+04 -7.544E-02
   1   15   13     1    13    1.1275E+05 -1.2317E+03   1.1398E+05  0.000E+00  0.000E+00  0.000E+00  4.26901E+01  1.560E-01  2.000E+01  2.000E+04 -6.159E-02
   1   14   14     1    14    1.1398E+05 -1.2945E+03   1.1528E+05  0.000E+00  0.000E+00  0.000E+00  4.22138E+01  1.570E-01  2.000E+01  2.000E+04 -6.473E-02
   1   13   15     1    15    1.1528E+05 -1.2336E+03   1.1651E+05  0.000E+00  0.000E+00  0.000E+00  4.17376E+01  1.580E-01  2.000E+01  2.000E+04 -6.168E-02
   1   12   16     1    16    1.1651E+05 -4.3918E+02   1.1695E+05  0.000E+00  0.000E+00  0.000E+00  4.12610E+01  1.587E-01  2.000E+01  2.000E+04 -2.196E-02
   1   12   17     1    17    1.1695E+05  1.1547E+03   1.1580E+05  0.000E+00  0.000E+00  0.000E+00  4.07834E+01  1.584E-01  2.000E+01  2.000E+04  5.773E-02
   1   12   18     1    18    1.1580E+05  4.5421E+03   1.1126E+05  0.000E+00  0.000E+00  0.000E+00  4.03038E+01  1.561E-01  2.000E+01  2.000E+04  2.271E-01
   1   12   19     1    19    1.1126E+05  4.4731E+03   1.0678E+05  0.000E+00  0.000E+00  0.000E+00  3.98228E+01  1.523E-01  2.000E+01  2.000E+04  2.237E-01
   1   13   20     1    20    1.0678E+05 -1.4813E+02   1.0693E+05  0.000E+00  0.000E+00  0.000E+00  3.93437E+01  1.505E-01  2.000E+01  2.000E+04 -7.406E-03
   1   14   21     1    21    1.0693E+05 -1.0823E+03   1.0801E+05  0.000E+00  0.000E+00  0.000E+00  3.88670E+01  1.510E-01  2.000E+01  2.000E+04 -5.412E-02
   1   14   22     1    22    1.0801E+05  4.9377E+03   1.0307E+05  0.000E+00  0.000E+00  0.000E+00  3.83880E+01  1.494E-01  2.000E+01  2.000E+04  2.469E-01
   1    9   30     2     1    5.0000E+04 -2.3303E+02   5.0233E+04  0.000E+00  0.000E+00  0.000E+00  4.02410E+01  1.160E-01  2.000E+01  2.000E+04 -1.165E-02
   1    9   29     2     2    5.0233E+04 -5.0143E+02   5.0734E+04  0.000E+00  0.000E+00  0.000E+00  3.99915E+01  1.165E-01  2.000E+01  2.000E+04 -2.507E-02
   1    9   28     2     3    5.0734E+04 -6.7384E+02   5.1408E+04  0.000E+00  0.000E+00  0.000E+00  3.97423E+01  1.173E-01  2.000E+01  2.000E+04 -3.369E-02
   1    9   27     2     4    5.1408E+04 -1.3625E+03   5.2771E+04  0.000E+00  0.000E+00  0.000E+00  3.94937E+01  1.187E-01  2.000E+01  2.000E+04 -6.812E-02
   1   10   26     2     5    5.2771E+04 -6.0351E+02   5.3374E+04  0.000E+00  0.000E+00  0.000E+00  3.92451E+01  1.201E-01  2.000E+01  2.000E+04 -3.018E-02
   1   11   25     2     6    5.3374E+04 -3.4935E+02   5.3724E+04  0.000E+00  0.000E+00  0.000E+00  3.89957E+01  1.207E-01  2.000E+01  2.000E+04 -1.747E-02
   1   12   24     2     7    5.3724E+04 -2.9399E+02   5.4018E+04  0.000E+00  0.000E+00  0.000E+00  3.87462E+01  1.212E-01  2.000E+01  2.000E+04 -1.470E-02
   1   13   23     2     8    5.4018E+04 -3.3717E+00   5.4021E+04  0.000E+00  0.000E+00  0.000E+00  3.84964E+01  1.214E-01  2.000E+01  2.000E+04 -1.686E-04
   1   14   22     2     9    5.4021E+04  2.0761E+03   5.1945E+04  0.000E+00  0.000E+00  0.000E+00  3.82450E+01  1.200E-01  2.000E+01  2.000E+04  1.038E-01
   1   14   22     3     1    1.5502E+05 -8.5379E+03   1.6356E+05  0.000E+00  0.000E+00  0.000E+00  3.77143E+01  1.587E-01  2.000E+01  2.000E+04 -4.269E-01
   1   15   23     3     2    1.6356E+05 -4.7256E+02   1.6403E+05  0.000E+00  0.000E+00  0.000E+00  3.68281E+01  1.614E-01  2.000E+01  2.000E+04 -2.363E-02
   1   15   24     3     3    1.6403E+05 -2.1709E+02   1.6425E+05  0.000E+00  0.000E+00  0.000E+00  3.59394E+01  1.616E-01  2.000E+01  2.000E+04 -1.085E-02
   1   15   25     3     4    1.6425E+05 -2.0791E+02   1.6446E+05  0.000E+00  0.000E+00  0.000E+00  3.50506E+01  1.617E-01  2.000E+01  2.000E+04 -1.040E-02
   1   15   26     3     5    1.6446E+05 -2.5470E+02   1.6471E+05  0.000E+00  0.000E+00  0.000E+00  3.41619E+01  1.619E-01  2.000E+01  2.000E+04 -1.273E-02
   1   16   27     3     6    1.6471E+05 -2.7647E+02   1.6499E+05  0.000E+00  0.000E+00  0.000E+00  3.32731E+01  1.620E-01  2.000E+01  2.000E+04 -1.382E-02
   1   17   28     3     7    1.6499E+05 -1.3282E+03   1.6631E+05  0.000E+00  0.000E+00  0.000E+00  3.23847E+01  1.625E-01  2.000E+01  2.000E+04 -6.641E-02
   1   18   29     3     8    1.6631E+05 -2.6843E+03   1.6900E+05  0.000E+00  0.000E+00  0.000E+00  3.14970E+01  1.637E-01  2.000E+01  2.000E+04 -1.342E-01
   1   18   30     3     9    1.6900E+05 -3.0002E+03   1.7200E+05  0.000E+00  0.000E+00  0.000E+00  3.06098E+01  1.653E-01  2.000E+01  2.000E+04 -1.500E-01



1
              HEAD IN LAYER   1 AT END OF TIME STEP   1 IN STRESS PERIOD   11
  ---------------------------------------------------------------------------

          1      2      3      4      5      6      7      8      9     10
         11     12     13     14     15     16     17     18     19     20
         21     22     23     24     25     26     27     28     29     30
 .........................................................................
   1  ****** ****** ****** ****** ****** ****** ****** ****** ****** ******
      ****** ****** ****** ****** ****** ****** ****** ****** ****** ******
      ****** ****** ****** ****** ****** ****** ****** ****** ****** ******
   2  ****** ****** ****** ****** ****** ****** ****** ****** ****** ******
      ****** ****** ****** ****** ****** ****** ****** ****** ****** ******
      ****** ****** ****** ****** ****** ****** ****** ****** ****** ******
   3  ****** ****** ****** ****** ****** ****** ****** ****** ****** ******
      ****** ****** ****** ****** ****** ****** ****** ****** ****** ******
      ****** ****** ****** ****** ****** ****** ****** ****** ****** ******
   4  ****** ****** ****** ****** ****** ****** ****** ****** ****** ******
      ****** ****** ****** ****** ****** ****** ****** ****** ****** ******
      ****** ****** ****** ****** ****** ****** ****** ****** ****** ******
   5  ****** ****** ****** ****** ****** ****** ****** ****** ****** ******
      ****** ****** ****** ****** ****** ****** ****** ****** ****** ******
      ****** ****** ****** ****** ****** ****** ****** ****** ****** ******
   6  ****** ****** ****** ****** ****** ****** ****** ****** ****** ******
      ****** ****** ****** ****** ****** ****** ****** ****** ****** ******
      ****** ****** ****** ****** ****** ****** ****** ****** ****** ******
   7  ****** ****** ****** ****** ****** ****** ****** ****** ****** ******
      ****** ****** ****** ****** ****** ****** ****** ****** ****** ******
      ****** ****** ****** ****** ****** ****** ****** ****** ****** ******
   8  ****** ****** ****** ****** ****** ****** ****** ****** ****** ******
      ****** ****** ****** ****** ****** ****** ****** ****** ****** ******
      ****** ****** ****** ****** ****** ****** ****** ****** ****** ******
   9  ****** ****** ****** ****** ****** ****** ****** ****** ****** ******
      ****** ****** ****** ****** ****** ****** ****** ****** ****** ******
      ****** ****** ****** ****** ****** ****** ****** ****** ****** ******
  10  ****** ****** ****** ****** ****** ****** ****** ****** ****** ******
      ****** ****** ****** ****** ****** ****** ****** ****** ****** ******
      ****** ****** ****** ****** ****** ****** ****** ****** ****** ******
  11  ****** ****** ****** ****** ****** ****** ****** ****** ****** ******
      ****** ****** ****** ****** ****** ****** ****** ****** ****** ******
      ****** ****** ****** ****** ****** ****** ****** ****** ****** ******
  12  ****** ****** ****** ****** ****** ****** ****** ****** ****** ******
      ****** ****** ****** ****** ****** ****** ****** ****** ****** ******
      ****** ****** ****** ****** ****** ****** ****** ****** ****** ******
  13  ****** ****** ****** ****** ****** ****** ****** ****** ****** ******
      ****** ****** ****** ****** ****** ****** ****** ****** ****** ******
      ****** ****** ****** ****** ****** ****** ****** ****** ****** ******
  14  ****** ****** ****** ****** ****** ****** ****** ****** ****** ******
      ****** ****** ****** ****** ****** ****** ****** ****** ****** ******
      ****** ****** ****** ****** ****** ****** ****** ****** ****** ******
  15  ****** ****** ****** ****** ****** ****** ****** ****** ****** ******
      ****** ****** ****** ****** ****** ****** ****** ****** ****** ******
      ****** ****** ****** ****** ****** ****** ****** ****** ****** ******
  16  ****** ****** ****** ****** ****** ****** ****** ****** ****** ******
      ****** ****** ****** ****** ****** ****** ****** ****** ****** ******
      ****** ****** ****** ****** ****** ****** ****** ****** ****** ******
  17  ****** ****** ****** ****** ****** ****** ****** ****** ****** ******
      ****** ****** ****** ****** ****** ****** ****** ****** ****** ******
      ****** ****** ****** ****** ****** ****** ****** ****** ****** ******
  18  ****** ****** ****** ****** ****** ****** ****** ****** ****** ******
      ****** ****** ****** ****** ****** ****** ****** ****** ****** ******
      ****** ****** ****** ****** ****** ****** ****** ****** ****** ******
  19  ****** ****** ****** ****** ****** ****** ****** ****** ****** ******
      ****** ****** ****** ****** ****** ****** ****** ****** ****** ******
      ****** ****** ****** ****** ****** ****** ****** ****** ****** ******
  20  ****** ****** ****** ****** ****** ****** ****** ****** ****** ******
      ****** ****** ****** ****** ****** ****** ****** ****** ****** ******
      ****** ****** ****** ****** ****** ****** ****** ****** ****** ******
  21  ****** ****** ****** ****** ****** ****** ****** ****** ****** ******
      ****** ****** ****** ****** ****** ****** ****** ****** ****** ******
      ****** ****** ****** ****** ****** ****** ****** ****** ****** ******
  22  ****** ****** ****** ****** ****** ****** ****** ****** ****** ******
      ****** ****** ****** ****** ****** ****** ****** ****** ****** ******
      ****** ****** ****** ****** ****** ****** ****** ****** ****** ******
  23  ****** ****** ****** ****** ****** ****** ****** ****** ****** ******
      ****** ****** ****** ****** ****** ****** ****** ****** ****** ******
      ****** ****** ****** ****** ****** ****** ****** ****** ****** ******
  24  ****** ****** ****** ****** ****** ****** ****** ****** ****** ******
      ****** ****** ****** ****** ****** ****** ****** ****** ****** ******
      ****** ****** ****** ****** ****** ****** ****** ****** ****** ******
  25  ****** ****** ****** ****** ****** ****** ****** ****** ****** ******
      ****** ****** ****** ****** ****** ****** ****** ****** ****** ******
      ****** ****** ****** ****** ****** ****** ****** ****** ****** ******

 HEAD WILL BE SAVED ON UNIT   51 AT END OF TIME STEP    1, STRESS PERIOD   11
1
  VOLUMETRIC BUDGET FOR ENTIRE MODEL AT END OF TIME STEP    1, STRESS PERIOD  11
  ------------------------------------------------------------------------------

     CUMULATIVE VOLUMES      L**3       RATES FOR THIS TIME STEP      L**3/T
     ------------------                 ------------------------

           IN:                                      IN:
           ---                                      ---
             STORAGE =    35120426.1669               STORAGE =       17960.1197
       CONSTANT HEAD =    28059706.9844         CONSTANT HEAD =       34188.5048
               WELLS =           0.0000                 WELLS =           0.0000
            RECHARGE =    23901600.0000              RECHARGE =           0.0000
      STREAM LEAKAGE =    14047436.4056        STREAM LEAKAGE =       17183.7383

            TOTAL IN =   101129169.5570              TOTAL IN =       69332.3628

          OUT:                                     OUT:
          ----                                     ----
             STORAGE =     2365997.7640               STORAGE =           0.0000
       CONSTANT HEAD =           0.0000         CONSTANT HEAD =           0.0000
               WELLS =    30270301.4849                 WELLS =       30149.7027
            RECHARGE =           0.0000              RECHARGE =           0.0000
      STREAM LEAKAGE =    68492872.2283        STREAM LEAKAGE =       39182.6650

           TOTAL OUT =   101129171.4771             TOTAL OUT =       69332.3677

            IN - OUT =          -1.9201              IN - OUT =      -4.8874E-03

 PERCENT DISCREPANCY =          -0.00     PERCENT DISCREPANCY =          -0.00






         TIME SUMMARY AT END OF TIME STEP    1 IN STRESS PERIOD   11
                    SECONDS     MINUTES      HOURS       DAYS        YEARS
                    -----------------------------------------------------------
   TIME STEP LENGTH 7.86240E+06 1.31040E+05  2184.0      91.000     0.24914    
 STRESS PERIOD TIME 7.86240E+06 1.31040E+05  2184.0      91.000     0.24914    
         TOTAL TIME 8.67456E+07 1.44576E+06  24096.      1004.0      2.7488    
1
1
                            STRESS PERIOD NO.   12, LENGTH =   91.00000    
                            -----------------------------------------------

                              NUMBER OF TIME STEPS =     1

                               MULTIPLIER FOR DELT =     1.500

                            INITIAL TIME STEP SIZE =   91.00000    

 WELL NO.  LAYER   ROW   COL   STRESS RATE         
 --------------------------------------------------
      1      1     11     18     -0.1246E+05
      2      1      5     20      -7658.    
      3      1     11     16      -434.0    
      4      1     11     19      -9596.    

      4 WELLS

                 RECHARGE =  1.000000E-03

 REUSING STREAM SEGMENT DATA FROM LAST STRESS PERIOD
 
 SOLVING FOR HEAD 


     7 CALLS TO PCG ROUTINE FOR TIME STEP   1 IN STRESS PERIOD   12
    24 TOTAL ITERATIONS

 OUTPUT CONTROL FOR STRESS PERIOD   12   TIME STEP    1
    SAVE BUDGET
    SAVE HEAD FOR ALL LAYERS
    PRINT HEAD FOR ALL LAYERS
 UBDSV2 SAVING "STREAMFLOW OUT  " ON UNIT  50 AT TIME STEP  1, STRESS PERIOD  12



 STREAM LISTING     PERIOD     12   STEP        1

 LAYER ROW COL. STREAM  RCH.  FLOW INTO     FLOW TO   FLOW OUT OF   OVRLND.     DIRECT     STREAM       STREAM     STREAM     STREAM   STREAMBED  STREAMBED
                SEG.NO.  NO.  STRM. RCH.    AQUIFER    STRM. RCH.    RUNOFF     PRECIP       ET          HEAD       DEPTH      WIDTH   CONDCTNC.   GRADIENT

   1   13    1     1     1    1.0000E+05 -1.5991E+03   1.0160E+05  0.000E+00  0.000E+00  0.000E+00  4.84067E+01  1.453E-01  2.000E+01  2.000E+04 -7.996E-02
   1   13    2     1     2    1.0160E+05 -2.5274E+03   1.0413E+05  0.000E+00  0.000E+00  0.000E+00  4.79312E+01  1.471E-01  2.000E+01  2.000E+04 -1.264E-01
   1   14    3     1     3    1.0413E+05 -4.3249E+02   1.0456E+05  0.000E+00  0.000E+00  0.000E+00  4.74552E+01  1.484E-01  2.000E+01  2.000E+04 -2.162E-02
   1   15    4     1     4    1.0456E+05 -4.1268E+02   1.0497E+05  0.000E+00  0.000E+00  0.000E+00  4.69783E+01  1.487E-01  2.000E+01  2.000E+04 -2.063E-02
   1   16    5     1     5    1.0497E+05 -1.6233E+03   1.0660E+05  0.000E+00  0.000E+00  0.000E+00  4.65019E+01  1.496E-01  2.000E+01  2.000E+04 -8.117E-02
   1   16    6     1     6    1.0660E+05 -1.0241E+03   1.0762E+05  0.000E+00  0.000E+00  0.000E+00  4.60257E+01  1.507E-01  2.000E+01  2.000E+04 -5.120E-02
   1   16    7     1     7    1.0762E+05 -1.0070E+03   1.0863E+05  0.000E+00  0.000E+00  0.000E+00  4.55493E+01  1.516E-01  2.000E+01  2.000E+04 -5.035E-02
   1   16    8     1     8    1.0863E+05 -1.0072E+03   1.0963E+05  0.000E+00  0.000E+00  0.000E+00  4.50729E+01  1.524E-01  2.000E+01  2.000E+04 -5.036E-02
   1   16    9     1     9    1.0963E+05 -1.0070E+03   1.1064E+05  0.000E+00  0.000E+00  0.000E+00  4.45965E+01  1.533E-01  2.000E+01  2.000E+04 -5.035E-02
   1   16   10     1    10    1.1064E+05 -1.0065E+03   1.1165E+05  0.000E+00  0.000E+00  0.000E+00  4.41200E+01  1.541E-01  2.000E+01  2.000E+04 -5.032E-02
   1   16   11     1    11    1.1165E+05 -1.0248E+03   1.1267E+05  0.000E+00  0.000E+00  0.000E+00  4.36436E+01  1.550E-01  2.000E+01  2.000E+04 -5.124E-02
   1   16   12     1    12    1.1267E+05 -1.7105E+03   1.1438E+05  0.000E+00  0.000E+00  0.000E+00  4.31675E+01  1.561E-01  2.000E+01  2.000E+04 -8.553E-02
   1   15   13     1    13    1.1438E+05 -1.4486E+03   1.1583E+05  0.000E+00  0.000E+00  0.000E+00  4.26915E+01  1.574E-01  2.000E+01  2.000E+04 -7.243E-02
   1   14   14     1    14    1.1583E+05 -1.5118E+03   1.1734E+05  0.000E+00  0.000E+00  0.000E+00  4.22154E+01  1.586E-01  2.000E+01  2.000E+04 -7.559E-02
   1   13   15     1    15    1.1734E+05 -1.4434E+03   1.1879E+05  0.000E+00  0.000E+00  0.000E+00  4.17394E+01  1.598E-01  2.000E+01  2.000E+04 -7.217E-02
   1   12   16     1    16    1.1879E+05 -6.2234E+02   1.1941E+05  0.000E+00  0.000E+00  0.000E+00  4.12629E+01  1.606E-01  2.000E+01  2.000E+04 -3.112E-02
   1   12   17     1    17    1.1941E+05  1.0013E+03   1.1841E+05  0.000E+00  0.000E+00  0.000E+00  4.07855E+01  1.605E-01  2.000E+01  2.000E+04  5.007E-02
   1   12   18     1    18    1.1841E+05  4.3866E+03   1.1402E+05  0.000E+00  0.000E+00  0.000E+00  4.03060E+01  1.583E-01  2.000E+01  2.000E+04  2.193E-01
   1   12   19     1    19    1.1402E+05  4.2808E+03   1.0974E+05  0.000E+00  0.000E+00  0.000E+00  3.98252E+01  1.547E-01  2.000E+01  2.000E+04  2.140E-01
   1   13   20     1    20    1.0974E+05 -3.5851E+02   1.1010E+05  0.000E+00  0.000E+00  0.000E+00  3.93463E+01  1.531E-01  2.000E+01  2.000E+04 -1.793E-02
   1   14   21     1    21    1.1010E+05 -1.2766E+03   1.1137E+05  0.000E+00  0.000E+00  0.000E+00  3.88697E+01  1.538E-01  2.000E+01  2.000E+04 -6.383E-02
   1   14   22     1    22    1.1137E+05  4.8855E+03   1.0649E+05  0.000E+00  0.000E+00  0.000E+00  3.83909E+01  1.523E-01  2.000E+01  2.000E+04  2.443E-01
   1    9   30     2     1    5.0000E+04 -4.0937E+02   5.0409E+04  0.000E+00  0.000E+00  0.000E+00  4.02411E+01  1.161E-01  2.000E+01  2.000E+04 -2.047E-02
   1    9   29     2     2    5.0409E+04 -6.7572E+02   5.1085E+04  0.000E+00  0.000E+00  0.000E+00  3.99919E+01  1.169E-01  2.000E+01  2.000E+04 -3.379E-02
   1    9   28     2     3    5.1085E+04 -8.4460E+02   5.1930E+04  0.000E+00  0.000E+00  0.000E+00  3.97429E+01  1.179E-01  2.000E+01  2.000E+04 -4.223E-02
   1    9   27     2     4    5.1930E+04 -1.5714E+03   5.3501E+04  0.000E+00  0.000E+00  0.000E+00  3.94946E+01  1.196E-01  2.000E+01  2.000E+04 -7.857E-02
   1   10   26     2     5    5.3501E+04 -8.3319E+02   5.4334E+04  0.000E+00  0.000E+00  0.000E+00  3.92462E+01  1.212E-01  2.000E+01  2.000E+04 -4.166E-02
   1   11   25     2     6    5.4334E+04 -5.7514E+02   5.4909E+04  0.000E+00  0.000E+00  0.000E+00  3.89972E+01  1.222E-01  2.000E+01  2.000E+04 -2.876E-02
   1   12   24     2     7    5.4909E+04 -5.0007E+02   5.5410E+04  0.000E+00  0.000E+00  0.000E+00  3.87479E+01  1.229E-01  2.000E+01  2.000E+04 -2.500E-02
   1   13   23     2     8    5.5410E+04 -8.0994E+01   5.5491E+04  0.000E+00  0.000E+00  0.000E+00  3.84983E+01  1.233E-01  2.000E+01  2.000E+04 -4.050E-03
   1   14   22     2     9    5.5491E+04  2.0073E+03   5.3483E+04  0.000E+00  0.000E+00  0.000E+00  3.82470E+01  1.220E-01  2.000E+01  2.000E+04  1.004E-01
   1   14   22     3     1    1.5997E+05 -8.5881E+03   1.6856E+05  0.000E+00  0.000E+00  0.000E+00  3.77172E+01  1.617E-01  2.000E+01  2.000E+04 -4.294E-01
   1   15   23     3     2    1.6856E+05 -5.4467E+02   1.6911E+05  0.000E+00  0.000E+00  0.000E+00  3.68310E+01  1.644E-01  2.000E+01  2.000E+04 -2.723E-02
   1   15   24     3     3    1.6911E+05 -2.8222E+02   1.6939E+05  0.000E+00  0.000E+00  0.000E+00  3.59424E+01  1.646E-01  2.000E+01  2.000E+04 -1.411E-02
   1   15   25     3     4    1.6939E+05 -2.7431E+02   1.6966E+05  0.000E+00  0.000E+00  0.000E+00  3.50536E+01  1.648E-01  2.000E+01  2.000E+04 -1.372E-02
   1   15   26     3     5    1.6966E+05 -3.3220E+02   1.6999E+05  0.000E+00  0.000E+00  0.000E+00  3.41649E+01  1.649E-01  2.000E+01  2.000E+04 -1.661E-02
   1   16   27     3     6    1.6999E+05 -3.6331E+02   1.7036E+05  0.000E+00  0.000E+00  0.000E+00  3.32762E+01  1.651E-01  2.000E+01  2.000E+04 -1.817E-02
   1   17   28     3     7    1.7036E+05 -1.5491E+03   1.7191E+05  0.000E+00  0.000E+00  0.000E+00  3.23879E+01  1.657E-01  2.000E+01  2.000E+04 -7.745E-02
   1   18   29     3     8    1.7191E+05 -2.8854E+03   1.7479E+05  0.000E+00  0.000E+00  0.000E+00  3.15003E+01  1.670E-01  2.000E+01  2.000E+04 -1.443E-01
   1   18   30     3     9    1.7479E+05 -3.1686E+03   1.7796E+05  0.000E+00  0.000E+00  0.000E+00  3.06132E+01  1.687E-01  2.000E+01  2.000E+04 -1.584E-01



1
              HEAD IN LAYER   1 AT END OF TIME STEP   1 IN STRESS PERIOD   12
  ---------------------------------------------------------------------------

          1      2      3      4      5      6      7      8      9     10
         11     12     13     14     15     16     17     18     19     20
         21     22     23     24     25     26     27     28     29     30
 .........................................................................
   1  ****** ****** ****** ****** ****** ****** ****** ****** ****** ******
      ****** ****** ****** ****** ****** ****** ****** ****** ****** ******
      ****** ****** ****** ****** ****** ****** ****** ****** ****** ******
   2  ****** ****** ****** ****** ****** ****** ****** ****** ****** ******
      ****** ****** ****** ****** ****** ****** ****** ****** ****** ******
      ****** ****** ****** ****** ****** ****** ****** ****** ****** ******
   3  ****** ****** ****** ****** ****** ****** ****** ****** ****** ******
      ****** ****** ****** ****** ****** ****** ****** ****** ****** ******
      ****** ****** ****** ****** ****** ****** ****** ****** ****** ******
   4  ****** ****** ****** ****** ****** ****** ****** ****** ****** ******
      ****** ****** ****** ****** ****** ****** ****** ****** ****** ******
      ****** ****** ****** ****** ****** ****** ****** ****** ****** ******
   5  ****** ****** ****** ****** ****** ****** ****** ****** ****** ******
      ****** ****** ****** ****** ****** ****** ****** ****** ****** ******
      ****** ****** ****** ****** ****** ****** ****** ****** ****** ******
   6  ****** ****** ****** ****** ****** ****** ****** ****** ****** ******
      ****** ****** ****** ****** ****** ****** ****** ****** ****** ******
      ****** ****** ****** ****** ****** ****** ****** ****** ****** ******
   7  ****** ****** ****** ****** ****** ****** ****** ****** ****** ******
      ****** ****** ****** ****** ****** ****** ****** ****** ****** ******
      ****** ****** ****** ****** ****** ****** ****** ****** ****** ******
   8  ****** ****** ****** ****** ****** ****** ****** ****** ****** ******
      ****** ****** ****** ****** ****** ****** ****** ****** ****** ******
      ****** ****** ****** ****** ****** ****** ****** ****** ****** ******
   9  ****** ****** ****** ****** ****** ****** ****** ****** ****** ******
      ****** ****** ****** ****** ****** ****** ****** ****** ****** ******
      ****** ****** ****** ****** ****** ****** ****** ****** ****** ******
  10  ****** ****** ****** ****** ****** ****** ****** ****** ****** ******
      ****** ****** ****** ****** ****** ****** ****** ****** ****** ******
      ****** ****** ****** ****** ****** ****** ****** ****** ****** ******
  11  ****** ****** ****** ****** ****** ****** ****** ****** ****** ******
      ****** ****** ****** ****** ****** ****** ****** ****** ****** ******
      ****** ****** ****** ****** ****** ****** ****** ****** ****** ******
  12  ****** ****** ****** ****** ****** ****** ****** ****** ****** ******
      ****** ****** ****** ****** ****** ****** ****** ****** ****** ******
      ****** ****** ****** ****** ****** ****** ****** ****** ****** ******
  13  ****** ****** ****** ****** ****** ****** ****** ****** ****** ******
      ****** ****** ****** ****** ****** ****** ****** ****** ****** ******
      ****** ****** ****** ****** ****** ****** ****** ****** ****** ******
  14  ****** ****** ****** ****** ****** ****** ****** ****** ****** ******
      ****** ****** ****** ****** ****** ****** ****** ****** ****** ******
      ****** ****** ****** ****** ****** ****** ****** ****** ****** ******
  15  ****** ****** ****** ****** ****** ****** ****** ****** ****** ******
      ****** ****** ****** ****** ****** ****** ****** ****** ****** ******
      ****** ****** ****** ****** ****** ****** ****** ****** ****** ******
  16  ****** ****** ****** ****** ****** ****** ****** ****** ****** ******
      ****** ****** ****** ****** ****** ****** ****** ****** ****** ******
      ****** ****** ****** ****** ****** ****** ****** ****** ****** ******
  17  ****** ****** ****** ****** ****** ****** ****** ****** ****** ******
      ****** ****** ****** ****** ****** ****** ****** ****** ****** ******
      ****** ****** ****** ****** ****** ****** ****** ****** ****** ******
  18  ****** ****** ****** ****** ****** ****** ****** ****** ****** ******
      ****** ****** ****** ****** ****** ****** ****** ****** ****** ******
      ****** ****** ****** ****** ****** ****** ****** ****** ****** ******
  19  ****** ****** ****** ****** ****** ****** ****** ****** ****** ******
      ****** ****** ****** ****** ****** ****** ****** ****** ****** ******
      ****** ****** ****** ****** ****** ****** ****** ****** ****** ******
  20  ****** ****** ****** ****** ****** ****** ****** ****** ****** ******
      ****** ****** ****** ****** ****** ****** ****** ****** ****** ******
      ****** ****** ****** ****** ****** ****** ****** ****** ****** ******
  21  ****** ****** ****** ****** ****** ****** ****** ****** ****** ******
      ****** ****** ****** ****** ****** ****** ****** ****** ****** ******
      ****** ****** ****** ****** ****** ****** ****** ****** ****** ******
  22  ****** ****** ****** ****** ****** ****** ****** ****** ****** ******
      ****** ****** ****** ****** ****** ****** ****** ****** ****** ******
      ****** ****** ****** ****** ****** ****** ****** ****** ****** ******
  23  ****** ****** ****** ****** ****** ****** ****** ****** ****** ******
      ****** ****** ****** ****** ****** ****** ****** ****** ****** ******
      ****** ****** ****** ****** ****** ****** ****** ****** ****** ******
  24  ****** ****** ****** ****** ****** ****** ****** ****** ****** ******
      ****** ****** ****** ****** ****** ****** ****** ****** ****** ******
      ****** ****** ****** ****** ****** ****** ****** ****** ****** ******
  25  ****** ****** ****** ****** ****** ****** ****** ****** ****** ******
      ****** ****** ****** ****** ****** ****** ****** ****** ****** ******
      ****** ****** ****** ****** ****** ****** ****** ****** ****** ******

 HEAD WILL BE SAVED ON UNIT   51 AT END OF TIME STEP    1, STRESS PERIOD   12
1
  VOLUMETRIC BUDGET FOR ENTIRE MODEL AT END OF TIME STEP    1, STRESS PERIOD  12
  ------------------------------------------------------------------------------

     CUMULATIVE VOLUMES      L**3       RATES FOR THIS TIME STEP      L**3/T
     ------------------                 ------------------------

           IN:                                      IN:
           ---                                      ---
             STORAGE =    35121647.3105               STORAGE =          13.4192
       CONSTANT HEAD =    31107644.4843         CONSTANT HEAD =       33493.8187
               WELLS =           0.0000                 WELLS =           0.0000
            RECHARGE =    26413200.0000              RECHARGE =       27600.0000
      STREAM LEAKAGE =    15554535.2240        STREAM LEAKAGE =       16561.5255

            TOTAL IN =   108197027.0188              TOTAL IN =       77668.7633

          OUT:                                     OUT:
          ----                                     ----
             STORAGE =     2638743.3914               STORAGE =        2997.2047
       CONSTANT HEAD =           0.0000         CONSTANT HEAD =           0.0000
               WELLS =    33013924.4282                 WELLS =       30149.7027
            RECHARGE =           0.0000              RECHARGE =           0.0000
      STREAM LEAKAGE =    72544361.0313        STREAM LEAKAGE =       44521.8550

           TOTAL OUT =   108197028.8510             TOTAL OUT =       77668.7624

            IN - OUT =          -1.8322              IN - OUT =       9.6658E-04

 PERCENT DISCREPANCY =          -0.00     PERCENT DISCREPANCY =           0.00






         TIME SUMMARY AT END OF TIME STEP    1 IN STRESS PERIOD   12
                    SECONDS     MINUTES      HOURS       DAYS        YEARS
                    -----------------------------------------------------------
   TIME STEP LENGTH 7.86240E+06 1.31040E+05  2184.0      91.000     0.24914    
 STRESS PERIOD TIME 7.86240E+06 1.31040E+05  2184.0      91.000     0.24914    
         TOTAL TIME 9.46080E+07 1.57680E+06  26280.      1095.0      2.9979    
1

 Run end date and time (yyyy/mm/dd hh:mm:ss): 2019/08/04 17:44:22
 Elapsed run time:  0.042 Seconds

