                                  MODFLOW-2005     
      U.S. GEOLOGICAL SURVEY MODULAR FINITE-DIFFERENCE GROUND-WATER FLOW MODEL
                            VERSION 1.11.00 8/8/2013

 LIST FILE: supply2.lst
                         UNIT   10

 OPENING ..\data\supply.dis
 FILE TYPE:DIS   UNIT   11   STATUS:OLD    
 FORMAT:FORMATTED              ACCESS:SEQUENTIAL          

 OPENING ..\data\supply.ba6
 FILE TYPE:BAS6   UNIT   12   STATUS:OLD    
 FORMAT:FORMATTED              ACCESS:SEQUENTIAL          

 OPENING ..\data\supply.bc6
 FILE TYPE:BCF6   UNIT   13   STATUS:OLD    
 FORMAT:FORMATTED              ACCESS:SEQUENTIAL          

 OPENING ..\data\supply.rch
 FILE TYPE:RCH   UNIT   15   STATUS:OLD    
 FORMAT:FORMATTED              ACCESS:SEQUENTIAL          

 OPENING ..\data\supply2.sfr
 FILE TYPE:SFR   UNIT   16   STATUS:OLD    
 FORMAT:FORMATTED              ACCESS:SEQUENTIAL          

 OPENING ..\data\supply.oc
 FILE TYPE:OC   UNIT   17   STATUS:OLD    
 FORMAT:FORMATTED              ACCESS:SEQUENTIAL          

 OPENING ..\data\supply.pcg
 FILE TYPE:PCG   UNIT   18   STATUS:OLD    
 FORMAT:FORMATTED              ACCESS:SEQUENTIAL          

 OPENING supply2.wel
 FILE TYPE:WEL   UNIT   19   STATUS:OLD    
 FORMAT:FORMATTED              ACCESS:SEQUENTIAL          

 OPENING supply2sf.cbc
 FILE TYPE:DATA(BINARY)   UNIT   50   STATUS:UNKNOWN
 FORMAT:BINARY                 ACCESS:SEQUENTIAL          

 OPENING supply2hd.bhd
 FILE TYPE:DATA(BINARY)   UNIT   51   STATUS:UNKNOWN
 FORMAT:BINARY                 ACCESS:SEQUENTIAL          

 BAS -- BASIC PACKAGE, VERSION 7, 5/2/2005 INPUT READ FROM UNIT   12
 
 MODFLOW was compiled using uniform precision
 Precision of REAL and DOUBLE PRECISION variables:          15

 DISCRETIZATION INPUT DATA READ FROM UNIT   11
    1 LAYERS        25 ROWS        30 COLUMNS
   12 STRESS PERIOD(S) IN SIMULATION
 MODEL TIME UNIT IS DAYS
 MODEL LENGTH UNIT IS UNDEFINED
  Confining bed flag for each layer:
   0

                     DELR =   200.000    

                     DELC =   200.000    

 TOP ELEVATION OF LAYER 1 =  100.0000    

   MODEL LAYER BOTTOM EL. =   0.00000     FOR LAYER   1


 STRESS PERIOD     LENGTH       TIME STEPS     MULTIPLIER FOR DELT    SS FLAG
 ----------------------------------------------------------------------------
        1         92.00000          1                    1.500         TR
        2         91.00000          1                    1.500         TR
        3         91.00000          1                    1.500         TR
        4         91.00000          1                    1.500         TR
        5         92.00000          1                    1.500         TR
        6         91.00000          1                    1.500         TR
        7         91.00000          1                    1.500         TR
        8         91.00000          1                    1.500         TR
        9         92.00000          1                    1.500         TR
       10         91.00000          1                    1.500         TR
       11         91.00000          1                    1.500         TR
       12         91.00000          1                    1.500         TR

 TRANSIENT SIMULATION



 
 #MODOFC transient water supply sample problem                                   
 #                                                                               
 THE FREE FORMAT OPTION HAS BEEN SELECTED



                     BOUNDARY ARRAY FOR LAYER   1
 READING ON UNIT   12 WITH FORMAT: (20I4)              

 AQUIFER HEAD WILL BE SET TO   0.0000     AT ALL NO-FLOW NODES (IBOUND=0).



                       INITIAL HEAD FOR LAYER   1
 READING ON UNIT   12 WITH FORMAT: (10F13.0)           

 OUTPUT CONTROL IS SPECIFIED ONLY AT TIME STEPS FOR WHICH OUTPUT IS DESIRED
 COMPACT CELL-BY-CELL BUDGET FILES WILL BE WRITTEN
 HEAD PRINT FORMAT CODE IS  18    DRAWDOWN PRINT FORMAT CODE IS   0
 HEADS WILL BE SAVED ON UNIT   51    DRAWDOWNS WILL BE SAVED ON UNIT    0

 BCF -- BLOCK-CENTERED FLOW PACKAGE, VERSION 7, 5/2/2005
         INPUT READ FROM UNIT 13
 TRANSIENT SIMULATION
 HEAD AT CELLS THAT CONVERT TO DRY=   0.0000    
 WETTING CAPABILITY IS NOT ACTIVE
      LAYER  LAYER-TYPE CODE     INTERBLOCK T
      --------------------------------------------
         1            0          0 -- HARMONIC    

 COLUMN TO ROW ANISOTROPY =  1.000000    

     PRIMARY STORAGE COEF =  5.000000E-02 FOR LAYER   1

     TRANSMIS. ALONG ROWS =   500.000     FOR LAYER   1

 WEL -- WELL PACKAGE, VERSION 7, 5/2/2005 INPUT READ FROM UNIT   19
 # Well package input file written by MMProc
 No named parameters
 MAXIMUM OF      6 ACTIVE WELLS AT ONE TIME


     0 Well parameters

 RCH -- RECHARGE PACKAGE, VERSION 7, 5/2/2005 INPUT READ FROM UNIT   15
 No named parameters
 OPTION 1 -- RECHARGE TO TOP LAYER


     0 Recharge parameters

 SFR7 -- STREAMFLOW ROUTING PACKAGE, VERSION 1.0.7, 2013-01-15
         INPUT READ FROM UNIT  16
 #  Supply2 test problem for GWM-VI
 #  The eighth entry in the first data line is ISTCB2 -
 #    Setting this to a negative number indicates that
 #    streamflows out of the reach will be saved to a
 #    binary file.  The absolute value of ISTCB2 is the
 #    unit to which unformatted flows will be written.
 #
 No named parameters
 Segment information will not be 
 read by reach
 No named parameters
 No specifed inflow files


 NUMBER OF STREAM REACHES IS   40

 NUMBER OF STREAM SEGMENTS IS    3

 NUMBER OF STREAM PARAMETERS IS    0

 NUMBER OF STREAM SEGMENTS DEFINED USING PARAMETERS IS              0

 MAXIMUM ERROR FOR STREAM LEAKAGE RATES IS  1.00E-04

 CONSTANT FOR MANNINGS EQUATION IS  1.2839E+05





   STREAM NETWORK DESCRIPTION: 

   LAYER    ROW    COL   SEGMENT   REACH     LENGTH
                          NUMBER   NUMBER    IN CELL        
   --------------------------------------------------
      1     13      1       1        1    2.0000E+02
      1     13      2       1        2    2.0000E+02
      1     14      3       1        3    2.0000E+02
      1     15      4       1        4    2.0000E+02
      1     16      5       1        5    2.0000E+02
      1     16      6       1        6    2.0000E+02
      1     16      7       1        7    2.0000E+02
      1     16      8       1        8    2.0000E+02
      1     16      9       1        9    2.0000E+02
      1     16     10       1       10    2.0000E+02
      1     16     11       1       11    2.0000E+02
      1     16     12       1       12    2.0000E+02
      1     15     13       1       13    2.0000E+02
      1     14     14       1       14    2.0000E+02
      1     13     15       1       15    2.0000E+02
      1     12     16       1       16    2.0000E+02
      1     12     17       1       17    2.0000E+02
      1     12     18       1       18    2.0000E+02
      1     12     19       1       19    2.0000E+02
      1     13     20       1       20    2.0000E+02
      1     14     21       1       21    2.0000E+02
      1     14     22       1       22    2.0000E+02
      1      9     30       2        1    2.0000E+02
      1      9     29       2        2    2.0000E+02
      1      9     28       2        3    2.0000E+02
      1      9     27       2        4    2.0000E+02
      1     10     26       2        5    2.0000E+02
      1     11     25       2        6    2.0000E+02
      1     12     24       2        7    2.0000E+02
      1     13     23       2        8    2.0000E+02
      1     14     22       2        9    2.0000E+02
      1     14     22       3        1    2.0000E+02
      1     15     23       3        2    2.0000E+02
      1     15     24       3        3    2.0000E+02
      1     15     25       3        4    2.0000E+02
      1     15     26       3        5    2.0000E+02
      1     16     27       3        6    2.0000E+02
      1     17     28       3        7    2.0000E+02
      1     18     29       3        8    2.0000E+02
      1     18     30       3        9    2.0000E+02




 PCG -- CONJUGATE-GRADIENT SOLUTION PACKAGE, VERSION 7, 5/2/2005
 MAXIMUM OF    500 CALLS OF SOLUTION ROUTINE
 MAXIMUM OF      5 INTERNAL ITERATIONS PER CALL TO SOLUTION ROUTINE
 MATRIX PRECONDITIONING TYPE :    1



                                    SOLUTION BY THE CONJUGATE-GRADIENT METHOD
                                   -------------------------------------------
                    MAXIMUM NUMBER OF CALLS TO PCG ROUTINE =      500
                        MAXIMUM ITERATIONS PER CALL TO PCG =        5
                               MATRIX PRECONDITIONING TYPE =        1
        RELAXATION FACTOR (ONLY USED WITH PRECOND. TYPE 1) =    0.10000E+01
 PARAMETER OF POLYNOMIAL PRECOND. = 2 (2) OR IS CALCULATED :        0
                         HEAD CHANGE CRITERION FOR CLOSURE =    0.10000E-05
                     RESIDUAL CHANGE CRITERION FOR CLOSURE =    0.10000E+01
            PCG HEAD AND RESIDUAL CHANGE PRINTOUT INTERVAL =        1
     PRINTING FROM SOLVER IS LIMITED(1) OR SUPPRESSED (>1) =        1
                            STEADY-STATE DAMPING PARAMETER =    0.10000E+01
                               TRANSIENT DAMPING PARAMETER =    0.10000E+01
1
                            STRESS PERIOD NO.    1, LENGTH =   92.00000    
                            -----------------------------------------------

                              NUMBER OF TIME STEPS =     1

                               MULTIPLIER FOR DELT =     1.500

                            INITIAL TIME STEP SIZE =   92.00000    

 WELL NO.  LAYER   ROW   COL   STRESS RATE         
 --------------------------------------------------
      1      1     23     21     -0.3179E+05
      2      1     23     12     -0.3278E+05
      3      1     23     17     -0.3542E+05

      3 WELLS

                 RECHARGE =  5.000000E-04



 CLASSIFICATION & COUNT OF STREAM SEGMENTS BASED ON SOURCE OF INFLOW:

                HEADWATER     DIVERSION     RECEIVES TRIBUTARY FLOW
                ---------     ---------     -----------------------
                     2              0               1



                    INPUT DATA FOR EACH STREAM SEGMENT
 ---------------------------------------------------------------------------------------------

 SEGMENT    SEG.     INFLOW   OVERLAND   STREAM    STREAM   ICALC  OUTFLOW  DIVERSION PRIORITY
    NO.    LENGTH     RATE     RUNOFF      ET       PPT.    METH.  TO SEG.  FROM SEG.    NO.

      1  4.400E+03 1.000E+05 0.000E+00 0.000E+00 0.000E+00    1        3        0        0
      2  1.800E+03 5.000E+04 0.000E+00 0.000E+00 0.000E+00    1        3        0        0
      3  1.800E+03 0.000E+00 0.000E+00 0.000E+00 0.000E+00    1        0        0        0


         STREAMBED PROPERTIES AND STREAM DIMENSIONS

 SEGMENT     BED HYD. COND.      BED THICKNESS     ELEV.-TOP OF BED     WIDTH OF STREAM     DEPTH OF STREAM    STREAM ROUGHNESS
    No.     UPPER     LOWER     UPPER     LOWER     UPPER     LOWER     UPPER     LOWER     UPPER     LOWER   CHANNEL      BANK

     1  5.000E+00 5.000E+00 1.000E+00 1.000E+00 4.850E+01 3.800E+01 2.000E+01 2.000E+01                     5.000E-02
     2  5.000E+00 5.000E+00 1.000E+00 1.000E+00 4.025E+01 3.800E+01 2.000E+01 2.000E+01                     5.000E-02
     3  5.000E+00 5.000E+00 1.000E+00 1.000E+00 3.800E+01 3.000E+01 2.000E+01 2.000E+01                     5.000E-02



 
 SOLVING FOR HEAD 


     8 CALLS TO PCG ROUTINE FOR TIME STEP   1 IN STRESS PERIOD    1
    34 TOTAL ITERATIONS

 OUTPUT CONTROL FOR STRESS PERIOD    1   TIME STEP    1
    SAVE BUDGET
    SAVE HEAD FOR ALL LAYERS
    PRINT HEAD FOR ALL LAYERS
 UBDSV2 SAVING "STREAMFLOW OUT  " ON UNIT  50 AT TIME STEP  1, STRESS PERIOD   1



 STREAM LISTING     PERIOD      1   STEP        1

 LAYER ROW COL. STREAM  RCH.  FLOW INTO     FLOW TO   FLOW OUT OF   OVRLND.     DIRECT     STREAM       STREAM     STREAM     STREAM   STREAMBED  STREAMBED
                SEG.NO.  NO.  STRM. RCH.    AQUIFER    STRM. RCH.    RUNOFF     PRECIP       ET          HEAD       DEPTH      WIDTH   CONDCTNC.   GRADIENT

   1   13    1     1     1    1.0000E+05 -5.7420E+03   1.0574E+05  0.000E+00  0.000E+00  0.000E+00  4.84085E+01  1.471E-01  2.000E+01  2.000E+04 -2.871E-01
   1   13    2     1     2    1.0574E+05 -8.5930E+03   1.1434E+05  0.000E+00  0.000E+00  0.000E+00  4.79373E+01  1.532E-01  2.000E+01  2.000E+04 -4.296E-01
   1   14    3     1     3    1.1434E+05 -7.8500E+03   1.2219E+05  0.000E+00  0.000E+00  0.000E+00  4.74668E+01  1.600E-01  2.000E+01  2.000E+04 -3.925E-01
   1   15    4     1     4    1.2219E+05 -7.6494E+03   1.2983E+05  0.000E+00  0.000E+00  0.000E+00  4.69957E+01  1.662E-01  2.000E+01  2.000E+04 -3.825E-01
   1   16    5     1     5    1.2983E+05 -7.3363E+03   1.3717E+05  0.000E+00  0.000E+00  0.000E+00  4.65243E+01  1.720E-01  2.000E+01  2.000E+04 -3.668E-01
   1   16    6     1     6    1.3717E+05 -5.8373E+03   1.4301E+05  0.000E+00  0.000E+00  0.000E+00  4.60521E+01  1.771E-01  2.000E+01  2.000E+04 -2.919E-01
   1   16    7     1     7    1.4301E+05 -5.9162E+03   1.4892E+05  0.000E+00  0.000E+00  0.000E+00  4.55792E+01  1.815E-01  2.000E+01  2.000E+04 -2.958E-01
   1   16    8     1     8    1.4892E+05 -5.9216E+03   1.5485E+05  0.000E+00  0.000E+00  0.000E+00  4.51063E+01  1.859E-01  2.000E+01  2.000E+04 -2.961E-01
   1   16    9     1     9    1.5485E+05 -5.8383E+03   1.6068E+05  0.000E+00  0.000E+00  0.000E+00  4.46333E+01  1.902E-01  2.000E+01  2.000E+04 -2.919E-01
   1   16   10     1    10    1.6068E+05 -5.6732E+03   1.6636E+05  0.000E+00  0.000E+00  0.000E+00  4.41602E+01  1.943E-01  2.000E+01  2.000E+04 -2.837E-01
   1   16   11     1    11    1.6636E+05 -5.4519E+03   1.7181E+05  0.000E+00  0.000E+00  0.000E+00  4.36869E+01  1.982E-01  2.000E+01  2.000E+04 -2.726E-01
   1   16   12     1    12    1.7181E+05 -6.6863E+03   1.7850E+05  0.000E+00  0.000E+00  0.000E+00  4.32138E+01  2.025E-01  2.000E+01  2.000E+04 -3.343E-01
   1   15   13     1    13    1.7850E+05 -7.4473E+03   1.8594E+05  0.000E+00  0.000E+00  0.000E+00  4.27414E+01  2.073E-01  2.000E+01  2.000E+04 -3.724E-01
   1   14   14     1    14    1.8594E+05 -7.9156E+03   1.9386E+05  0.000E+00  0.000E+00  0.000E+00  4.22694E+01  2.125E-01  2.000E+01  2.000E+04 -3.958E-01
   1   13   15     1    15    1.9386E+05 -8.3265E+03   2.0219E+05  0.000E+00  0.000E+00  0.000E+00  4.17975E+01  2.179E-01  2.000E+01  2.000E+04 -4.163E-01
   1   12   16     1    16    2.0219E+05 -9.3198E+03   2.1150E+05  0.000E+00  0.000E+00  0.000E+00  4.13260E+01  2.237E-01  2.000E+01  2.000E+04 -4.660E-01
   1   12   17     1    17    2.1150E+05 -6.4884E+03   2.1799E+05  0.000E+00  0.000E+00  0.000E+00  4.08538E+01  2.288E-01  2.000E+01  2.000E+04 -3.244E-01
   1   12   18     1    18    2.1799E+05 -6.3130E+03   2.2431E+05  0.000E+00  0.000E+00  0.000E+00  4.03806E+01  2.329E-01  2.000E+01  2.000E+04 -3.156E-01
   1   12   19     1    19    2.2431E+05 -8.0346E+03   2.3234E+05  0.000E+00  0.000E+00  0.000E+00  3.99078E+01  2.374E-01  2.000E+01  2.000E+04 -4.017E-01
   1   13   20     1    20    2.3234E+05 -6.3889E+03   2.3873E+05  0.000E+00  0.000E+00  0.000E+00  3.94350E+01  2.419E-01  2.000E+01  2.000E+04 -3.194E-01
   1   14   21     1    21    2.3873E+05 -5.0155E+03   2.4375E+05  0.000E+00  0.000E+00  0.000E+00  3.89613E+01  2.454E-01  2.000E+01  2.000E+04 -2.508E-01
   1   14   22     1    22    2.4375E+05  4.4176E+03   2.3933E+05  0.000E+00  0.000E+00  0.000E+00  3.84842E+01  2.455E-01  2.000E+01  2.000E+04  2.209E-01
   1    9   30     2     1    5.0000E+04 -5.5711E+03   5.5571E+04  0.000E+00  0.000E+00  0.000E+00  4.02447E+01  1.197E-01  2.000E+01  2.000E+04 -2.786E-01
   1    9   29     2     2    5.5571E+04 -5.8701E+03   6.1441E+04  0.000E+00  0.000E+00  0.000E+00  4.00023E+01  1.273E-01  2.000E+01  2.000E+04 -2.935E-01
   1    9   28     2     3    6.1441E+04 -6.1943E+03   6.7636E+04  0.000E+00  0.000E+00  0.000E+00  3.97600E+01  1.350E-01  2.000E+01  2.000E+04 -3.097E-01
   1    9   27     2     4    6.7636E+04 -9.5875E+03   7.7223E+04  0.000E+00  0.000E+00  0.000E+00  3.95197E+01  1.447E-01  2.000E+01  2.000E+04 -4.794E-01
   1   10   26     2     5    7.7223E+04 -7.7180E+03   8.4941E+04  0.000E+00  0.000E+00  0.000E+00  3.92799E+01  1.549E-01  2.000E+01  2.000E+04 -3.859E-01
   1   11   25     2     6    8.4941E+04 -6.5921E+03   9.1533E+04  0.000E+00  0.000E+00  0.000E+00  3.90379E+01  1.629E-01  2.000E+01  2.000E+04 -3.296E-01
   1   12   24     2     7    9.1533E+04 -5.3324E+03   9.6866E+04  0.000E+00  0.000E+00  0.000E+00  3.87944E+01  1.694E-01  2.000E+01  2.000E+04 -2.666E-01
   1   13   23     2     8    9.6866E+04 -3.7838E+03   1.0065E+05  0.000E+00  0.000E+00  0.000E+00  3.85493E+01  1.743E-01  2.000E+01  2.000E+04 -1.892E-01
   1   14   22     2     9    1.0065E+05  7.5227E+02   9.9897E+04  0.000E+00  0.000E+00  0.000E+00  3.83009E+01  1.759E-01  2.000E+01  2.000E+04  3.761E-02
   1   14   22     3     1    3.3922E+05 -9.1186E+03   3.4834E+05  0.000E+00  0.000E+00  0.000E+00  3.78074E+01  2.518E-01  2.000E+01  2.000E+04 -4.559E-01
   1   15   23     3     2    3.4834E+05 -5.2899E+03   3.5363E+05  0.000E+00  0.000E+00  0.000E+00  3.69216E+01  2.550E-01  2.000E+01  2.000E+04 -2.645E-01
   1   15   24     3     3    3.5363E+05 -4.0006E+03   3.5763E+05  0.000E+00  0.000E+00  0.000E+00  3.60348E+01  2.570E-01  2.000E+01  2.000E+04 -2.000E-01
   1   15   25     3     4    3.5763E+05 -4.1032E+03   3.6174E+05  0.000E+00  0.000E+00  0.000E+00  3.51476E+01  2.587E-01  2.000E+01  2.000E+04 -2.052E-01
   1   15   26     3     5    3.6174E+05 -5.5213E+03   3.6726E+05  0.000E+00  0.000E+00  0.000E+00  3.42608E+01  2.608E-01  2.000E+01  2.000E+04 -2.761E-01
   1   16   27     3     6    3.6726E+05 -6.9791E+03   3.7424E+05  0.000E+00  0.000E+00  0.000E+00  3.33746E+01  2.635E-01  2.000E+01  2.000E+04 -3.490E-01
   1   17   28     3     7    3.7424E+05 -7.7486E+03   3.8199E+05  0.000E+00  0.000E+00  0.000E+00  3.24888E+01  2.666E-01  2.000E+01  2.000E+04 -3.874E-01
   1   18   29     3     8    3.8199E+05 -8.7961E+03   3.9078E+05  0.000E+00  0.000E+00  0.000E+00  3.16034E+01  2.701E-01  2.000E+01  2.000E+04 -4.398E-01
   1   18   30     3     9    3.9078E+05 -7.4034E+03   3.9819E+05  0.000E+00  0.000E+00  0.000E+00  3.07179E+01  2.735E-01  2.000E+01  2.000E+04 -3.702E-01



1
              HEAD IN LAYER   1 AT END OF TIME STEP   1 IN STRESS PERIOD    1
  ---------------------------------------------------------------------------

          1      2      3      4      5      6      7      8      9     10
         11     12     13     14     15     16     17     18     19     20
         21     22     23     24     25     26     27     28     29     30
 .........................................................................
   1  ****** ****** ****** ****** ****** ****** ****** ****** ****** ******
      ****** ****** ****** ****** ****** ****** ****** ****** ****** ******
      ****** ****** ****** ****** ****** ****** ****** ****** ****** ******
   2  ****** ****** ****** ****** ****** ****** ****** ****** ****** ******
      ****** ****** ****** ****** ****** ****** ****** ****** ****** ******
      ****** ****** ****** ****** ****** ****** ****** ****** ****** ******
   3  ****** ****** ****** ****** ****** ****** ****** ****** ****** ******
      ****** ****** ****** ****** ****** ****** ****** ****** ****** ******
      ****** ****** ****** ****** ****** ****** ****** ****** ****** ******
   4  ****** ****** ****** ****** ****** ****** ****** ****** ****** ******
      ****** ****** ****** ****** ****** ****** ****** ****** ****** ******
      ****** ****** ****** ****** ****** ****** ****** ****** ****** ******
   5  ****** ****** ****** ****** ****** ****** ****** ****** ****** ******
      ****** ****** ****** ****** ****** ****** ****** ****** ****** ******
      ****** ****** ****** ****** ****** ****** ****** ****** ****** ******
   6  ****** ****** ****** ****** ****** ****** ****** ****** ****** ******
      ****** ****** ****** ****** ****** ****** ****** ****** ****** ******
      ****** ****** ****** ****** ****** ****** ****** ****** ****** ******
   7  ****** ****** ****** ****** ****** ****** ****** ****** ****** ******
      ****** ****** ****** ****** ****** ****** ****** ****** ****** ******
      ****** ****** ****** ****** ****** ****** ****** ****** ****** ******
   8  ****** ****** ****** ****** ****** ****** ****** ****** ****** ******
      ****** ****** ****** ****** ****** ****** ****** ****** ****** ******
      ****** ****** ****** ****** ****** ****** ****** ****** ****** ******
   9  ****** ****** ****** ****** ****** ****** ****** ****** ****** ******
      ****** ****** ****** ****** ****** ****** ****** ****** ****** ******
      ****** ****** ****** ****** ****** ****** ****** ****** ****** ******
  10  ****** ****** ****** ****** ****** ****** ****** ****** ****** ******
      ****** ****** ****** ****** ****** ****** ****** ****** ****** ******
      ****** ****** ****** ****** ****** ****** ****** ****** ****** ******
  11  ****** ****** ****** ****** ****** ****** ****** ****** ****** ******
      ****** ****** ****** ****** ****** ****** ****** ****** ****** ******
      ****** ****** ****** ****** ****** ****** ****** ****** ****** ******
  12  ****** ****** ****** ****** ****** ****** ****** ****** ****** ******
      ****** ****** ****** ****** ****** ****** ****** ****** ****** ******
      ****** ****** ****** ****** ****** ****** ****** ****** ****** ******
  13  ****** ****** ****** ****** ****** ****** ****** ****** ****** ******
      ****** ****** ****** ****** ****** ****** ****** ****** ****** ******
      ****** ****** ****** ****** ****** ****** ****** ****** ****** ******
  14  ****** ****** ****** ****** ****** ****** ****** ****** ****** ******
      ****** ****** ****** ****** ****** ****** ****** ****** ****** ******
      ****** ****** ****** ****** ****** ****** ****** ****** ****** ******
  15  ****** ****** ****** ****** ****** ****** ****** ****** ****** ******
      ****** ****** ****** ****** ****** ****** ****** ****** ****** ******
      ****** ****** ****** ****** ****** ****** ****** ****** ****** ******
  16  ****** ****** ****** ****** ****** ****** ****** ****** ****** ******
      ****** ****** ****** ****** ****** ****** ****** ****** ****** ******
      ****** ****** ****** ****** ****** ****** ****** ****** ****** ******
  17  ****** ****** ****** ****** ****** ****** ****** ****** ****** ******
      ****** ****** ****** ****** ****** ****** ****** ****** ****** ******
      ****** ****** ****** ****** ****** ****** ****** ****** ****** ******
  18  ****** ****** ****** ****** ****** ****** ****** ****** ****** ******
      ****** ****** ****** ****** ****** ****** ****** ****** ****** ******
      ****** ****** ****** ****** ****** ****** ****** ****** ****** ******
  19  ****** ****** ****** ****** ****** ****** ****** ****** ****** ******
      ****** ****** ****** ****** ****** ****** ****** ****** ****** ******
      ****** ****** ****** ****** ****** ****** ****** ****** ****** ******
  20  ****** ****** ****** ****** ****** ****** ****** ****** ****** ******
      ****** ****** ****** ****** ****** ****** ****** ****** ****** ******
      ****** ****** ****** ****** ****** ****** ****** ****** ****** ******
  21  ****** ****** ****** ****** ****** ****** ****** ****** ****** ******
      ****** ****** ****** ****** ****** ****** ****** ****** ****** ******
      ****** ****** ****** ****** ****** ****** ****** ****** ****** ******
  22  ****** ****** ****** ****** ****** ****** ****** ****** ****** ******
      ****** ****** ****** ****** ****** ****** ****** ****** ****** ******
      ****** ****** ****** ****** ****** ****** ****** ****** ****** ******
  23  ****** ****** ****** ****** ****** ****** ****** ****** ****** ******
      ****** ****** ****** ****** ****** ****** ****** ****** ****** ******
      ****** ****** ****** ****** ****** ****** ****** ****** ****** ******
  24  ****** ****** ****** ****** ****** ****** ****** ****** ****** ******
      ****** ****** ****** ****** ****** ****** ****** ****** ****** ******
      ****** ****** ****** ****** ****** ****** ****** ****** ****** ******
  25  ****** ****** ****** ****** ****** ****** ****** ****** ****** ******
      ****** ****** ****** ****** ****** ****** ****** ****** ****** ******
      ****** ****** ****** ****** ****** ****** ****** ****** ****** ******

 HEAD WILL BE SAVED ON UNIT   51 AT END OF TIME STEP    1, STRESS PERIOD    1
1
  VOLUMETRIC BUDGET FOR ENTIRE MODEL AT END OF TIME STEP    1, STRESS PERIOD   1
  ------------------------------------------------------------------------------

     CUMULATIVE VOLUMES      L**3       RATES FOR THIS TIME STEP      L**3/T
     ------------------                 ------------------------

           IN:                                      IN:
           ---                                      ---
             STORAGE =    17558099.9493               STORAGE =      190848.9125
       CONSTANT HEAD =    13204834.9134         CONSTANT HEAD =      143530.8143
               WELLS =           0.0000                 WELLS =           0.0000
            RECHARGE =     1269600.0000              RECHARGE =       13800.0000
      STREAM LEAKAGE =      475624.2025        STREAM LEAKAGE =        5169.8283

            TOTAL IN =    32508159.0653              TOTAL IN =      353349.5551

          OUT:                                     OUT:
          ----                                     ----
             STORAGE =           0.0000               STORAGE =           0.0000
       CONSTANT HEAD =           0.0000         CONSTANT HEAD =           0.0000
               WELLS =     9199442.3063                 WELLS =       99993.9381
            RECHARGE =           0.0000              RECHARGE =           0.0000
      STREAM LEAKAGE =    23308716.8964        STREAM LEAKAGE =      253355.6184

           TOTAL OUT =    32508159.2027             TOTAL OUT =      353349.5566

            IN - OUT =          -0.1375              IN - OUT =      -1.4941E-03

 PERCENT DISCREPANCY =          -0.00     PERCENT DISCREPANCY =          -0.00






         TIME SUMMARY AT END OF TIME STEP    1 IN STRESS PERIOD    1
                    SECONDS     MINUTES      HOURS       DAYS        YEARS
                    -----------------------------------------------------------
   TIME STEP LENGTH 7.94880E+06 1.32480E+05  2208.0      92.000     0.25188    
 STRESS PERIOD TIME 7.94880E+06 1.32480E+05  2208.0      92.000     0.25188    
         TOTAL TIME 7.94880E+06 1.32480E+05  2208.0      92.000     0.25188    
1
1
                            STRESS PERIOD NO.    2, LENGTH =   91.00000    
                            -----------------------------------------------

                              NUMBER OF TIME STEPS =     1

                               MULTIPLIER FOR DELT =     1.500

                            INITIAL TIME STEP SIZE =   91.00000    

 WELL NO.  LAYER   ROW   COL   STRESS RATE         
 --------------------------------------------------
      1      1     23     21     -0.3179E+05
      2      1     23     12     -0.3278E+05
      3      1     23     17     -0.3542E+05

      3 WELLS

                 RECHARGE =  2.000000E-03

 REUSING STREAM SEGMENT DATA FROM LAST STRESS PERIOD
 
 SOLVING FOR HEAD 


     7 CALLS TO PCG ROUTINE FOR TIME STEP   1 IN STRESS PERIOD    2
    27 TOTAL ITERATIONS

 OUTPUT CONTROL FOR STRESS PERIOD    2   TIME STEP    1
    SAVE BUDGET
    SAVE HEAD FOR ALL LAYERS
    PRINT HEAD FOR ALL LAYERS
 UBDSV2 SAVING "STREAMFLOW OUT  " ON UNIT  50 AT TIME STEP  1, STRESS PERIOD   2



 STREAM LISTING     PERIOD      2   STEP        1

 LAYER ROW COL. STREAM  RCH.  FLOW INTO     FLOW TO   FLOW OUT OF   OVRLND.     DIRECT     STREAM       STREAM     STREAM     STREAM   STREAMBED  STREAMBED
                SEG.NO.  NO.  STRM. RCH.    AQUIFER    STRM. RCH.    RUNOFF     PRECIP       ET          HEAD       DEPTH      WIDTH   CONDCTNC.   GRADIENT

   1   13    1     1     1    1.0000E+05 -3.8206E+03   1.0382E+05  0.000E+00  0.000E+00  0.000E+00  4.84077E+01  1.463E-01  2.000E+01  2.000E+04 -1.910E-01
   1   13    2     1     2    1.0382E+05 -6.1775E+03   1.1000E+05  0.000E+00  0.000E+00  0.000E+00  4.79347E+01  1.506E-01  2.000E+01  2.000E+04 -3.089E-01
   1   14    3     1     3    1.1000E+05 -5.1055E+03   1.1510E+05  0.000E+00  0.000E+00  0.000E+00  4.74621E+01  1.553E-01  2.000E+01  2.000E+04 -2.553E-01
   1   15    4     1     4    1.1510E+05 -4.9013E+03   1.2000E+05  0.000E+00  0.000E+00  0.000E+00  4.69889E+01  1.594E-01  2.000E+01  2.000E+04 -2.451E-01
   1   16    5     1     5    1.2000E+05 -4.9146E+03   1.2492E+05  0.000E+00  0.000E+00  0.000E+00  4.65156E+01  1.634E-01  2.000E+01  2.000E+04 -2.457E-01
   1   16    6     1     6    1.2492E+05 -3.8495E+03   1.2877E+05  0.000E+00  0.000E+00  0.000E+00  4.60418E+01  1.668E-01  2.000E+01  2.000E+04 -1.925E-01
   1   16    7     1     7    1.2877E+05 -3.8650E+03   1.3263E+05  0.000E+00  0.000E+00  0.000E+00  4.55676E+01  1.699E-01  2.000E+01  2.000E+04 -1.932E-01
   1   16    8     1     8    1.3263E+05 -3.8118E+03   1.3645E+05  0.000E+00  0.000E+00  0.000E+00  4.50933E+01  1.728E-01  2.000E+01  2.000E+04 -1.906E-01
   1   16    9     1     9    1.3645E+05 -3.6778E+03   1.4012E+05  0.000E+00  0.000E+00  0.000E+00  4.46189E+01  1.757E-01  2.000E+01  2.000E+04 -1.839E-01
   1   16   10     1    10    1.4012E+05 -3.4696E+03   1.4359E+05  0.000E+00  0.000E+00  0.000E+00  4.41443E+01  1.784E-01  2.000E+01  2.000E+04 -1.735E-01
   1   16   11     1    11    1.4359E+05 -3.2041E+03   1.4680E+05  0.000E+00  0.000E+00  0.000E+00  4.36696E+01  1.809E-01  2.000E+01  2.000E+04 -1.602E-01
   1   16   12     1    12    1.4680E+05 -3.6740E+03   1.5047E+05  0.000E+00  0.000E+00  0.000E+00  4.31948E+01  1.835E-01  2.000E+01  2.000E+04 -1.837E-01
   1   15   13     1    13    1.5047E+05 -4.1666E+03   1.5464E+05  0.000E+00  0.000E+00  0.000E+00  4.27205E+01  1.864E-01  2.000E+01  2.000E+04 -2.083E-01
   1   14   14     1    14    1.5464E+05 -4.6162E+03   1.5925E+05  0.000E+00  0.000E+00  0.000E+00  4.22464E+01  1.896E-01  2.000E+01  2.000E+04 -2.308E-01
   1   13   15     1    15    1.5925E+05 -5.1652E+03   1.6442E+05  0.000E+00  0.000E+00  0.000E+00  4.17726E+01  1.931E-01  2.000E+01  2.000E+04 -2.583E-01
   1   12   16     1    16    1.6442E+05 -6.6448E+03   1.7106E+05  0.000E+00  0.000E+00  0.000E+00  4.12996E+01  1.973E-01  2.000E+01  2.000E+04 -3.322E-01
   1   12   17     1    17    1.7106E+05 -4.2878E+03   1.7535E+05  0.000E+00  0.000E+00  0.000E+00  4.08261E+01  2.011E-01  2.000E+01  2.000E+04 -2.144E-01
   1   12   18     1    18    1.7535E+05 -4.1175E+03   1.7947E+05  0.000E+00  0.000E+00  0.000E+00  4.03518E+01  2.040E-01  2.000E+01  2.000E+04 -2.059E-01
   1   12   19     1    19    1.7947E+05 -5.4350E+03   1.8490E+05  0.000E+00  0.000E+00  0.000E+00  3.98778E+01  2.073E-01  2.000E+01  2.000E+04 -2.718E-01
   1   13   20     1    20    1.8490E+05 -3.4956E+03   1.8840E+05  0.000E+00  0.000E+00  0.000E+00  3.94035E+01  2.104E-01  2.000E+01  2.000E+04 -1.748E-01
   1   14   21     1    21    1.8840E+05 -2.3167E+03   1.9072E+05  0.000E+00  0.000E+00  0.000E+00  3.89282E+01  2.123E-01  2.000E+01  2.000E+04 -1.158E-01
   1   14   22     1    22    1.9072E+05  4.9983E+03   1.8572E+05  0.000E+00  0.000E+00  0.000E+00  3.84500E+01  2.114E-01  2.000E+01  2.000E+04  2.499E-01
   1    9   30     2     1    5.0000E+04 -3.4575E+03   5.3457E+04  0.000E+00  0.000E+00  0.000E+00  4.02433E+01  1.183E-01  2.000E+01  2.000E+04 -1.729E-01
   1    9   29     2     2    5.3457E+04 -3.7816E+03   5.7239E+04  0.000E+00  0.000E+00  0.000E+00  3.99982E+01  1.232E-01  2.000E+01  2.000E+04 -1.891E-01
   1    9   28     2     3    5.7239E+04 -4.1575E+03   6.1397E+04  0.000E+00  0.000E+00  0.000E+00  3.97534E+01  1.284E-01  2.000E+01  2.000E+04 -2.079E-01
   1    9   27     2     4    6.1397E+04 -7.1641E+03   6.8561E+04  0.000E+00  0.000E+00  0.000E+00  3.95106E+01  1.356E-01  2.000E+01  2.000E+04 -3.582E-01
   1   10   26     2     5    6.8561E+04 -4.8338E+03   7.3394E+04  0.000E+00  0.000E+00  0.000E+00  3.92680E+01  1.430E-01  2.000E+01  2.000E+04 -2.417E-01
   1   11   25     2     6    7.3394E+04 -3.7369E+03   7.7131E+04  0.000E+00  0.000E+00  0.000E+00  3.90231E+01  1.481E-01  2.000E+01  2.000E+04 -1.868E-01
   1   12   24     2     7    7.7131E+04 -2.7440E+03   7.9875E+04  0.000E+00  0.000E+00  0.000E+00  3.87769E+01  1.519E-01  2.000E+01  2.000E+04 -1.372E-01
   1   13   23     2     8    7.9875E+04 -1.6943E+03   8.1570E+04  0.000E+00  0.000E+00  0.000E+00  3.85294E+01  1.544E-01  2.000E+01  2.000E+04 -8.471E-02
   1   14   22     2     9    8.1570E+04  1.5875E+03   7.9982E+04  0.000E+00  0.000E+00  0.000E+00  3.82795E+01  1.545E-01  2.000E+01  2.000E+04  7.938E-02
   1   14   22     3     1    2.6570E+05 -8.5351E+03   2.7424E+05  0.000E+00  0.000E+00  0.000E+00  3.77734E+01  2.178E-01  2.000E+01  2.000E+04 -4.268E-01
   1   15   23     3     2    2.7424E+05 -2.7858E+03   2.7702E+05  0.000E+00  0.000E+00  0.000E+00  3.68872E+01  2.205E-01  2.000E+01  2.000E+04 -1.393E-01
   1   15   24     3     3    2.7702E+05 -2.0984E+03   2.7912E+05  0.000E+00  0.000E+00  0.000E+00  3.59995E+01  2.217E-01  2.000E+01  2.000E+04 -1.049E-01
   1   15   25     3     4    2.7912E+05 -2.1258E+03   2.8125E+05  0.000E+00  0.000E+00  0.000E+00  3.51116E+01  2.227E-01  2.000E+01  2.000E+04 -1.063E-01
   1   15   26     3     5    2.8125E+05 -2.8261E+03   2.8407E+05  0.000E+00  0.000E+00  0.000E+00  3.42239E+01  2.239E-01  2.000E+01  2.000E+04 -1.413E-01
   1   16   27     3     6    2.8407E+05 -3.7660E+03   2.8784E+05  0.000E+00  0.000E+00  0.000E+00  3.33366E+01  2.255E-01  2.000E+01  2.000E+04 -1.883E-01
   1   17   28     3     7    2.8784E+05 -4.5795E+03   2.9242E+05  0.000E+00  0.000E+00  0.000E+00  3.24497E+01  2.274E-01  2.000E+01  2.000E+04 -2.290E-01
   1   18   29     3     8    2.9242E+05 -6.1603E+03   2.9858E+05  0.000E+00  0.000E+00  0.000E+00  3.15633E+01  2.299E-01  2.000E+01  2.000E+04 -3.080E-01
   1   18   30     3     9    2.9858E+05 -5.2462E+03   3.0382E+05  0.000E+00  0.000E+00  0.000E+00  3.06770E+01  2.326E-01  2.000E+01  2.000E+04 -2.623E-01



1
              HEAD IN LAYER   1 AT END OF TIME STEP   1 IN STRESS PERIOD    2
  ---------------------------------------------------------------------------

          1      2      3      4      5      6      7      8      9     10
         11     12     13     14     15     16     17     18     19     20
         21     22     23     24     25     26     27     28     29     30
 .........................................................................
   1  ****** ****** ****** ****** ****** ****** ****** ****** ****** ******
      ****** ****** ****** ****** ****** ****** ****** ****** ****** ******
      ****** ****** ****** ****** ****** ****** ****** ****** ****** ******
   2  ****** ****** ****** ****** ****** ****** ****** ****** ****** ******
      ****** ****** ****** ****** ****** ****** ****** ****** ****** ******
      ****** ****** ****** ****** ****** ****** ****** ****** ****** ******
   3  ****** ****** ****** ****** ****** ****** ****** ****** ****** ******
      ****** ****** ****** ****** ****** ****** ****** ****** ****** ******
      ****** ****** ****** ****** ****** ****** ****** ****** ****** ******
   4  ****** ****** ****** ****** ****** ****** ****** ****** ****** ******
      ****** ****** ****** ****** ****** ****** ****** ****** ****** ******
      ****** ****** ****** ****** ****** ****** ****** ****** ****** ******
   5  ****** ****** ****** ****** ****** ****** ****** ****** ****** ******
      ****** ****** ****** ****** ****** ****** ****** ****** ****** ******
      ****** ****** ****** ****** ****** ****** ****** ****** ****** ******
   6  ****** ****** ****** ****** ****** ****** ****** ****** ****** ******
      ****** ****** ****** ****** ****** ****** ****** ****** ****** ******
      ****** ****** ****** ****** ****** ****** ****** ****** ****** ******
   7  ****** ****** ****** ****** ****** ****** ****** ****** ****** ******
      ****** ****** ****** ****** ****** ****** ****** ****** ****** ******
      ****** ****** ****** ****** ****** ****** ****** ****** ****** ******
   8  ****** ****** ****** ****** ****** ****** ****** ****** ****** ******
      ****** ****** ****** ****** ****** ****** ****** ****** ****** ******
      ****** ****** ****** ****** ****** ****** ****** ****** ****** ******
   9  ****** ****** ****** ****** ****** ****** ****** ****** ****** ******
      ****** ****** ****** ****** ****** ****** ****** ****** ****** ******
      ****** ****** ****** ****** ****** ****** ****** ****** ****** ******
  10  ****** ****** ****** ****** ****** ****** ****** ****** ****** ******
      ****** ****** ****** ****** ****** ****** ****** ****** ****** ******
      ****** ****** ****** ****** ****** ****** ****** ****** ****** ******
  11  ****** ****** ****** ****** ****** ****** ****** ****** ****** ******
      ****** ****** ****** ****** ****** ****** ****** ****** ****** ******
      ****** ****** ****** ****** ****** ****** ****** ****** ****** ******
  12  ****** ****** ****** ****** ****** ****** ****** ****** ****** ******
      ****** ****** ****** ****** ****** ****** ****** ****** ****** ******
      ****** ****** ****** ****** ****** ****** ****** ****** ****** ******
  13  ****** ****** ****** ****** ****** ****** ****** ****** ****** ******
      ****** ****** ****** ****** ****** ****** ****** ****** ****** ******
      ****** ****** ****** ****** ****** ****** ****** ****** ****** ******
  14  ****** ****** ****** ****** ****** ****** ****** ****** ****** ******
      ****** ****** ****** ****** ****** ****** ****** ****** ****** ******
      ****** ****** ****** ****** ****** ****** ****** ****** ****** ******
  15  ****** ****** ****** ****** ****** ****** ****** ****** ****** ******
      ****** ****** ****** ****** ****** ****** ****** ****** ****** ******
      ****** ****** ****** ****** ****** ****** ****** ****** ****** ******
  16  ****** ****** ****** ****** ****** ****** ****** ****** ****** ******
      ****** ****** ****** ****** ****** ****** ****** ****** ****** ******
      ****** ****** ****** ****** ****** ****** ****** ****** ****** ******
  17  ****** ****** ****** ****** ****** ****** ****** ****** ****** ******
      ****** ****** ****** ****** ****** ****** ****** ****** ****** ******
      ****** ****** ****** ****** ****** ****** ****** ****** ****** ******
  18  ****** ****** ****** ****** ****** ****** ****** ****** ****** ******
      ****** ****** ****** ****** ****** ****** ****** ****** ****** ******
      ****** ****** ****** ****** ****** ****** ****** ****** ****** ******
  19  ****** ****** ****** ****** ****** ****** ****** ****** ****** ******
      ****** ****** ****** ****** ****** ****** ****** ****** ****** ******
      ****** ****** ****** ****** ****** ****** ****** ****** ****** ******
  20  ****** ****** ****** ****** ****** ****** ****** ****** ****** ******
      ****** ****** ****** ****** ****** ****** ****** ****** ****** ******
      ****** ****** ****** ****** ****** ****** ****** ****** ****** ******
  21  ****** ****** ****** ****** ****** ****** ****** ****** ****** ******
      ****** ****** ****** ****** ****** ****** ****** ****** ****** ******
      ****** ****** ****** ****** ****** ****** ****** ****** ****** ******
  22  ****** ****** ****** ****** ****** ****** ****** ****** ****** ******
      ****** ****** ****** ****** ****** ****** ****** ****** ****** ******
      ****** ****** ****** ****** ****** ****** ****** ****** ****** ******
  23  ****** ****** ****** ****** ****** ****** ****** ****** ****** ******
      ****** ****** ****** ****** ****** ****** ****** ****** ****** ******
      ****** ****** ****** ****** ****** ****** ****** ****** ****** ******
  24  ****** ****** ****** ****** ****** ****** ****** ****** ****** ******
      ****** ****** ****** ****** ****** ****** ****** ****** ****** ******
      ****** ****** ****** ****** ****** ****** ****** ****** ****** ******
  25  ****** ****** ****** ****** ****** ****** ****** ****** ****** ******
      ****** ****** ****** ****** ****** ****** ****** ****** ****** ******
      ****** ****** ****** ****** ****** ****** ****** ****** ****** ******

 HEAD WILL BE SAVED ON UNIT   51 AT END OF TIME STEP    1, STRESS PERIOD    2
1
  VOLUMETRIC BUDGET FOR ENTIRE MODEL AT END OF TIME STEP    1, STRESS PERIOD   2
  ------------------------------------------------------------------------------

     CUMULATIVE VOLUMES      L**3       RATES FOR THIS TIME STEP      L**3/T
     ------------------                 ------------------------

           IN:                                      IN:
           ---                                      ---
             STORAGE =    20643979.7769               STORAGE =       33910.7673
       CONSTANT HEAD =    28193156.3010         CONSTANT HEAD =      164706.8284
               WELLS =           0.0000                 WELLS =           0.0000
            RECHARGE =     6292800.0000              RECHARGE =       55200.0000
      STREAM LEAKAGE =     1074937.2332        STREAM LEAKAGE =        6585.8575

            TOTAL IN =    56204873.3111              TOTAL IN =      260403.4533

          OUT:                                     OUT:
          ----                                     ----
             STORAGE =           0.0000               STORAGE =           0.0000
       CONSTANT HEAD =           0.0000         CONSTANT HEAD =           0.0000
               WELLS =    18298890.6745                 WELLS =       99993.9381
            RECHARGE =           0.0000              RECHARGE =           0.0000
      STREAM LEAKAGE =    37905983.2258        STREAM LEAKAGE =      160409.5201

           TOTAL OUT =    56204873.9003             TOTAL OUT =      260403.4582

            IN - OUT =          -0.5892              IN - OUT =      -4.9637E-03

 PERCENT DISCREPANCY =          -0.00     PERCENT DISCREPANCY =          -0.00






         TIME SUMMARY AT END OF TIME STEP    1 IN STRESS PERIOD    2
                    SECONDS     MINUTES      HOURS       DAYS        YEARS
                    -----------------------------------------------------------
   TIME STEP LENGTH 7.86240E+06 1.31040E+05  2184.0      91.000     0.24914    
 STRESS PERIOD TIME 7.86240E+06 1.31040E+05  2184.0      91.000     0.24914    
         TOTAL TIME 1.58112E+07 2.63520E+05  4392.0      183.00     0.50103    
1
1
                            STRESS PERIOD NO.    3, LENGTH =   91.00000    
                            -----------------------------------------------

                              NUMBER OF TIME STEPS =     1

                               MULTIPLIER FOR DELT =     1.500

                            INITIAL TIME STEP SIZE =   91.00000    

 WELL NO.  LAYER   ROW   COL   STRESS RATE         
 --------------------------------------------------
      1      1     23     21     -0.3179E+05
      2      1     23     12     -0.3278E+05
      3      1     23     17     -0.3542E+05

      3 WELLS

                 RECHARGE =   0.00000    

 REUSING STREAM SEGMENT DATA FROM LAST STRESS PERIOD
 
 SOLVING FOR HEAD 


     7 CALLS TO PCG ROUTINE FOR TIME STEP   1 IN STRESS PERIOD    3
    27 TOTAL ITERATIONS

 OUTPUT CONTROL FOR STRESS PERIOD    3   TIME STEP    1
    SAVE BUDGET
    SAVE HEAD FOR ALL LAYERS
    PRINT HEAD FOR ALL LAYERS
 UBDSV2 SAVING "STREAMFLOW OUT  " ON UNIT  50 AT TIME STEP  1, STRESS PERIOD   3



 STREAM LISTING     PERIOD      3   STEP        1

 LAYER ROW COL. STREAM  RCH.  FLOW INTO     FLOW TO   FLOW OUT OF   OVRLND.     DIRECT     STREAM       STREAM     STREAM     STREAM   STREAMBED  STREAMBED
                SEG.NO.  NO.  STRM. RCH.    AQUIFER    STRM. RCH.    RUNOFF     PRECIP       ET          HEAD       DEPTH      WIDTH   CONDCTNC.   GRADIENT

   1   13    1     1     1    1.0000E+05 -2.9040E+03   1.0290E+05  0.000E+00  0.000E+00  0.000E+00  4.84073E+01  1.459E-01  2.000E+01  2.000E+04 -1.452E-01
   1   13    2     1     2    1.0290E+05 -4.9267E+03   1.0783E+05  0.000E+00  0.000E+00  0.000E+00  4.79334E+01  1.493E-01  2.000E+01  2.000E+04 -2.463E-01
   1   14    3     1     3    1.0783E+05 -3.8532E+03   1.1168E+05  0.000E+00  0.000E+00  0.000E+00  4.74598E+01  1.530E-01  2.000E+01  2.000E+04 -1.927E-01
   1   15    4     1     4    1.1168E+05 -3.6622E+03   1.1535E+05  0.000E+00  0.000E+00  0.000E+00  4.69856E+01  1.561E-01  2.000E+01  2.000E+04 -1.831E-01
   1   16    5     1     5    1.1535E+05 -3.7681E+03   1.1911E+05  0.000E+00  0.000E+00  0.000E+00  4.65114E+01  1.591E-01  2.000E+01  2.000E+04 -1.884E-01
   1   16    6     1     6    1.1911E+05 -2.9432E+03   1.2206E+05  0.000E+00  0.000E+00  0.000E+00  4.60368E+01  1.618E-01  2.000E+01  2.000E+04 -1.472E-01
   1   16    7     1     7    1.2206E+05 -2.9305E+03   1.2499E+05  0.000E+00  0.000E+00  0.000E+00  4.55619E+01  1.642E-01  2.000E+01  2.000E+04 -1.465E-01
   1   16    8     1     8    1.2499E+05 -2.8546E+03   1.2784E+05  0.000E+00  0.000E+00  0.000E+00  4.50870E+01  1.665E-01  2.000E+01  2.000E+04 -1.427E-01
   1   16    9     1     9    1.2784E+05 -2.7064E+03   1.3055E+05  0.000E+00  0.000E+00  0.000E+00  4.46119E+01  1.687E-01  2.000E+01  2.000E+04 -1.353E-01
   1   16   10     1    10    1.3055E+05 -2.4919E+03   1.3304E+05  0.000E+00  0.000E+00  0.000E+00  4.41366E+01  1.707E-01  2.000E+01  2.000E+04 -1.246E-01
   1   16   11     1    11    1.3304E+05 -2.2194E+03   1.3526E+05  0.000E+00  0.000E+00  0.000E+00  4.36612E+01  1.725E-01  2.000E+01  2.000E+04 -1.110E-01
   1   16   12     1    12    1.3526E+05 -2.3135E+03   1.3757E+05  0.000E+00  0.000E+00  0.000E+00  4.31856E+01  1.743E-01  2.000E+01  2.000E+04 -1.157E-01
   1   15   13     1    13    1.3757E+05 -2.7299E+03   1.4030E+05  0.000E+00  0.000E+00  0.000E+00  4.27103E+01  1.762E-01  2.000E+01  2.000E+04 -1.365E-01
   1   14   14     1    14    1.4030E+05 -3.1718E+03   1.4348E+05  0.000E+00  0.000E+00  0.000E+00  4.22353E+01  1.784E-01  2.000E+01  2.000E+04 -1.586E-01
   1   13   15     1    15    1.4348E+05 -3.7797E+03   1.4726E+05  0.000E+00  0.000E+00  0.000E+00  4.17606E+01  1.811E-01  2.000E+01  2.000E+04 -1.890E-01
   1   12   16     1    16    1.4726E+05 -5.3619E+03   1.5262E+05  0.000E+00  0.000E+00  0.000E+00  4.12867E+01  1.844E-01  2.000E+01  2.000E+04 -2.681E-01
   1   12   17     1    17    1.5262E+05 -3.3403E+03   1.5596E+05  0.000E+00  0.000E+00  0.000E+00  4.08126E+01  1.876E-01  2.000E+01  2.000E+04 -1.670E-01
   1   12   18     1    18    1.5596E+05 -3.1905E+03   1.5915E+05  0.000E+00  0.000E+00  0.000E+00  4.03377E+01  1.900E-01  2.000E+01  2.000E+04 -1.595E-01
   1   12   19     1    19    1.5915E+05 -4.3270E+03   1.6347E+05  0.000E+00  0.000E+00  0.000E+00  3.98632E+01  1.927E-01  2.000E+01  2.000E+04 -2.163E-01
   1   13   20     1    20    1.6347E+05 -2.3789E+03   1.6585E+05  0.000E+00  0.000E+00  0.000E+00  3.93883E+01  1.951E-01  2.000E+01  2.000E+04 -1.189E-01
   1   14   21     1    21    1.6585E+05 -1.2079E+03   1.6706E+05  0.000E+00  0.000E+00  0.000E+00  3.89123E+01  1.964E-01  2.000E+01  2.000E+04 -6.039E-02
   1   14   22     1    22    1.6706E+05  5.1697E+03   1.6189E+05  0.000E+00  0.000E+00  0.000E+00  3.84336E+01  1.950E-01  2.000E+01  2.000E+04  2.585E-01
   1    9   30     2     1    5.0000E+04 -2.6904E+03   5.2690E+04  0.000E+00  0.000E+00  0.000E+00  4.02427E+01  1.177E-01  2.000E+01  2.000E+04 -1.345E-01
   1    9   29     2     2    5.2690E+04 -3.0246E+03   5.5715E+04  0.000E+00  0.000E+00  0.000E+00  3.99966E+01  1.216E-01  2.000E+01  2.000E+04 -1.512E-01
   1    9   28     2     3    5.5715E+04 -3.4116E+03   5.9127E+04  0.000E+00  0.000E+00  0.000E+00  3.97509E+01  1.259E-01  2.000E+01  2.000E+04 -1.706E-01
   1    9   27     2     4    5.9127E+04 -6.1566E+03   6.5283E+04  0.000E+00  0.000E+00  0.000E+00  3.95071E+01  1.321E-01  2.000E+01  2.000E+04 -3.078E-01
   1   10   26     2     5    6.5283E+04 -3.7681E+03   6.9051E+04  0.000E+00  0.000E+00  0.000E+00  3.92633E+01  1.383E-01  2.000E+01  2.000E+04 -1.884E-01
   1   11   25     2     6    6.9051E+04 -2.7207E+03   7.1772E+04  0.000E+00  0.000E+00  0.000E+00  3.90173E+01  1.423E-01  2.000E+01  2.000E+04 -1.360E-01
   1   12   24     2     7    7.1772E+04 -1.8714E+03   7.3643E+04  0.000E+00  0.000E+00  0.000E+00  3.87701E+01  1.451E-01  2.000E+01  2.000E+04 -9.357E-02
   1   13   23     2     8    7.3643E+04 -1.0475E+03   7.4691E+04  0.000E+00  0.000E+00  0.000E+00  3.85218E+01  1.468E-01  2.000E+01  2.000E+04 -5.238E-02
   1   14   22     2     9    7.4691E+04  1.9228E+03   7.2768E+04  0.000E+00  0.000E+00  0.000E+00  3.82713E+01  1.463E-01  2.000E+01  2.000E+04  9.614E-02
   1   14   22     3     1    2.3466E+05 -8.3440E+03   2.4300E+05  0.000E+00  0.000E+00  0.000E+00  3.77579E+01  2.024E-01  2.000E+01  2.000E+04 -4.172E-01
   1   15   23     3     2    2.4300E+05 -1.7499E+03   2.4475E+05  0.000E+00  0.000E+00  0.000E+00  3.68716E+01  2.049E-01  2.000E+01  2.000E+04 -8.749E-02
   1   15   24     3     3    2.4475E+05 -1.4218E+03   2.4618E+05  0.000E+00  0.000E+00  0.000E+00  3.59835E+01  2.057E-01  2.000E+01  2.000E+04 -7.109E-02
   1   15   25     3     4    2.4618E+05 -1.4711E+03   2.4765E+05  0.000E+00  0.000E+00  0.000E+00  3.50953E+01  2.065E-01  2.000E+01  2.000E+04 -7.356E-02
   1   15   26     3     5    2.4765E+05 -1.9732E+03   2.4962E+05  0.000E+00  0.000E+00  0.000E+00  3.42073E+01  2.073E-01  2.000E+01  2.000E+04 -9.866E-02
   1   16   27     3     6    2.4962E+05 -2.6565E+03   2.5228E+05  0.000E+00  0.000E+00  0.000E+00  3.33196E+01  2.085E-01  2.000E+01  2.000E+04 -1.328E-01
   1   17   28     3     7    2.5228E+05 -3.4576E+03   2.5573E+05  0.000E+00  0.000E+00  0.000E+00  3.24322E+01  2.100E-01  2.000E+01  2.000E+04 -1.729E-01
   1   18   29     3     8    2.5573E+05 -5.1331E+03   2.6087E+05  0.000E+00  0.000E+00  0.000E+00  3.15455E+01  2.121E-01  2.000E+01  2.000E+04 -2.567E-01
   1   18   30     3     9    2.6087E+05 -4.5004E+03   2.6537E+05  0.000E+00  0.000E+00  0.000E+00  3.06589E+01  2.145E-01  2.000E+01  2.000E+04 -2.250E-01



1
              HEAD IN LAYER   1 AT END OF TIME STEP   1 IN STRESS PERIOD    3
  ---------------------------------------------------------------------------

          1      2      3      4      5      6      7      8      9     10
         11     12     13     14     15     16     17     18     19     20
         21     22     23     24     25     26     27     28     29     30
 .........................................................................
   1  ****** ****** ****** ****** ****** ****** ****** ****** ****** ******
      ****** ****** ****** ****** ****** ****** ****** ****** ****** ******
      ****** ****** ****** ****** ****** ****** ****** ****** ****** ******
   2  ****** ****** ****** ****** ****** ****** ****** ****** ****** ******
      ****** ****** ****** ****** ****** ****** ****** ****** ****** ******
      ****** ****** ****** ****** ****** ****** ****** ****** ****** ******
   3  ****** ****** ****** ****** ****** ****** ****** ****** ****** ******
      ****** ****** ****** ****** ****** ****** ****** ****** ****** ******
      ****** ****** ****** ****** ****** ****** ****** ****** ****** ******
   4  ****** ****** ****** ****** ****** ****** ****** ****** ****** ******
      ****** ****** ****** ****** ****** ****** ****** ****** ****** ******
      ****** ****** ****** ****** ****** ****** ****** ****** ****** ******
   5  ****** ****** ****** ****** ****** ****** ****** ****** ****** ******
      ****** ****** ****** ****** ****** ****** ****** ****** ****** ******
      ****** ****** ****** ****** ****** ****** ****** ****** ****** ******
   6  ****** ****** ****** ****** ****** ****** ****** ****** ****** ******
      ****** ****** ****** ****** ****** ****** ****** ****** ****** ******
      ****** ****** ****** ****** ****** ****** ****** ****** ****** ******
   7  ****** ****** ****** ****** ****** ****** ****** ****** ****** ******
      ****** ****** ****** ****** ****** ****** ****** ****** ****** ******
      ****** ****** ****** ****** ****** ****** ****** ****** ****** ******
   8  ****** ****** ****** ****** ****** ****** ****** ****** ****** ******
      ****** ****** ****** ****** ****** ****** ****** ****** ****** ******
      ****** ****** ****** ****** ****** ****** ****** ****** ****** ******
   9  ****** ****** ****** ****** ****** ****** ****** ****** ****** ******
      ****** ****** ****** ****** ****** ****** ****** ****** ****** ******
      ****** ****** ****** ****** ****** ****** ****** ****** ****** ******
  10  ****** ****** ****** ****** ****** ****** ****** ****** ****** ******
      ****** ****** ****** ****** ****** ****** ****** ****** ****** ******
      ****** ****** ****** ****** ****** ****** ****** ****** ****** ******
  11  ****** ****** ****** ****** ****** ****** ****** ****** ****** ******
      ****** ****** ****** ****** ****** ****** ****** ****** ****** ******
      ****** ****** ****** ****** ****** ****** ****** ****** ****** ******
  12  ****** ****** ****** ****** ****** ****** ****** ****** ****** ******
      ****** ****** ****** ****** ****** ****** ****** ****** ****** ******
      ****** ****** ****** ****** ****** ****** ****** ****** ****** ******
  13  ****** ****** ****** ****** ****** ****** ****** ****** ****** ******
      ****** ****** ****** ****** ****** ****** ****** ****** ****** ******
      ****** ****** ****** ****** ****** ****** ****** ****** ****** ******
  14  ****** ****** ****** ****** ****** ****** ****** ****** ****** ******
      ****** ****** ****** ****** ****** ****** ****** ****** ****** ******
      ****** ****** ****** ****** ****** ****** ****** ****** ****** ******
  15  ****** ****** ****** ****** ****** ****** ****** ****** ****** ******
      ****** ****** ****** ****** ****** ****** ****** ****** ****** ******
      ****** ****** ****** ****** ****** ****** ****** ****** ****** ******
  16  ****** ****** ****** ****** ****** ****** ****** ****** ****** ******
      ****** ****** ****** ****** ****** ****** ****** ****** ****** ******
      ****** ****** ****** ****** ****** ****** ****** ****** ****** ******
  17  ****** ****** ****** ****** ****** ****** ****** ****** ****** ******
      ****** ****** ****** ****** ****** ****** ****** ****** ****** ******
      ****** ****** ****** ****** ****** ****** ****** ****** ****** ******
  18  ****** ****** ****** ****** ****** ****** ****** ****** ****** ******
      ****** ****** ****** ****** ****** ****** ****** ****** ****** ******
      ****** ****** ****** ****** ****** ****** ****** ****** ****** ******
  19  ****** ****** ****** ****** ****** ****** ****** ****** ****** ******
      ****** ****** ****** ****** ****** ****** ****** ****** ****** ******
      ****** ****** ****** ****** ****** ****** ****** ****** ****** ******
  20  ****** ****** ****** ****** ****** ****** ****** ****** ****** ******
      ****** ****** ****** ****** ****** ****** ****** ****** ****** ******
      ****** ****** ****** ****** ****** ****** ****** ****** ****** ******
  21  ****** ****** ****** ****** ****** ****** ****** ****** ****** ******
      ****** ****** ****** ****** ****** ****** ****** ****** ****** ******
      ****** ****** ****** ****** ****** ****** ****** ****** ****** ******
  22  ****** ****** ****** ****** ****** ****** ****** ****** ****** ******
      ****** ****** ****** ****** ****** ****** ****** ****** ****** ******
      ****** ****** ****** ****** ****** ****** ****** ****** ****** ******
  23  ****** ****** ****** ****** ****** ****** ****** ****** ****** ******
      ****** ****** ****** ****** ****** ****** ****** ****** ****** ******
      ****** ****** ****** ****** ****** ****** ****** ****** ****** ******
  24  ****** ****** ****** ****** ****** ****** ****** ****** ****** ******
      ****** ****** ****** ****** ****** ****** ****** ****** ****** ******
      ****** ****** ****** ****** ****** ****** ****** ****** ****** ******
  25  ****** ****** ****** ****** ****** ****** ****** ****** ****** ******
      ****** ****** ****** ****** ****** ****** ****** ****** ****** ******
      ****** ****** ****** ****** ****** ****** ****** ****** ****** ******

 HEAD WILL BE SAVED ON UNIT   51 AT END OF TIME STEP    1, STRESS PERIOD    3
1
  VOLUMETRIC BUDGET FOR ENTIRE MODEL AT END OF TIME STEP    1, STRESS PERIOD   3
  ------------------------------------------------------------------------------

     CUMULATIVE VOLUMES      L**3       RATES FOR THIS TIME STEP      L**3/T
     ------------------                 ------------------------

           IN:                                      IN:
           ---                                      ---
             STORAGE =    23047755.4065               STORAGE =       26415.1168
       CONSTANT HEAD =    45387264.7468         CONSTANT HEAD =      188946.2467
               WELLS =           0.0000                 WELLS =           0.0000
            RECHARGE =     6292800.0000              RECHARGE =           0.0000
      STREAM LEAKAGE =     1720357.5857        STREAM LEAKAGE =        7092.5313

            TOTAL IN =    76448177.7390              TOTAL IN =      222453.8948

          OUT:                                     OUT:
          ----                                     ----
             STORAGE =           0.0000               STORAGE =           0.0000
       CONSTANT HEAD =           0.0000         CONSTANT HEAD =           0.0000
               WELLS =    27398339.0427                 WELLS =       99993.9381
            RECHARGE =           0.0000              RECHARGE =           0.0000
      STREAM LEAKAGE =    49049839.5223        STREAM LEAKAGE =      122459.9593

           TOTAL OUT =    76448178.5650             TOTAL OUT =      222453.8974

            IN - OUT =          -0.8261              IN - OUT =      -2.6033E-03

 PERCENT DISCREPANCY =          -0.00     PERCENT DISCREPANCY =          -0.00






         TIME SUMMARY AT END OF TIME STEP    1 IN STRESS PERIOD    3
                    SECONDS     MINUTES      HOURS       DAYS        YEARS
                    -----------------------------------------------------------
   TIME STEP LENGTH 7.86240E+06 1.31040E+05  2184.0      91.000     0.24914    
 STRESS PERIOD TIME 7.86240E+06 1.31040E+05  2184.0      91.000     0.24914    
         TOTAL TIME 2.36736E+07 3.94560E+05  6576.0      274.00     0.75017    
1
1
                            STRESS PERIOD NO.    4, LENGTH =   91.00000    
                            -----------------------------------------------

                              NUMBER OF TIME STEPS =     1

                               MULTIPLIER FOR DELT =     1.500

                            INITIAL TIME STEP SIZE =   91.00000    

 WELL NO.  LAYER   ROW   COL   STRESS RATE         
 --------------------------------------------------
      1      1     23     21     -0.3179E+05
      2      1     23     12     -0.3278E+05
      3      1     23     17     -0.3542E+05

      3 WELLS

                 RECHARGE =  1.000000E-03

 REUSING STREAM SEGMENT DATA FROM LAST STRESS PERIOD
 
 SOLVING FOR HEAD 


     6 CALLS TO PCG ROUTINE FOR TIME STEP   1 IN STRESS PERIOD    4
    21 TOTAL ITERATIONS

 OUTPUT CONTROL FOR STRESS PERIOD    4   TIME STEP    1
    SAVE BUDGET
    SAVE HEAD FOR ALL LAYERS
    PRINT HEAD FOR ALL LAYERS
 UBDSV2 SAVING "STREAMFLOW OUT  " ON UNIT  50 AT TIME STEP  1, STRESS PERIOD   4



 STREAM LISTING     PERIOD      4   STEP        1

 LAYER ROW COL. STREAM  RCH.  FLOW INTO     FLOW TO   FLOW OUT OF   OVRLND.     DIRECT     STREAM       STREAM     STREAM     STREAM   STREAMBED  STREAMBED
                SEG.NO.  NO.  STRM. RCH.    AQUIFER    STRM. RCH.    RUNOFF     PRECIP       ET          HEAD       DEPTH      WIDTH   CONDCTNC.   GRADIENT

   1   13    1     1     1    1.0000E+05 -2.9256E+03   1.0293E+05  0.000E+00  0.000E+00  0.000E+00  4.84073E+01  1.459E-01  2.000E+01  2.000E+04 -1.463E-01
   1   13    2     1     2    1.0293E+05 -4.9194E+03   1.0785E+05  0.000E+00  0.000E+00  0.000E+00  4.79334E+01  1.493E-01  2.000E+01  2.000E+04 -2.460E-01
   1   14    3     1     3    1.0785E+05 -3.8976E+03   1.1174E+05  0.000E+00  0.000E+00  0.000E+00  4.74598E+01  1.530E-01  2.000E+01  2.000E+04 -1.949E-01
   1   15    4     1     4    1.1174E+05 -3.7206E+03   1.1546E+05  0.000E+00  0.000E+00  0.000E+00  4.69857E+01  1.562E-01  2.000E+01  2.000E+04 -1.860E-01
   1   16    5     1     5    1.1546E+05 -3.8270E+03   1.1929E+05  0.000E+00  0.000E+00  0.000E+00  4.65115E+01  1.592E-01  2.000E+01  2.000E+04 -1.914E-01
   1   16    6     1     6    1.1929E+05 -2.9862E+03   1.2228E+05  0.000E+00  0.000E+00  0.000E+00  4.60370E+01  1.620E-01  2.000E+01  2.000E+04 -1.493E-01
   1   16    7     1     7    1.2228E+05 -2.9678E+03   1.2524E+05  0.000E+00  0.000E+00  0.000E+00  4.55621E+01  1.644E-01  2.000E+01  2.000E+04 -1.484E-01
   1   16    8     1     8    1.2524E+05 -2.8871E+03   1.2813E+05  0.000E+00  0.000E+00  0.000E+00  4.50872E+01  1.667E-01  2.000E+01  2.000E+04 -1.444E-01
   1   16    9     1     9    1.2813E+05 -2.7350E+03   1.3087E+05  0.000E+00  0.000E+00  0.000E+00  4.46121E+01  1.689E-01  2.000E+01  2.000E+04 -1.367E-01
   1   16   10     1    10    1.3087E+05 -2.5167E+03   1.3338E+05  0.000E+00  0.000E+00  0.000E+00  4.41369E+01  1.710E-01  2.000E+01  2.000E+04 -1.258E-01
   1   16   11     1    11    1.3338E+05 -2.2391E+03   1.3562E+05  0.000E+00  0.000E+00  0.000E+00  4.36614E+01  1.728E-01  2.000E+01  2.000E+04 -1.120E-01
   1   16   12     1    12    1.3562E+05 -2.3069E+03   1.3793E+05  0.000E+00  0.000E+00  0.000E+00  4.31859E+01  1.746E-01  2.000E+01  2.000E+04 -1.153E-01
   1   15   13     1    13    1.3793E+05 -2.7328E+03   1.4066E+05  0.000E+00  0.000E+00  0.000E+00  4.27106E+01  1.765E-01  2.000E+01  2.000E+04 -1.366E-01
   1   14   14     1    14    1.4066E+05 -3.1753E+03   1.4384E+05  0.000E+00  0.000E+00  0.000E+00  4.22355E+01  1.787E-01  2.000E+01  2.000E+04 -1.588E-01
   1   13   15     1    15    1.4384E+05 -3.7883E+03   1.4763E+05  0.000E+00  0.000E+00  0.000E+00  4.17609E+01  1.813E-01  2.000E+01  2.000E+04 -1.894E-01
   1   12   16     1    16    1.4763E+05 -5.3592E+03   1.5298E+05  0.000E+00  0.000E+00  0.000E+00  4.12870E+01  1.847E-01  2.000E+01  2.000E+04 -2.680E-01
   1   12   17     1    17    1.5298E+05 -3.3632E+03   1.5635E+05  0.000E+00  0.000E+00  0.000E+00  4.08129E+01  1.879E-01  2.000E+01  2.000E+04 -1.682E-01
   1   12   18     1    18    1.5635E+05 -3.2214E+03   1.5957E+05  0.000E+00  0.000E+00  0.000E+00  4.03380E+01  1.903E-01  2.000E+01  2.000E+04 -1.611E-01
   1   12   19     1    19    1.5957E+05 -4.3770E+03   1.6395E+05  0.000E+00  0.000E+00  0.000E+00  3.98635E+01  1.930E-01  2.000E+01  2.000E+04 -2.188E-01
   1   13   20     1    20    1.6395E+05 -2.4410E+03   1.6639E+05  0.000E+00  0.000E+00  0.000E+00  3.93887E+01  1.955E-01  2.000E+01  2.000E+04 -1.221E-01
   1   14   21     1    21    1.6639E+05 -1.2316E+03   1.6762E+05  0.000E+00  0.000E+00  0.000E+00  3.89127E+01  1.968E-01  2.000E+01  2.000E+04 -6.158E-02
   1   14   22     1    22    1.6762E+05  5.1409E+03   1.6248E+05  0.000E+00  0.000E+00  0.000E+00  3.84340E+01  1.954E-01  2.000E+01  2.000E+04  2.570E-01
   1    9   30     2     1    5.0000E+04 -2.8027E+03   5.2803E+04  0.000E+00  0.000E+00  0.000E+00  4.02428E+01  1.178E-01  2.000E+01  2.000E+04 -1.401E-01
   1    9   29     2     2    5.2803E+04 -3.1353E+03   5.5938E+04  0.000E+00  0.000E+00  0.000E+00  3.99968E+01  1.218E-01  2.000E+01  2.000E+04 -1.568E-01
   1    9   28     2     3    5.5938E+04 -3.5181E+03   5.9456E+04  0.000E+00  0.000E+00  0.000E+00  3.97513E+01  1.263E-01  2.000E+01  2.000E+04 -1.759E-01
   1    9   27     2     4    5.9456E+04 -6.2673E+03   6.5723E+04  0.000E+00  0.000E+00  0.000E+00  3.95076E+01  1.326E-01  2.000E+01  2.000E+04 -3.134E-01
   1   10   26     2     5    6.5723E+04 -3.8969E+03   6.9620E+04  0.000E+00  0.000E+00  0.000E+00  3.92639E+01  1.389E-01  2.000E+01  2.000E+04 -1.948E-01
   1   11   25     2     6    6.9620E+04 -2.8504E+03   7.2471E+04  0.000E+00  0.000E+00  0.000E+00  3.90181E+01  1.431E-01  2.000E+01  2.000E+04 -1.425E-01
   1   12   24     2     7    7.2471E+04 -1.9981E+03   7.4469E+04  0.000E+00  0.000E+00  0.000E+00  3.87710E+01  1.460E-01  2.000E+01  2.000E+04 -9.990E-02
   1   13   23     2     8    7.4469E+04 -1.1610E+03   7.5630E+04  0.000E+00  0.000E+00  0.000E+00  3.85228E+01  1.478E-01  2.000E+01  2.000E+04 -5.805E-02
   1   14   22     2     9    7.5630E+04  1.9084E+03   7.3721E+04  0.000E+00  0.000E+00  0.000E+00  3.82724E+01  1.474E-01  2.000E+01  2.000E+04  9.542E-02
   1   14   22     3     1    2.3620E+05 -8.3652E+03   2.4456E+05  0.000E+00  0.000E+00  0.000E+00  3.77587E+01  2.032E-01  2.000E+01  2.000E+04 -4.183E-01
   1   15   23     3     2    2.4456E+05 -1.7718E+03   2.4634E+05  0.000E+00  0.000E+00  0.000E+00  3.68724E+01  2.057E-01  2.000E+01  2.000E+04 -8.859E-02
   1   15   24     3     3    2.4634E+05 -1.4790E+03   2.4782E+05  0.000E+00  0.000E+00  0.000E+00  3.59843E+01  2.065E-01  2.000E+01  2.000E+04 -7.395E-02
   1   15   25     3     4    2.4782E+05 -1.5478E+03   2.4936E+05  0.000E+00  0.000E+00  0.000E+00  3.50962E+01  2.073E-01  2.000E+01  2.000E+04 -7.739E-02
   1   15   26     3     5    2.4936E+05 -2.0904E+03   2.5145E+05  0.000E+00  0.000E+00  0.000E+00  3.42082E+01  2.082E-01  2.000E+01  2.000E+04 -1.045E-01
   1   16   27     3     6    2.5145E+05 -2.7711E+03   2.5422E+05  0.000E+00  0.000E+00  0.000E+00  3.33205E+01  2.094E-01  2.000E+01  2.000E+04 -1.386E-01
   1   17   28     3     7    2.5422E+05 -3.5708E+03   2.5780E+05  0.000E+00  0.000E+00  0.000E+00  3.24332E+01  2.110E-01  2.000E+01  2.000E+04 -1.785E-01
   1   18   29     3     8    2.5780E+05 -5.2291E+03   2.6302E+05  0.000E+00  0.000E+00  0.000E+00  3.15465E+01  2.132E-01  2.000E+01  2.000E+04 -2.615E-01
   1   18   30     3     9    2.6302E+05 -4.5969E+03   2.6762E+05  0.000E+00  0.000E+00  0.000E+00  3.06600E+01  2.156E-01  2.000E+01  2.000E+04 -2.298E-01



1
              HEAD IN LAYER   1 AT END OF TIME STEP   1 IN STRESS PERIOD    4
  ---------------------------------------------------------------------------

          1      2      3      4      5      6      7      8      9     10
         11     12     13     14     15     16     17     18     19     20
         21     22     23     24     25     26     27     28     29     30
 .........................................................................
   1  ****** ****** ****** ****** ****** ****** ****** ****** ****** ******
      ****** ****** ****** ****** ****** ****** ****** ****** ****** ******
      ****** ****** ****** ****** ****** ****** ****** ****** ****** ******
   2  ****** ****** ****** ****** ****** ****** ****** ****** ****** ******
      ****** ****** ****** ****** ****** ****** ****** ****** ****** ******
      ****** ****** ****** ****** ****** ****** ****** ****** ****** ******
   3  ****** ****** ****** ****** ****** ****** ****** ****** ****** ******
      ****** ****** ****** ****** ****** ****** ****** ****** ****** ******
      ****** ****** ****** ****** ****** ****** ****** ****** ****** ******
   4  ****** ****** ****** ****** ****** ****** ****** ****** ****** ******
      ****** ****** ****** ****** ****** ****** ****** ****** ****** ******
      ****** ****** ****** ****** ****** ****** ****** ****** ****** ******
   5  ****** ****** ****** ****** ****** ****** ****** ****** ****** ******
      ****** ****** ****** ****** ****** ****** ****** ****** ****** ******
      ****** ****** ****** ****** ****** ****** ****** ****** ****** ******
   6  ****** ****** ****** ****** ****** ****** ****** ****** ****** ******
      ****** ****** ****** ****** ****** ****** ****** ****** ****** ******
      ****** ****** ****** ****** ****** ****** ****** ****** ****** ******
   7  ****** ****** ****** ****** ****** ****** ****** ****** ****** ******
      ****** ****** ****** ****** ****** ****** ****** ****** ****** ******
      ****** ****** ****** ****** ****** ****** ****** ****** ****** ******
   8  ****** ****** ****** ****** ****** ****** ****** ****** ****** ******
      ****** ****** ****** ****** ****** ****** ****** ****** ****** ******
      ****** ****** ****** ****** ****** ****** ****** ****** ****** ******
   9  ****** ****** ****** ****** ****** ****** ****** ****** ****** ******
      ****** ****** ****** ****** ****** ****** ****** ****** ****** ******
      ****** ****** ****** ****** ****** ****** ****** ****** ****** ******
  10  ****** ****** ****** ****** ****** ****** ****** ****** ****** ******
      ****** ****** ****** ****** ****** ****** ****** ****** ****** ******
      ****** ****** ****** ****** ****** ****** ****** ****** ****** ******
  11  ****** ****** ****** ****** ****** ****** ****** ****** ****** ******
      ****** ****** ****** ****** ****** ****** ****** ****** ****** ******
      ****** ****** ****** ****** ****** ****** ****** ****** ****** ******
  12  ****** ****** ****** ****** ****** ****** ****** ****** ****** ******
      ****** ****** ****** ****** ****** ****** ****** ****** ****** ******
      ****** ****** ****** ****** ****** ****** ****** ****** ****** ******
  13  ****** ****** ****** ****** ****** ****** ****** ****** ****** ******
      ****** ****** ****** ****** ****** ****** ****** ****** ****** ******
      ****** ****** ****** ****** ****** ****** ****** ****** ****** ******
  14  ****** ****** ****** ****** ****** ****** ****** ****** ****** ******
      ****** ****** ****** ****** ****** ****** ****** ****** ****** ******
      ****** ****** ****** ****** ****** ****** ****** ****** ****** ******
  15  ****** ****** ****** ****** ****** ****** ****** ****** ****** ******
      ****** ****** ****** ****** ****** ****** ****** ****** ****** ******
      ****** ****** ****** ****** ****** ****** ****** ****** ****** ******
  16  ****** ****** ****** ****** ****** ****** ****** ****** ****** ******
      ****** ****** ****** ****** ****** ****** ****** ****** ****** ******
      ****** ****** ****** ****** ****** ****** ****** ****** ****** ******
  17  ****** ****** ****** ****** ****** ****** ****** ****** ****** ******
      ****** ****** ****** ****** ****** ****** ****** ****** ****** ******
      ****** ****** ****** ****** ****** ****** ****** ****** ****** ******
  18  ****** ****** ****** ****** ****** ****** ****** ****** ****** ******
      ****** ****** ****** ****** ****** ****** ****** ****** ****** ******
      ****** ****** ****** ****** ****** ****** ****** ****** ****** ******
  19  ****** ****** ****** ****** ****** ****** ****** ****** ****** ******
      ****** ****** ****** ****** ****** ****** ****** ****** ****** ******
      ****** ****** ****** ****** ****** ****** ****** ****** ****** ******
  20  ****** ****** ****** ****** ****** ****** ****** ****** ****** ******
      ****** ****** ****** ****** ****** ****** ****** ****** ****** ******
      ****** ****** ****** ****** ****** ****** ****** ****** ****** ******
  21  ****** ****** ****** ****** ****** ****** ****** ****** ****** ******
      ****** ****** ****** ****** ****** ****** ****** ****** ****** ******
      ****** ****** ****** ****** ****** ****** ****** ****** ****** ******
  22  ****** ****** ****** ****** ****** ****** ****** ****** ****** ******
      ****** ****** ****** ****** ****** ****** ****** ****** ****** ******
      ****** ****** ****** ****** ****** ****** ****** ****** ****** ******
  23  ****** ****** ****** ****** ****** ****** ****** ****** ****** ******
      ****** ****** ****** ****** ****** ****** ****** ****** ****** ******
      ****** ****** ****** ****** ****** ****** ****** ****** ****** ******
  24  ****** ****** ****** ****** ****** ****** ****** ****** ****** ******
      ****** ****** ****** ****** ****** ****** ****** ****** ****** ******
      ****** ****** ****** ****** ****** ****** ****** ****** ****** ******
  25  ****** ****** ****** ****** ****** ****** ****** ****** ****** ******
      ****** ****** ****** ****** ****** ****** ****** ****** ****** ******
      ****** ****** ****** ****** ****** ****** ****** ****** ****** ******

 HEAD WILL BE SAVED ON UNIT   51 AT END OF TIME STEP    1, STRESS PERIOD    4
1
  VOLUMETRIC BUDGET FOR ENTIRE MODEL AT END OF TIME STEP    1, STRESS PERIOD   4
  ------------------------------------------------------------------------------

     CUMULATIVE VOLUMES      L**3       RATES FOR THIS TIME STEP      L**3/T
     ------------------                 ------------------------

           IN:                                      IN:
           ---                                      ---
             STORAGE =    23193640.4624               STORAGE =        1603.1325
       CONSTANT HEAD =    62554589.9499         CONSTANT HEAD =      188651.9253
               WELLS =           0.0000                 WELLS =           0.0000
            RECHARGE =     8804400.0000              RECHARGE =       27600.0000
      STREAM LEAKAGE =     2361842.3140        STREAM LEAKAGE =        7049.2827

            TOTAL IN =    96914472.7262              TOTAL IN =      224904.3405

          OUT:                                     OUT:
          ----                                     ----
             STORAGE =       21824.1121               STORAGE =         239.8254
       CONSTANT HEAD =           0.0000         CONSTANT HEAD =           0.0000
               WELLS =    36497787.4109                 WELLS =       99993.9381
            RECHARGE =           0.0000              RECHARGE =           0.0000
      STREAM LEAKAGE =    60394861.8788        STREAM LEAKAGE =      124670.5753

           TOTAL OUT =    96914473.4017             TOTAL OUT =      224904.3389

            IN - OUT =          -0.6755              IN - OUT =       1.6546E-03

 PERCENT DISCREPANCY =          -0.00     PERCENT DISCREPANCY =           0.00






         TIME SUMMARY AT END OF TIME STEP    1 IN STRESS PERIOD    4
                    SECONDS     MINUTES      HOURS       DAYS        YEARS
                    -----------------------------------------------------------
   TIME STEP LENGTH 7.86240E+06 1.31040E+05  2184.0      91.000     0.24914    
 STRESS PERIOD TIME 7.86240E+06 1.31040E+05  2184.0      91.000     0.24914    
         TOTAL TIME 3.15360E+07 5.25600E+05  8760.0      365.00     0.99932    
1
1
                            STRESS PERIOD NO.    5, LENGTH =   92.00000    
                            -----------------------------------------------

                              NUMBER OF TIME STEPS =     1

                               MULTIPLIER FOR DELT =     1.500

                            INITIAL TIME STEP SIZE =   92.00000    

 WELL NO.  LAYER   ROW   COL   STRESS RATE         
 --------------------------------------------------
      1      1     23     21     -0.3179E+05
      2      1     23     12     -0.3278E+05
      3      1     23     17     -0.3542E+05

      3 WELLS

                 RECHARGE =  5.000000E-04

 REUSING STREAM SEGMENT DATA FROM LAST STRESS PERIOD
 
 SOLVING FOR HEAD 


     6 CALLS TO PCG ROUTINE FOR TIME STEP   1 IN STRESS PERIOD    5
    23 TOTAL ITERATIONS

 OUTPUT CONTROL FOR STRESS PERIOD    5   TIME STEP    1
    SAVE BUDGET
    SAVE HEAD FOR ALL LAYERS
    PRINT HEAD FOR ALL LAYERS
 UBDSV2 SAVING "STREAMFLOW OUT  " ON UNIT  50 AT TIME STEP  1, STRESS PERIOD   5



 STREAM LISTING     PERIOD      5   STEP        1

 LAYER ROW COL. STREAM  RCH.  FLOW INTO     FLOW TO   FLOW OUT OF   OVRLND.     DIRECT     STREAM       STREAM     STREAM     STREAM   STREAMBED  STREAMBED
                SEG.NO.  NO.  STRM. RCH.    AQUIFER    STRM. RCH.    RUNOFF     PRECIP       ET          HEAD       DEPTH      WIDTH   CONDCTNC.   GRADIENT

   1   13    1     1     1    1.0000E+05 -2.7513E+03   1.0275E+05  0.000E+00  0.000E+00  0.000E+00  4.84072E+01  1.458E-01  2.000E+01  2.000E+04 -1.376E-01
   1   13    2     1     2    1.0275E+05 -4.6784E+03   1.0743E+05  0.000E+00  0.000E+00  0.000E+00  4.79331E+01  1.490E-01  2.000E+01  2.000E+04 -2.339E-01
   1   14    3     1     3    1.0743E+05 -3.6719E+03   1.1110E+05  0.000E+00  0.000E+00  0.000E+00  4.74594E+01  1.526E-01  2.000E+01  2.000E+04 -1.836E-01
   1   15    4     1     4    1.1110E+05 -3.5049E+03   1.1461E+05  0.000E+00  0.000E+00  0.000E+00  4.69851E+01  1.555E-01  2.000E+01  2.000E+04 -1.752E-01
   1   16    5     1     5    1.1461E+05 -3.6362E+03   1.1824E+05  0.000E+00  0.000E+00  0.000E+00  4.65107E+01  1.585E-01  2.000E+01  2.000E+04 -1.818E-01
   1   16    6     1     6    1.1824E+05 -2.8299E+03   1.2107E+05  0.000E+00  0.000E+00  0.000E+00  4.60361E+01  1.611E-01  2.000E+01  2.000E+04 -1.415E-01
   1   16    7     1     7    1.2107E+05 -2.8067E+03   1.2388E+05  0.000E+00  0.000E+00  0.000E+00  4.55611E+01  1.634E-01  2.000E+01  2.000E+04 -1.403E-01
   1   16    8     1     8    1.2388E+05 -2.7230E+03   1.2660E+05  0.000E+00  0.000E+00  0.000E+00  4.50860E+01  1.656E-01  2.000E+01  2.000E+04 -1.361E-01
   1   16    9     1     9    1.2660E+05 -2.5698E+03   1.2917E+05  0.000E+00  0.000E+00  0.000E+00  4.46108E+01  1.677E-01  2.000E+01  2.000E+04 -1.285E-01
   1   16   10     1    10    1.2917E+05 -2.3523E+03   1.3152E+05  0.000E+00  0.000E+00  0.000E+00  4.41355E+01  1.696E-01  2.000E+01  2.000E+04 -1.176E-01
   1   16   11     1    11    1.3152E+05 -2.0762E+03   1.3360E+05  0.000E+00  0.000E+00  0.000E+00  4.36599E+01  1.713E-01  2.000E+01  2.000E+04 -1.038E-01
   1   16   12     1    12    1.3360E+05 -2.0939E+03   1.3569E+05  0.000E+00  0.000E+00  0.000E+00  4.31843E+01  1.729E-01  2.000E+01  2.000E+04 -1.047E-01
   1   15   13     1    13    1.3569E+05 -2.4980E+03   1.3819E+05  0.000E+00  0.000E+00  0.000E+00  4.27088E+01  1.747E-01  2.000E+01  2.000E+04 -1.249E-01
   1   14   14     1    14    1.3819E+05 -2.9348E+03   1.4113E+05  0.000E+00  0.000E+00  0.000E+00  4.22336E+01  1.768E-01  2.000E+01  2.000E+04 -1.467E-01
   1   13   15     1    15    1.4113E+05 -3.5518E+03   1.4468E+05  0.000E+00  0.000E+00  0.000E+00  4.17588E+01  1.792E-01  2.000E+01  2.000E+04 -1.776E-01
   1   12   16     1    16    1.4468E+05 -5.1303E+03   1.4981E+05  0.000E+00  0.000E+00  0.000E+00  4.12847E+01  1.825E-01  2.000E+01  2.000E+04 -2.565E-01
   1   12   17     1    17    1.4981E+05 -3.2005E+03   1.5301E+05  0.000E+00  0.000E+00  0.000E+00  4.08105E+01  1.855E-01  2.000E+01  2.000E+04 -1.600E-01
   1   12   18     1    18    1.5301E+05 -3.0648E+03   1.5607E+05  0.000E+00  0.000E+00  0.000E+00  4.03356E+01  1.878E-01  2.000E+01  2.000E+04 -1.532E-01
   1   12   19     1    19    1.5607E+05 -4.1917E+03   1.6027E+05  0.000E+00  0.000E+00  0.000E+00  3.98609E+01  1.905E-01  2.000E+01  2.000E+04 -2.096E-01
   1   13   20     1    20    1.6027E+05 -2.2622E+03   1.6253E+05  0.000E+00  0.000E+00  0.000E+00  3.93860E+01  1.928E-01  2.000E+01  2.000E+04 -1.131E-01
   1   14   21     1    21    1.6253E+05 -1.0604E+03   1.6359E+05  0.000E+00  0.000E+00  0.000E+00  3.89099E+01  1.940E-01  2.000E+01  2.000E+04 -5.302E-02
   1   14   22     1    22    1.6359E+05  5.1675E+03   1.5842E+05  0.000E+00  0.000E+00  0.000E+00  3.84311E+01  1.925E-01  2.000E+01  2.000E+04  2.584E-01
   1    9   30     2     1    5.0000E+04 -2.6872E+03   5.2687E+04  0.000E+00  0.000E+00  0.000E+00  4.02427E+01  1.177E-01  2.000E+01  2.000E+04 -1.344E-01
   1    9   29     2     2    5.2687E+04 -3.0201E+03   5.5707E+04  0.000E+00  0.000E+00  0.000E+00  3.99966E+01  1.216E-01  2.000E+01  2.000E+04 -1.510E-01
   1    9   28     2     3    5.5707E+04 -3.4022E+03   5.9110E+04  0.000E+00  0.000E+00  0.000E+00  3.97509E+01  1.259E-01  2.000E+01  2.000E+04 -1.701E-01
   1    9   27     2     4    5.9110E+04 -6.1062E+03   6.5216E+04  0.000E+00  0.000E+00  0.000E+00  3.95070E+01  1.320E-01  2.000E+01  2.000E+04 -3.053E-01
   1   10   26     2     5    6.5216E+04 -3.7309E+03   6.8947E+04  0.000E+00  0.000E+00  0.000E+00  3.92632E+01  1.382E-01  2.000E+01  2.000E+04 -1.865E-01
   1   11   25     2     6    6.8947E+04 -2.6907E+03   7.1637E+04  0.000E+00  0.000E+00  0.000E+00  3.90171E+01  1.421E-01  2.000E+01  2.000E+04 -1.345E-01
   1   12   24     2     7    7.1637E+04 -1.8561E+03   7.3494E+04  0.000E+00  0.000E+00  0.000E+00  3.87699E+01  1.449E-01  2.000E+01  2.000E+04 -9.280E-02
   1   13   23     2     8    7.3494E+04 -1.0496E+03   7.4543E+04  0.000E+00  0.000E+00  0.000E+00  3.85216E+01  1.466E-01  2.000E+01  2.000E+04 -5.248E-02
   1   14   22     2     9    7.4543E+04  1.9661E+03   7.2577E+04  0.000E+00  0.000E+00  0.000E+00  3.82711E+01  1.461E-01  2.000E+01  2.000E+04  9.831E-02
   1   14   22     3     1    2.3100E+05 -8.3340E+03   2.3933E+05  0.000E+00  0.000E+00  0.000E+00  3.77561E+01  2.005E-01  2.000E+01  2.000E+04 -4.167E-01
   1   15   23     3     2    2.3933E+05 -1.6123E+03   2.4094E+05  0.000E+00  0.000E+00  0.000E+00  3.68697E+01  2.030E-01  2.000E+01  2.000E+04 -8.061E-02
   1   15   24     3     3    2.4094E+05 -1.3714E+03   2.4232E+05  0.000E+00  0.000E+00  0.000E+00  3.59816E+01  2.038E-01  2.000E+01  2.000E+04 -6.857E-02
   1   15   25     3     4    2.4232E+05 -1.4449E+03   2.4376E+05  0.000E+00  0.000E+00  0.000E+00  3.50934E+01  2.045E-01  2.000E+01  2.000E+04 -7.225E-02
   1   15   26     3     5    2.4376E+05 -1.9667E+03   2.4573E+05  0.000E+00  0.000E+00  0.000E+00  3.42054E+01  2.054E-01  2.000E+01  2.000E+04 -9.834E-02
   1   16   27     3     6    2.4573E+05 -2.6101E+03   2.4834E+05  0.000E+00  0.000E+00  0.000E+00  3.33176E+01  2.065E-01  2.000E+01  2.000E+04 -1.305E-01
   1   17   28     3     7    2.4834E+05 -3.4060E+03   2.5174E+05  0.000E+00  0.000E+00  0.000E+00  3.24302E+01  2.080E-01  2.000E+01  2.000E+04 -1.703E-01
   1   18   29     3     8    2.5174E+05 -5.0726E+03   2.5682E+05  0.000E+00  0.000E+00  0.000E+00  3.15435E+01  2.101E-01  2.000E+01  2.000E+04 -2.536E-01
   1   18   30     3     9    2.5682E+05 -4.4836E+03   2.6130E+05  0.000E+00  0.000E+00  0.000E+00  3.06569E+01  2.125E-01  2.000E+01  2.000E+04 -2.242E-01



1
              HEAD IN LAYER   1 AT END OF TIME STEP   1 IN STRESS PERIOD    5
  ---------------------------------------------------------------------------

          1      2      3      4      5      6      7      8      9     10
         11     12     13     14     15     16     17     18     19     20
         21     22     23     24     25     26     27     28     29     30
 .........................................................................
   1  ****** ****** ****** ****** ****** ****** ****** ****** ****** ******
      ****** ****** ****** ****** ****** ****** ****** ****** ****** ******
      ****** ****** ****** ****** ****** ****** ****** ****** ****** ******
   2  ****** ****** ****** ****** ****** ****** ****** ****** ****** ******
      ****** ****** ****** ****** ****** ****** ****** ****** ****** ******
      ****** ****** ****** ****** ****** ****** ****** ****** ****** ******
   3  ****** ****** ****** ****** ****** ****** ****** ****** ****** ******
      ****** ****** ****** ****** ****** ****** ****** ****** ****** ******
      ****** ****** ****** ****** ****** ****** ****** ****** ****** ******
   4  ****** ****** ****** ****** ****** ****** ****** ****** ****** ******
      ****** ****** ****** ****** ****** ****** ****** ****** ****** ******
      ****** ****** ****** ****** ****** ****** ****** ****** ****** ******
   5  ****** ****** ****** ****** ****** ****** ****** ****** ****** ******
      ****** ****** ****** ****** ****** ****** ****** ****** ****** ******
      ****** ****** ****** ****** ****** ****** ****** ****** ****** ******
   6  ****** ****** ****** ****** ****** ****** ****** ****** ****** ******
      ****** ****** ****** ****** ****** ****** ****** ****** ****** ******
      ****** ****** ****** ****** ****** ****** ****** ****** ****** ******
   7  ****** ****** ****** ****** ****** ****** ****** ****** ****** ******
      ****** ****** ****** ****** ****** ****** ****** ****** ****** ******
      ****** ****** ****** ****** ****** ****** ****** ****** ****** ******
   8  ****** ****** ****** ****** ****** ****** ****** ****** ****** ******
      ****** ****** ****** ****** ****** ****** ****** ****** ****** ******
      ****** ****** ****** ****** ****** ****** ****** ****** ****** ******
   9  ****** ****** ****** ****** ****** ****** ****** ****** ****** ******
      ****** ****** ****** ****** ****** ****** ****** ****** ****** ******
      ****** ****** ****** ****** ****** ****** ****** ****** ****** ******
  10  ****** ****** ****** ****** ****** ****** ****** ****** ****** ******
      ****** ****** ****** ****** ****** ****** ****** ****** ****** ******
      ****** ****** ****** ****** ****** ****** ****** ****** ****** ******
  11  ****** ****** ****** ****** ****** ****** ****** ****** ****** ******
      ****** ****** ****** ****** ****** ****** ****** ****** ****** ******
      ****** ****** ****** ****** ****** ****** ****** ****** ****** ******
  12  ****** ****** ****** ****** ****** ****** ****** ****** ****** ******
      ****** ****** ****** ****** ****** ****** ****** ****** ****** ******
      ****** ****** ****** ****** ****** ****** ****** ****** ****** ******
  13  ****** ****** ****** ****** ****** ****** ****** ****** ****** ******
      ****** ****** ****** ****** ****** ****** ****** ****** ****** ******
      ****** ****** ****** ****** ****** ****** ****** ****** ****** ******
  14  ****** ****** ****** ****** ****** ****** ****** ****** ****** ******
      ****** ****** ****** ****** ****** ****** ****** ****** ****** ******
      ****** ****** ****** ****** ****** ****** ****** ****** ****** ******
  15  ****** ****** ****** ****** ****** ****** ****** ****** ****** ******
      ****** ****** ****** ****** ****** ****** ****** ****** ****** ******
      ****** ****** ****** ****** ****** ****** ****** ****** ****** ******
  16  ****** ****** ****** ****** ****** ****** ****** ****** ****** ******
      ****** ****** ****** ****** ****** ****** ****** ****** ****** ******
      ****** ****** ****** ****** ****** ****** ****** ****** ****** ******
  17  ****** ****** ****** ****** ****** ****** ****** ****** ****** ******
      ****** ****** ****** ****** ****** ****** ****** ****** ****** ******
      ****** ****** ****** ****** ****** ****** ****** ****** ****** ******
  18  ****** ****** ****** ****** ****** ****** ****** ****** ****** ******
      ****** ****** ****** ****** ****** ****** ****** ****** ****** ******
      ****** ****** ****** ****** ****** ****** ****** ****** ****** ******
  19  ****** ****** ****** ****** ****** ****** ****** ****** ****** ******
      ****** ****** ****** ****** ****** ****** ****** ****** ****** ******
      ****** ****** ****** ****** ****** ****** ****** ****** ****** ******
  20  ****** ****** ****** ****** ****** ****** ****** ****** ****** ******
      ****** ****** ****** ****** ****** ****** ****** ****** ****** ******
      ****** ****** ****** ****** ****** ****** ****** ****** ****** ******
  21  ****** ****** ****** ****** ****** ****** ****** ****** ****** ******
      ****** ****** ****** ****** ****** ****** ****** ****** ****** ******
      ****** ****** ****** ****** ****** ****** ****** ****** ****** ******
  22  ****** ****** ****** ****** ****** ****** ****** ****** ****** ******
      ****** ****** ****** ****** ****** ****** ****** ****** ****** ******
      ****** ****** ****** ****** ****** ****** ****** ****** ****** ******
  23  ****** ****** ****** ****** ****** ****** ****** ****** ****** ******
      ****** ****** ****** ****** ****** ****** ****** ****** ****** ******
      ****** ****** ****** ****** ****** ****** ****** ****** ****** ******
  24  ****** ****** ****** ****** ****** ****** ****** ****** ****** ******
      ****** ****** ****** ****** ****** ****** ****** ****** ****** ******
      ****** ****** ****** ****** ****** ****** ****** ****** ****** ******
  25  ****** ****** ****** ****** ****** ****** ****** ****** ****** ******
      ****** ****** ****** ****** ****** ****** ****** ****** ****** ******
      ****** ****** ****** ****** ****** ****** ****** ****** ****** ******

 HEAD WILL BE SAVED ON UNIT   51 AT END OF TIME STEP    1, STRESS PERIOD    5
1
  VOLUMETRIC BUDGET FOR ENTIRE MODEL AT END OF TIME STEP    1, STRESS PERIOD   5
  ------------------------------------------------------------------------------

     CUMULATIVE VOLUMES      L**3       RATES FOR THIS TIME STEP      L**3/T
     ------------------                 ------------------------

           IN:                                      IN:
           ---                                      ---
             STORAGE =    23606130.7073               STORAGE =        4483.5896
       CONSTANT HEAD =    80311563.2457         CONSTANT HEAD =      193010.5793
               WELLS =           0.0000                 WELLS =           0.0000
            RECHARGE =    10074000.0000              RECHARGE =       13800.0000
      STREAM LEAKAGE =     3018133.2352        STREAM LEAKAGE =        7133.5970

            TOTAL IN =   117009827.1882              TOTAL IN =      218427.7659

          OUT:                                     OUT:
          ----                                     ----
             STORAGE =       21824.1121               STORAGE =           0.0000
       CONSTANT HEAD =           0.0000         CONSTANT HEAD =           0.0000
               WELLS =    45697229.7172                 WELLS =       99993.9381
            RECHARGE =           0.0000              RECHARGE =           0.0000
      STREAM LEAKAGE =    71290774.1047        STREAM LEAKAGE =      118433.8285

           TOTAL OUT =   117009827.9339             TOTAL OUT =      218427.7667

            IN - OUT =          -0.7458              IN - OUT =      -7.6374E-04

 PERCENT DISCREPANCY =          -0.00     PERCENT DISCREPANCY =          -0.00






         TIME SUMMARY AT END OF TIME STEP    1 IN STRESS PERIOD    5
                    SECONDS     MINUTES      HOURS       DAYS        YEARS
                    -----------------------------------------------------------
   TIME STEP LENGTH 7.94880E+06 1.32480E+05  2208.0      92.000     0.25188    
 STRESS PERIOD TIME 7.94880E+06 1.32480E+05  2208.0      92.000     0.25188    
         TOTAL TIME 3.94848E+07 6.58080E+05  10968.      457.00      1.2512    
1
1
                            STRESS PERIOD NO.    6, LENGTH =   91.00000    
                            -----------------------------------------------

                              NUMBER OF TIME STEPS =     1

                               MULTIPLIER FOR DELT =     1.500

                            INITIAL TIME STEP SIZE =   91.00000    

 WELL NO.  LAYER   ROW   COL   STRESS RATE         
 --------------------------------------------------
      1      1     23     21     -0.3179E+05
      2      1     23     12     -0.3278E+05
      3      1     23     17     -0.3542E+05

      3 WELLS

                 RECHARGE =  2.000000E-03

 REUSING STREAM SEGMENT DATA FROM LAST STRESS PERIOD
 
 SOLVING FOR HEAD 


     7 CALLS TO PCG ROUTINE FOR TIME STEP   1 IN STRESS PERIOD    6
    26 TOTAL ITERATIONS

 OUTPUT CONTROL FOR STRESS PERIOD    6   TIME STEP    1
    SAVE BUDGET
    SAVE HEAD FOR ALL LAYERS
    PRINT HEAD FOR ALL LAYERS
 UBDSV2 SAVING "STREAMFLOW OUT  " ON UNIT  50 AT TIME STEP  1, STRESS PERIOD   6



 STREAM LISTING     PERIOD      6   STEP        1

 LAYER ROW COL. STREAM  RCH.  FLOW INTO     FLOW TO   FLOW OUT OF   OVRLND.     DIRECT     STREAM       STREAM     STREAM     STREAM   STREAMBED  STREAMBED
                SEG.NO.  NO.  STRM. RCH.    AQUIFER    STRM. RCH.    RUNOFF     PRECIP       ET          HEAD       DEPTH      WIDTH   CONDCTNC.   GRADIENT

   1   13    1     1     1    1.0000E+05 -3.1506E+03   1.0315E+05  0.000E+00  0.000E+00  0.000E+00  4.84074E+01  1.460E-01  2.000E+01  2.000E+04 -1.575E-01
   1   13    2     1     2    1.0315E+05 -5.2038E+03   1.0835E+05  0.000E+00  0.000E+00  0.000E+00  4.79337E+01  1.496E-01  2.000E+01  2.000E+04 -2.602E-01
   1   14    3     1     3    1.0835E+05 -4.2107E+03   1.1257E+05  0.000E+00  0.000E+00  0.000E+00  4.74604E+01  1.535E-01  2.000E+01  2.000E+04 -2.105E-01
   1   15    4     1     4    1.1257E+05 -4.0408E+03   1.1661E+05  0.000E+00  0.000E+00  0.000E+00  4.69865E+01  1.570E-01  2.000E+01  2.000E+04 -2.020E-01
   1   16    5     1     5    1.1661E+05 -4.1331E+03   1.2074E+05  0.000E+00  0.000E+00  0.000E+00  4.65126E+01  1.603E-01  2.000E+01  2.000E+04 -2.067E-01
   1   16    6     1     6    1.2074E+05 -3.2207E+03   1.2396E+05  0.000E+00  0.000E+00  0.000E+00  4.60383E+01  1.633E-01  2.000E+01  2.000E+04 -1.610E-01
   1   16    7     1     7    1.2396E+05 -3.2030E+03   1.2716E+05  0.000E+00  0.000E+00  0.000E+00  4.55635E+01  1.658E-01  2.000E+01  2.000E+04 -1.601E-01
   1   16    8     1     8    1.2716E+05 -3.1224E+03   1.3029E+05  0.000E+00  0.000E+00  0.000E+00  4.50888E+01  1.683E-01  2.000E+01  2.000E+04 -1.561E-01
   1   16    9     1     9    1.3029E+05 -2.9689E+03   1.3325E+05  0.000E+00  0.000E+00  0.000E+00  4.46139E+01  1.707E-01  2.000E+01  2.000E+04 -1.484E-01
   1   16   10     1    10    1.3325E+05 -2.7476E+03   1.3600E+05  0.000E+00  0.000E+00  0.000E+00  4.41388E+01  1.729E-01  2.000E+01  2.000E+04 -1.374E-01
   1   16   11     1    11    1.3600E+05 -2.4660E+03   1.3847E+05  0.000E+00  0.000E+00  0.000E+00  4.36635E+01  1.749E-01  2.000E+01  2.000E+04 -1.233E-01
   1   16   12     1    12    1.3847E+05 -2.5944E+03   1.4106E+05  0.000E+00  0.000E+00  0.000E+00  4.31882E+01  1.768E-01  2.000E+01  2.000E+04 -1.297E-01
   1   15   13     1    13    1.4106E+05 -3.0418E+03   1.4410E+05  0.000E+00  0.000E+00  0.000E+00  4.27131E+01  1.790E-01  2.000E+01  2.000E+04 -1.521E-01
   1   14   14     1    14    1.4410E+05 -3.4885E+03   1.4759E+05  0.000E+00  0.000E+00  0.000E+00  4.22382E+01  1.814E-01  2.000E+01  2.000E+04 -1.744E-01
   1   13   15     1    15    1.4759E+05 -4.0966E+03   1.5169E+05  0.000E+00  0.000E+00  0.000E+00  4.17638E+01  1.842E-01  2.000E+01  2.000E+04 -2.048E-01
   1   12   16     1    16    1.5169E+05 -5.6516E+03   1.5734E+05  0.000E+00  0.000E+00  0.000E+00  4.12901E+01  1.878E-01  2.000E+01  2.000E+04 -2.826E-01
   1   12   17     1    17    1.5734E+05 -3.5900E+03   1.6093E+05  0.000E+00  0.000E+00  0.000E+00  4.08162E+01  1.912E-01  2.000E+01  2.000E+04 -1.795E-01
   1   12   18     1    18    1.6093E+05 -3.4483E+03   1.6438E+05  0.000E+00  0.000E+00  0.000E+00  4.03414E+01  1.937E-01  2.000E+01  2.000E+04 -1.724E-01
   1   12   19     1    19    1.6438E+05 -4.6603E+03   1.6904E+05  0.000E+00  0.000E+00  0.000E+00  3.98670E+01  1.966E-01  2.000E+01  2.000E+04 -2.330E-01
   1   13   20     1    20    1.6904E+05 -2.7190E+03   1.7176E+05  0.000E+00  0.000E+00  0.000E+00  3.93923E+01  1.992E-01  2.000E+01  2.000E+04 -1.360E-01
   1   14   21     1    21    1.7176E+05 -1.4790E+03   1.7324E+05  0.000E+00  0.000E+00  0.000E+00  3.89165E+01  2.006E-01  2.000E+01  2.000E+04 -7.395E-02
   1   14   22     1    22    1.7324E+05  5.0883E+03   1.6815E+05  0.000E+00  0.000E+00  0.000E+00  3.84380E+01  1.994E-01  2.000E+01  2.000E+04  2.544E-01
   1    9   30     2     1    5.0000E+04 -3.0443E+03   5.3044E+04  0.000E+00  0.000E+00  0.000E+00  4.02430E+01  1.180E-01  2.000E+01  2.000E+04 -1.522E-01
   1    9   29     2     2    5.3044E+04 -3.3744E+03   5.6419E+04  0.000E+00  0.000E+00  0.000E+00  3.99973E+01  1.223E-01  2.000E+01  2.000E+04 -1.687E-01
   1    9   28     2     3    5.6419E+04 -3.7542E+03   6.0173E+04  0.000E+00  0.000E+00  0.000E+00  3.97520E+01  1.270E-01  2.000E+01  2.000E+04 -1.877E-01
   1    9   27     2     4    6.0173E+04 -6.5757E+03   6.6749E+04  0.000E+00  0.000E+00  0.000E+00  3.95087E+01  1.337E-01  2.000E+01  2.000E+04 -3.288E-01
   1   10   26     2     5    6.6749E+04 -4.2169E+03   7.0966E+04  0.000E+00  0.000E+00  0.000E+00  3.92654E+01  1.404E-01  2.000E+01  2.000E+04 -2.108E-01
   1   11   25     2     6    7.0966E+04 -3.1557E+03   7.4121E+04  0.000E+00  0.000E+00  0.000E+00  3.90199E+01  1.449E-01  2.000E+01  2.000E+04 -1.578E-01
   1   12   24     2     7    7.4121E+04 -2.2671E+03   7.6388E+04  0.000E+00  0.000E+00  0.000E+00  3.87731E+01  1.481E-01  2.000E+01  2.000E+04 -1.134E-01
   1   13   23     2     8    7.6388E+04 -1.3703E+03   7.7759E+04  0.000E+00  0.000E+00  0.000E+00  3.85252E+01  1.502E-01  2.000E+01  2.000E+04 -6.851E-02
   1   14   22     2     9    7.7759E+04  1.8272E+03   7.5932E+04  0.000E+00  0.000E+00  0.000E+00  3.82749E+01  1.499E-01  2.000E+01  2.000E+04  9.136E-02
   1   14   22     3     1    2.4408E+05 -8.4178E+03   2.5250E+05  0.000E+00  0.000E+00  0.000E+00  3.77627E+01  2.071E-01  2.000E+01  2.000E+04 -4.209E-01
   1   15   23     3     2    2.5250E+05 -2.0032E+03   2.5450E+05  0.000E+00  0.000E+00  0.000E+00  3.68764E+01  2.097E-01  2.000E+01  2.000E+04 -1.002E-01
   1   15   24     3     3    2.5450E+05 -1.6558E+03   2.5616E+05  0.000E+00  0.000E+00  0.000E+00  3.59884E+01  2.106E-01  2.000E+01  2.000E+04 -8.279E-02
   1   15   25     3     4    2.5616E+05 -1.7308E+03   2.5789E+05  0.000E+00  0.000E+00  0.000E+00  3.51004E+01  2.115E-01  2.000E+01  2.000E+04 -8.654E-02
   1   15   26     3     5    2.5789E+05 -2.3367E+03   2.6022E+05  0.000E+00  0.000E+00  0.000E+00  3.42125E+01  2.125E-01  2.000E+01  2.000E+04 -1.168E-01
   1   16   27     3     6    2.6022E+05 -3.0733E+03   2.6330E+05  0.000E+00  0.000E+00  0.000E+00  3.33249E+01  2.138E-01  2.000E+01  2.000E+04 -1.537E-01
   1   17   28     3     7    2.6330E+05 -3.8788E+03   2.6718E+05  0.000E+00  0.000E+00  0.000E+00  3.24377E+01  2.155E-01  2.000E+01  2.000E+04 -1.939E-01
   1   18   29     3     8    2.6718E+05 -5.5158E+03   2.7269E+05  0.000E+00  0.000E+00  0.000E+00  3.15511E+01  2.178E-01  2.000E+01  2.000E+04 -2.758E-01
   1   18   30     3     9    2.7269E+05 -4.8188E+03   2.7751E+05  0.000E+00  0.000E+00  0.000E+00  3.06647E+01  2.203E-01  2.000E+01  2.000E+04 -2.409E-01



1
              HEAD IN LAYER   1 AT END OF TIME STEP   1 IN STRESS PERIOD    6
  ---------------------------------------------------------------------------

          1      2      3      4      5      6      7      8      9     10
         11     12     13     14     15     16     17     18     19     20
         21     22     23     24     25     26     27     28     29     30
 .........................................................................
   1  ****** ****** ****** ****** ****** ****** ****** ****** ****** ******
      ****** ****** ****** ****** ****** ****** ****** ****** ****** ******
      ****** ****** ****** ****** ****** ****** ****** ****** ****** ******
   2  ****** ****** ****** ****** ****** ****** ****** ****** ****** ******
      ****** ****** ****** ****** ****** ****** ****** ****** ****** ******
      ****** ****** ****** ****** ****** ****** ****** ****** ****** ******
   3  ****** ****** ****** ****** ****** ****** ****** ****** ****** ******
      ****** ****** ****** ****** ****** ****** ****** ****** ****** ******
      ****** ****** ****** ****** ****** ****** ****** ****** ****** ******
   4  ****** ****** ****** ****** ****** ****** ****** ****** ****** ******
      ****** ****** ****** ****** ****** ****** ****** ****** ****** ******
      ****** ****** ****** ****** ****** ****** ****** ****** ****** ******
   5  ****** ****** ****** ****** ****** ****** ****** ****** ****** ******
      ****** ****** ****** ****** ****** ****** ****** ****** ****** ******
      ****** ****** ****** ****** ****** ****** ****** ****** ****** ******
   6  ****** ****** ****** ****** ****** ****** ****** ****** ****** ******
      ****** ****** ****** ****** ****** ****** ****** ****** ****** ******
      ****** ****** ****** ****** ****** ****** ****** ****** ****** ******
   7  ****** ****** ****** ****** ****** ****** ****** ****** ****** ******
      ****** ****** ****** ****** ****** ****** ****** ****** ****** ******
      ****** ****** ****** ****** ****** ****** ****** ****** ****** ******
   8  ****** ****** ****** ****** ****** ****** ****** ****** ****** ******
      ****** ****** ****** ****** ****** ****** ****** ****** ****** ******
      ****** ****** ****** ****** ****** ****** ****** ****** ****** ******
   9  ****** ****** ****** ****** ****** ****** ****** ****** ****** ******
      ****** ****** ****** ****** ****** ****** ****** ****** ****** ******
      ****** ****** ****** ****** ****** ****** ****** ****** ****** ******
  10  ****** ****** ****** ****** ****** ****** ****** ****** ****** ******
      ****** ****** ****** ****** ****** ****** ****** ****** ****** ******
      ****** ****** ****** ****** ****** ****** ****** ****** ****** ******
  11  ****** ****** ****** ****** ****** ****** ****** ****** ****** ******
      ****** ****** ****** ****** ****** ****** ****** ****** ****** ******
      ****** ****** ****** ****** ****** ****** ****** ****** ****** ******
  12  ****** ****** ****** ****** ****** ****** ****** ****** ****** ******
      ****** ****** ****** ****** ****** ****** ****** ****** ****** ******
      ****** ****** ****** ****** ****** ****** ****** ****** ****** ******
  13  ****** ****** ****** ****** ****** ****** ****** ****** ****** ******
      ****** ****** ****** ****** ****** ****** ****** ****** ****** ******
      ****** ****** ****** ****** ****** ****** ****** ****** ****** ******
  14  ****** ****** ****** ****** ****** ****** ****** ****** ****** ******
      ****** ****** ****** ****** ****** ****** ****** ****** ****** ******
      ****** ****** ****** ****** ****** ****** ****** ****** ****** ******
  15  ****** ****** ****** ****** ****** ****** ****** ****** ****** ******
      ****** ****** ****** ****** ****** ****** ****** ****** ****** ******
      ****** ****** ****** ****** ****** ****** ****** ****** ****** ******
  16  ****** ****** ****** ****** ****** ****** ****** ****** ****** ******
      ****** ****** ****** ****** ****** ****** ****** ****** ****** ******
      ****** ****** ****** ****** ****** ****** ****** ****** ****** ******
  17  ****** ****** ****** ****** ****** ****** ****** ****** ****** ******
      ****** ****** ****** ****** ****** ****** ****** ****** ****** ******
      ****** ****** ****** ****** ****** ****** ****** ****** ****** ******
  18  ****** ****** ****** ****** ****** ****** ****** ****** ****** ******
      ****** ****** ****** ****** ****** ****** ****** ****** ****** ******
      ****** ****** ****** ****** ****** ****** ****** ****** ****** ******
  19  ****** ****** ****** ****** ****** ****** ****** ****** ****** ******
      ****** ****** ****** ****** ****** ****** ****** ****** ****** ******
      ****** ****** ****** ****** ****** ****** ****** ****** ****** ******
  20  ****** ****** ****** ****** ****** ****** ****** ****** ****** ******
      ****** ****** ****** ****** ****** ****** ****** ****** ****** ******
      ****** ****** ****** ****** ****** ****** ****** ****** ****** ******
  21  ****** ****** ****** ****** ****** ****** ****** ****** ****** ******
      ****** ****** ****** ****** ****** ****** ****** ****** ****** ******
      ****** ****** ****** ****** ****** ****** ****** ****** ****** ******
  22  ****** ****** ****** ****** ****** ****** ****** ****** ****** ******
      ****** ****** ****** ****** ****** ****** ****** ****** ****** ******
      ****** ****** ****** ****** ****** ****** ****** ****** ****** ******
  23  ****** ****** ****** ****** ****** ****** ****** ****** ****** ******
      ****** ****** ****** ****** ****** ****** ****** ****** ****** ******
      ****** ****** ****** ****** ****** ****** ****** ****** ****** ******
  24  ****** ****** ****** ****** ****** ****** ****** ****** ****** ******
      ****** ****** ****** ****** ****** ****** ****** ****** ****** ******
      ****** ****** ****** ****** ****** ****** ****** ****** ****** ******
  25  ****** ****** ****** ****** ****** ****** ****** ****** ****** ******
      ****** ****** ****** ****** ****** ****** ****** ****** ****** ******
      ****** ****** ****** ****** ****** ****** ****** ****** ****** ******

 HEAD WILL BE SAVED ON UNIT   51 AT END OF TIME STEP    1, STRESS PERIOD    6
1
  VOLUMETRIC BUDGET FOR ENTIRE MODEL AT END OF TIME STEP    1, STRESS PERIOD   6
  ------------------------------------------------------------------------------

     CUMULATIVE VOLUMES      L**3       RATES FOR THIS TIME STEP      L**3/T
     ------------------                 ------------------------

           IN:                                      IN:
           ---                                      ---
             STORAGE =    23606130.7073               STORAGE =           0.0000
       CONSTANT HEAD =    96908949.6024         CONSTANT HEAD =      182388.8611
               WELLS =           0.0000                 WELLS =           0.0000
            RECHARGE =    15097200.0000              RECHARGE =       55200.0000
      STREAM LEAKAGE =     3647435.6239        STREAM LEAKAGE =        6915.4109

            TOTAL IN =   139259715.9336              TOTAL IN =      244504.2719

          OUT:                                     OUT:
          ----                                     ----
             STORAGE =      939438.2949               STORAGE =       10083.6723
       CONSTANT HEAD =           0.0000         CONSTANT HEAD =           0.0000
               WELLS =    54796678.0854                 WELLS =       99993.9381
            RECHARGE =           0.0000              RECHARGE =           0.0000
      STREAM LEAKAGE =    83523600.1489        STREAM LEAKAGE =      134426.6598

           TOTAL OUT =   139259716.5291             TOTAL OUT =      244504.2703

            IN - OUT =          -0.5955              IN - OUT =       1.6510E-03

 PERCENT DISCREPANCY =          -0.00     PERCENT DISCREPANCY =           0.00






         TIME SUMMARY AT END OF TIME STEP    1 IN STRESS PERIOD    6
                    SECONDS     MINUTES      HOURS       DAYS        YEARS
                    -----------------------------------------------------------
   TIME STEP LENGTH 7.86240E+06 1.31040E+05  2184.0      91.000     0.24914    
 STRESS PERIOD TIME 7.86240E+06 1.31040E+05  2184.0      91.000     0.24914    
         TOTAL TIME 4.73472E+07 7.89120E+05  13152.      548.00      1.5003    
1
1
                            STRESS PERIOD NO.    7, LENGTH =   91.00000    
                            -----------------------------------------------

                              NUMBER OF TIME STEPS =     1

                               MULTIPLIER FOR DELT =     1.500

                            INITIAL TIME STEP SIZE =   91.00000    

 WELL NO.  LAYER   ROW   COL   STRESS RATE         
 --------------------------------------------------
      1      1     23     21     -0.2847E+05
      2      1     23     12     -0.2965E+05
      3      1     23     17     -0.2671E+05

      3 WELLS

                 RECHARGE =   0.00000    

 REUSING STREAM SEGMENT DATA FROM LAST STRESS PERIOD
 
 SOLVING FOR HEAD 


     7 CALLS TO PCG ROUTINE FOR TIME STEP   1 IN STRESS PERIOD    7
    26 TOTAL ITERATIONS

 OUTPUT CONTROL FOR STRESS PERIOD    7   TIME STEP    1
    SAVE BUDGET
    SAVE HEAD FOR ALL LAYERS
    PRINT HEAD FOR ALL LAYERS
 UBDSV2 SAVING "STREAMFLOW OUT  " ON UNIT  50 AT TIME STEP  1, STRESS PERIOD   7



 STREAM LISTING     PERIOD      7   STEP        1

 LAYER ROW COL. STREAM  RCH.  FLOW INTO     FLOW TO   FLOW OUT OF   OVRLND.     DIRECT     STREAM       STREAM     STREAM     STREAM   STREAMBED  STREAMBED
                SEG.NO.  NO.  STRM. RCH.    AQUIFER    STRM. RCH.    RUNOFF     PRECIP       ET          HEAD       DEPTH      WIDTH   CONDCTNC.   GRADIENT

   1   13    1     1     1    1.0000E+05 -2.6583E+03   1.0266E+05  0.000E+00  0.000E+00  0.000E+00  4.84072E+01  1.458E-01  2.000E+01  2.000E+04 -1.329E-01
   1   13    2     1     2    1.0266E+05 -4.5568E+03   1.0722E+05  0.000E+00  0.000E+00  0.000E+00  4.79330E+01  1.489E-01  2.000E+01  2.000E+04 -2.278E-01
   1   14    3     1     3    1.0722E+05 -3.5486E+03   1.1076E+05  0.000E+00  0.000E+00  0.000E+00  4.74591E+01  1.523E-01  2.000E+01  2.000E+04 -1.774E-01
   1   15    4     1     4    1.1076E+05 -3.3875E+03   1.1415E+05  0.000E+00  0.000E+00  0.000E+00  4.69848E+01  1.552E-01  2.000E+01  2.000E+04 -1.694E-01
   1   16    5     1     5    1.1415E+05 -3.5451E+03   1.1770E+05  0.000E+00  0.000E+00  0.000E+00  4.65103E+01  1.581E-01  2.000E+01  2.000E+04 -1.773E-01
   1   16    6     1     6    1.1770E+05 -2.7594E+03   1.2046E+05  0.000E+00  0.000E+00  0.000E+00  4.60356E+01  1.606E-01  2.000E+01  2.000E+04 -1.380E-01
   1   16    7     1     7    1.2046E+05 -2.7418E+03   1.2320E+05  0.000E+00  0.000E+00  0.000E+00  4.55606E+01  1.628E-01  2.000E+01  2.000E+04 -1.371E-01
   1   16    8     1     8    1.2320E+05 -2.6675E+03   1.2587E+05  0.000E+00  0.000E+00  0.000E+00  4.50855E+01  1.650E-01  2.000E+01  2.000E+04 -1.334E-01
   1   16    9     1     9    1.2587E+05 -2.5277E+03   1.2839E+05  0.000E+00  0.000E+00  0.000E+00  4.46102E+01  1.671E-01  2.000E+01  2.000E+04 -1.264E-01
   1   16   10     1    10    1.2839E+05 -2.3279E+03   1.3072E+05  0.000E+00  0.000E+00  0.000E+00  4.41349E+01  1.690E-01  2.000E+01  2.000E+04 -1.164E-01
   1   16   11     1    11    1.3072E+05 -2.0759E+03   1.3280E+05  0.000E+00  0.000E+00  0.000E+00  4.36593E+01  1.707E-01  2.000E+01  2.000E+04 -1.038E-01
   1   16   12     1    12    1.3280E+05 -2.1648E+03   1.3496E+05  0.000E+00  0.000E+00  0.000E+00  4.31837E+01  1.723E-01  2.000E+01  2.000E+04 -1.082E-01
   1   15   13     1    13    1.3496E+05 -2.4965E+03   1.3746E+05  0.000E+00  0.000E+00  0.000E+00  4.27082E+01  1.741E-01  2.000E+01  2.000E+04 -1.248E-01
   1   14   14     1    14    1.3746E+05 -2.8972E+03   1.4035E+05  0.000E+00  0.000E+00  0.000E+00  4.22330E+01  1.762E-01  2.000E+01  2.000E+04 -1.449E-01
   1   13   15     1    15    1.4035E+05 -3.4860E+03   1.4384E+05  0.000E+00  0.000E+00  0.000E+00  4.17581E+01  1.786E-01  2.000E+01  2.000E+04 -1.743E-01
   1   12   16     1    16    1.4384E+05 -5.0373E+03   1.4888E+05  0.000E+00  0.000E+00  0.000E+00  4.12841E+01  1.818E-01  2.000E+01  2.000E+04 -2.519E-01
   1   12   17     1    17    1.4888E+05 -3.1428E+03   1.5202E+05  0.000E+00  0.000E+00  0.000E+00  4.08098E+01  1.848E-01  2.000E+01  2.000E+04 -1.571E-01
   1   12   18     1    18    1.5202E+05 -3.0085E+03   1.5503E+05  0.000E+00  0.000E+00  0.000E+00  4.03348E+01  1.871E-01  2.000E+01  2.000E+04 -1.504E-01
   1   12   19     1    19    1.5503E+05 -4.1097E+03   1.5914E+05  0.000E+00  0.000E+00  0.000E+00  3.98601E+01  1.897E-01  2.000E+01  2.000E+04 -2.055E-01
   1   13   20     1    20    1.5914E+05 -2.2157E+03   1.6136E+05  0.000E+00  0.000E+00  0.000E+00  3.93851E+01  1.920E-01  2.000E+01  2.000E+04 -1.108E-01
   1   14   21     1    21    1.6136E+05 -1.0666E+03   1.6242E+05  0.000E+00  0.000E+00  0.000E+00  3.89090E+01  1.931E-01  2.000E+01  2.000E+04 -5.333E-02
   1   14   22     1    22    1.6242E+05  5.1787E+03   1.5724E+05  0.000E+00  0.000E+00  0.000E+00  3.84303E+01  1.917E-01  2.000E+01  2.000E+04  2.589E-01
   1    9   30     2     1    5.0000E+04 -2.6018E+03   5.2602E+04  0.000E+00  0.000E+00  0.000E+00  4.02427E+01  1.177E-01  2.000E+01  2.000E+04 -1.301E-01
   1    9   29     2     2    5.2602E+04 -2.9354E+03   5.5537E+04  0.000E+00  0.000E+00  0.000E+00  3.99964E+01  1.214E-01  2.000E+01  2.000E+04 -1.468E-01
   1    9   28     2     3    5.5537E+04 -3.3185E+03   5.8856E+04  0.000E+00  0.000E+00  0.000E+00  3.97506E+01  1.256E-01  2.000E+01  2.000E+04 -1.659E-01
   1    9   27     2     4    5.8856E+04 -6.0007E+03   6.4856E+04  0.000E+00  0.000E+00  0.000E+00  3.95066E+01  1.316E-01  2.000E+01  2.000E+04 -3.000E-01
   1   10   26     2     5    6.4856E+04 -3.6163E+03   6.8473E+04  0.000E+00  0.000E+00  0.000E+00  3.92627E+01  1.377E-01  2.000E+01  2.000E+04 -1.808E-01
   1   11   25     2     6    6.8473E+04 -2.5786E+03   7.1051E+04  0.000E+00  0.000E+00  0.000E+00  3.90165E+01  1.415E-01  2.000E+01  2.000E+04 -1.289E-01
   1   12   24     2     7    7.1051E+04 -1.7539E+03   7.2805E+04  0.000E+00  0.000E+00  0.000E+00  3.87691E+01  1.441E-01  2.000E+01  2.000E+04 -8.770E-02
   1   13   23     2     8    7.2805E+04 -9.6762E+02   7.3773E+04  0.000E+00  0.000E+00  0.000E+00  3.85207E+01  1.457E-01  2.000E+01  2.000E+04 -4.838E-02
   1   14   22     2     9    7.3773E+04  1.9757E+03   7.1797E+04  0.000E+00  0.000E+00  0.000E+00  3.82701E+01  1.451E-01  2.000E+01  2.000E+04  9.879E-02
   1   14   22     3     1    2.2904E+05 -8.3261E+03   2.3737E+05  0.000E+00  0.000E+00  0.000E+00  3.77551E+01  1.995E-01  2.000E+01  2.000E+04 -4.163E-01
   1   15   23     3     2    2.3737E+05 -1.6315E+03   2.3900E+05  0.000E+00  0.000E+00  0.000E+00  3.68687E+01  2.020E-01  2.000E+01  2.000E+04 -8.158E-02
   1   15   24     3     3    2.3900E+05 -1.3523E+03   2.4035E+05  0.000E+00  0.000E+00  0.000E+00  3.59806E+01  2.028E-01  2.000E+01  2.000E+04 -6.762E-02
   1   15   25     3     4    2.4035E+05 -1.4070E+03   2.4176E+05  0.000E+00  0.000E+00  0.000E+00  3.50924E+01  2.035E-01  2.000E+01  2.000E+04 -7.035E-02
   1   15   26     3     5    2.4176E+05 -1.8928E+03   2.4365E+05  0.000E+00  0.000E+00  0.000E+00  3.42043E+01  2.043E-01  2.000E+01  2.000E+04 -9.464E-02
   1   16   27     3     6    2.4365E+05 -2.5381E+03   2.4619E+05  0.000E+00  0.000E+00  0.000E+00  3.33166E+01  2.055E-01  2.000E+01  2.000E+04 -1.269E-01
   1   17   28     3     7    2.4619E+05 -3.3337E+03   2.4952E+05  0.000E+00  0.000E+00  0.000E+00  3.24291E+01  2.069E-01  2.000E+01  2.000E+04 -1.667E-01
   1   18   29     3     8    2.4952E+05 -5.0096E+03   2.5453E+05  0.000E+00  0.000E+00  0.000E+00  3.15423E+01  2.090E-01  2.000E+01  2.000E+04 -2.505E-01
   1   18   30     3     9    2.5453E+05 -4.4181E+03   2.5895E+05  0.000E+00  0.000E+00  0.000E+00  3.06558E+01  2.113E-01  2.000E+01  2.000E+04 -2.209E-01



1
              HEAD IN LAYER   1 AT END OF TIME STEP   1 IN STRESS PERIOD    7
  ---------------------------------------------------------------------------

          1      2      3      4      5      6      7      8      9     10
         11     12     13     14     15     16     17     18     19     20
         21     22     23     24     25     26     27     28     29     30
 .........................................................................
   1  ****** ****** ****** ****** ****** ****** ****** ****** ****** ******
      ****** ****** ****** ****** ****** ****** ****** ****** ****** ******
      ****** ****** ****** ****** ****** ****** ****** ****** ****** ******
   2  ****** ****** ****** ****** ****** ****** ****** ****** ****** ******
      ****** ****** ****** ****** ****** ****** ****** ****** ****** ******
      ****** ****** ****** ****** ****** ****** ****** ****** ****** ******
   3  ****** ****** ****** ****** ****** ****** ****** ****** ****** ******
      ****** ****** ****** ****** ****** ****** ****** ****** ****** ******
      ****** ****** ****** ****** ****** ****** ****** ****** ****** ******
   4  ****** ****** ****** ****** ****** ****** ****** ****** ****** ******
      ****** ****** ****** ****** ****** ****** ****** ****** ****** ******
      ****** ****** ****** ****** ****** ****** ****** ****** ****** ******
   5  ****** ****** ****** ****** ****** ****** ****** ****** ****** ******
      ****** ****** ****** ****** ****** ****** ****** ****** ****** ******
      ****** ****** ****** ****** ****** ****** ****** ****** ****** ******
   6  ****** ****** ****** ****** ****** ****** ****** ****** ****** ******
      ****** ****** ****** ****** ****** ****** ****** ****** ****** ******
      ****** ****** ****** ****** ****** ****** ****** ****** ****** ******
   7  ****** ****** ****** ****** ****** ****** ****** ****** ****** ******
      ****** ****** ****** ****** ****** ****** ****** ****** ****** ******
      ****** ****** ****** ****** ****** ****** ****** ****** ****** ******
   8  ****** ****** ****** ****** ****** ****** ****** ****** ****** ******
      ****** ****** ****** ****** ****** ****** ****** ****** ****** ******
      ****** ****** ****** ****** ****** ****** ****** ****** ****** ******
   9  ****** ****** ****** ****** ****** ****** ****** ****** ****** ******
      ****** ****** ****** ****** ****** ****** ****** ****** ****** ******
      ****** ****** ****** ****** ****** ****** ****** ****** ****** ******
  10  ****** ****** ****** ****** ****** ****** ****** ****** ****** ******
      ****** ****** ****** ****** ****** ****** ****** ****** ****** ******
      ****** ****** ****** ****** ****** ****** ****** ****** ****** ******
  11  ****** ****** ****** ****** ****** ****** ****** ****** ****** ******
      ****** ****** ****** ****** ****** ****** ****** ****** ****** ******
      ****** ****** ****** ****** ****** ****** ****** ****** ****** ******
  12  ****** ****** ****** ****** ****** ****** ****** ****** ****** ******
      ****** ****** ****** ****** ****** ****** ****** ****** ****** ******
      ****** ****** ****** ****** ****** ****** ****** ****** ****** ******
  13  ****** ****** ****** ****** ****** ****** ****** ****** ****** ******
      ****** ****** ****** ****** ****** ****** ****** ****** ****** ******
      ****** ****** ****** ****** ****** ****** ****** ****** ****** ******
  14  ****** ****** ****** ****** ****** ****** ****** ****** ****** ******
      ****** ****** ****** ****** ****** ****** ****** ****** ****** ******
      ****** ****** ****** ****** ****** ****** ****** ****** ****** ******
  15  ****** ****** ****** ****** ****** ****** ****** ****** ****** ******
      ****** ****** ****** ****** ****** ****** ****** ****** ****** ******
      ****** ****** ****** ****** ****** ****** ****** ****** ****** ******
  16  ****** ****** ****** ****** ****** ****** ****** ****** ****** ******
      ****** ****** ****** ****** ****** ****** ****** ****** ****** ******
      ****** ****** ****** ****** ****** ****** ****** ****** ****** ******
  17  ****** ****** ****** ****** ****** ****** ****** ****** ****** ******
      ****** ****** ****** ****** ****** ****** ****** ****** ****** ******
      ****** ****** ****** ****** ****** ****** ****** ****** ****** ******
  18  ****** ****** ****** ****** ****** ****** ****** ****** ****** ******
      ****** ****** ****** ****** ****** ****** ****** ****** ****** ******
      ****** ****** ****** ****** ****** ****** ****** ****** ****** ******
  19  ****** ****** ****** ****** ****** ****** ****** ****** ****** ******
      ****** ****** ****** ****** ****** ****** ****** ****** ****** ******
      ****** ****** ****** ****** ****** ****** ****** ****** ****** ******
  20  ****** ****** ****** ****** ****** ****** ****** ****** ****** ******
      ****** ****** ****** ****** ****** ****** ****** ****** ****** ******
      ****** ****** ****** ****** ****** ****** ****** ****** ****** ******
  21  ****** ****** ****** ****** ****** ****** ****** ****** ****** ******
      ****** ****** ****** ****** ****** ****** ****** ****** ****** ******
      ****** ****** ****** ****** ****** ****** ****** ****** ****** ******
  22  ****** ****** ****** ****** ****** ****** ****** ****** ****** ******
      ****** ****** ****** ****** ****** ****** ****** ****** ****** ******
      ****** ****** ****** ****** ****** ****** ****** ****** ****** ******
  23  ****** ****** ****** ****** ****** ****** ****** ****** ****** ******
      ****** ****** ****** ****** ****** ****** ****** ****** ****** ******
      ****** ****** ****** ****** ****** ****** ****** ****** ****** ******
  24  ****** ****** ****** ****** ****** ****** ****** ****** ****** ******
      ****** ****** ****** ****** ****** ****** ****** ****** ****** ******
      ****** ****** ****** ****** ****** ****** ****** ****** ****** ******
  25  ****** ****** ****** ****** ****** ****** ****** ****** ****** ******
      ****** ****** ****** ****** ****** ****** ****** ****** ****** ******
      ****** ****** ****** ****** ****** ****** ****** ****** ****** ******

 HEAD WILL BE SAVED ON UNIT   51 AT END OF TIME STEP    1, STRESS PERIOD    7
1
  VOLUMETRIC BUDGET FOR ENTIRE MODEL AT END OF TIME STEP    1, STRESS PERIOD   7
  ------------------------------------------------------------------------------

     CUMULATIVE VOLUMES      L**3       RATES FOR THIS TIME STEP      L**3/T
     ------------------                 ------------------------

           IN:                                      IN:
           ---                                      ---
             STORAGE =    24488859.4733               STORAGE =        9700.3161
       CONSTANT HEAD =   113791299.8043         CONSTANT HEAD =      185520.3319
               WELLS =           0.0000                 WELLS =           0.0000
            RECHARGE =    15097200.0000              RECHARGE =           0.0000
      STREAM LEAKAGE =     4298489.3594        STREAM LEAKAGE =        7154.4367

            TOTAL IN =   157675848.6369              TOTAL IN =      202375.0847

          OUT:                                     OUT:
          ----                                     ----
             STORAGE =     1070160.6728               STORAGE =        1436.5096
       CONSTANT HEAD =           0.0000         CONSTANT HEAD =           0.0000
               WELLS =    62516653.3061                 WELLS =       84834.8925
            RECHARGE =           0.0000              RECHARGE =           0.0000
      STREAM LEAKAGE =    94089035.4459        STREAM LEAKAGE =      116103.6846

           TOTAL OUT =   157675849.4249             TOTAL OUT =      202375.0868

            IN - OUT =          -0.7879              IN - OUT =      -2.1144E-03

 PERCENT DISCREPANCY =          -0.00     PERCENT DISCREPANCY =          -0.00






         TIME SUMMARY AT END OF TIME STEP    1 IN STRESS PERIOD    7
                    SECONDS     MINUTES      HOURS       DAYS        YEARS
                    -----------------------------------------------------------
   TIME STEP LENGTH 7.86240E+06 1.31040E+05  2184.0      91.000     0.24914    
 STRESS PERIOD TIME 7.86240E+06 1.31040E+05  2184.0      91.000     0.24914    
         TOTAL TIME 5.52096E+07 9.20160E+05  15336.      639.00      1.7495    
1
1
                            STRESS PERIOD NO.    8, LENGTH =   91.00000    
                            -----------------------------------------------

                              NUMBER OF TIME STEPS =     1

                               MULTIPLIER FOR DELT =     1.500

                            INITIAL TIME STEP SIZE =   91.00000    

 WELL NO.  LAYER   ROW   COL   STRESS RATE         
 --------------------------------------------------
      1      1     23     21     -0.2847E+05
      2      1     23     12     -0.2965E+05
      3      1     23     17     -0.2671E+05

      3 WELLS

                 RECHARGE =  1.000000E-03

 REUSING STREAM SEGMENT DATA FROM LAST STRESS PERIOD
 
 SOLVING FOR HEAD 


     6 CALLS TO PCG ROUTINE FOR TIME STEP   1 IN STRESS PERIOD    8
    23 TOTAL ITERATIONS

 OUTPUT CONTROL FOR STRESS PERIOD    8   TIME STEP    1
    SAVE BUDGET
    SAVE HEAD FOR ALL LAYERS
    PRINT HEAD FOR ALL LAYERS
 UBDSV2 SAVING "STREAMFLOW OUT  " ON UNIT  50 AT TIME STEP  1, STRESS PERIOD   8



 STREAM LISTING     PERIOD      8   STEP        1

 LAYER ROW COL. STREAM  RCH.  FLOW INTO     FLOW TO   FLOW OUT OF   OVRLND.     DIRECT     STREAM       STREAM     STREAM     STREAM   STREAMBED  STREAMBED
                SEG.NO.  NO.  STRM. RCH.    AQUIFER    STRM. RCH.    RUNOFF     PRECIP       ET          HEAD       DEPTH      WIDTH   CONDCTNC.   GRADIENT

   1   13    1     1     1    1.0000E+05 -2.8295E+03   1.0283E+05  0.000E+00  0.000E+00  0.000E+00  4.84072E+01  1.459E-01  2.000E+01  2.000E+04 -1.415E-01
   1   13    2     1     2    1.0283E+05 -4.7698E+03   1.0760E+05  0.000E+00  0.000E+00  0.000E+00  4.79332E+01  1.491E-01  2.000E+01  2.000E+04 -2.385E-01
   1   14    3     1     3    1.0760E+05 -3.7868E+03   1.1139E+05  0.000E+00  0.000E+00  0.000E+00  4.74596E+01  1.527E-01  2.000E+01  2.000E+04 -1.893E-01
   1   15    4     1     4    1.1139E+05 -3.6315E+03   1.1502E+05  0.000E+00  0.000E+00  0.000E+00  4.69854E+01  1.558E-01  2.000E+01  2.000E+04 -1.816E-01
   1   16    5     1     5    1.1502E+05 -3.7800E+03   1.1880E+05  0.000E+00  0.000E+00  0.000E+00  4.65111E+01  1.589E-01  2.000E+01  2.000E+04 -1.890E-01
   1   16    6     1     6    1.1880E+05 -2.9477E+03   1.2175E+05  0.000E+00  0.000E+00  0.000E+00  4.60366E+01  1.616E-01  2.000E+01  2.000E+04 -1.474E-01
   1   16    7     1     7    1.2175E+05 -2.9354E+03   1.2468E+05  0.000E+00  0.000E+00  0.000E+00  4.55617E+01  1.640E-01  2.000E+01  2.000E+04 -1.468E-01
   1   16    8     1     8    1.2468E+05 -2.8670E+03   1.2755E+05  0.000E+00  0.000E+00  0.000E+00  4.50867E+01  1.663E-01  2.000E+01  2.000E+04 -1.433E-01
   1   16    9     1     9    1.2755E+05 -2.7334E+03   1.3028E+05  0.000E+00  0.000E+00  0.000E+00  4.46116E+01  1.685E-01  2.000E+01  2.000E+04 -1.367E-01
   1   16   10     1    10    1.3028E+05 -2.5403E+03   1.3282E+05  0.000E+00  0.000E+00  0.000E+00  4.41364E+01  1.705E-01  2.000E+01  2.000E+04 -1.270E-01
   1   16   11     1    11    1.3282E+05 -2.2977E+03   1.3512E+05  0.000E+00  0.000E+00  0.000E+00  4.36610E+01  1.724E-01  2.000E+01  2.000E+04 -1.149E-01
   1   16   12     1    12    1.3512E+05 -2.4827E+03   1.3760E+05  0.000E+00  0.000E+00  0.000E+00  4.31856E+01  1.742E-01  2.000E+01  2.000E+04 -1.241E-01
   1   15   13     1    13    1.3760E+05 -2.8079E+03   1.4041E+05  0.000E+00  0.000E+00  0.000E+00  4.27103E+01  1.763E-01  2.000E+01  2.000E+04 -1.404E-01
   1   14   14     1    14    1.4041E+05 -3.1954E+03   1.4361E+05  0.000E+00  0.000E+00  0.000E+00  4.22353E+01  1.785E-01  2.000E+01  2.000E+04 -1.598E-01
   1   13   15     1    15    1.4361E+05 -3.7623E+03   1.4737E+05  0.000E+00  0.000E+00  0.000E+00  4.17607E+01  1.811E-01  2.000E+01  2.000E+04 -1.881E-01
   1   12   16     1    16    1.4737E+05 -5.2686E+03   1.5264E+05  0.000E+00  0.000E+00  0.000E+00  4.12868E+01  1.845E-01  2.000E+01  2.000E+04 -2.634E-01
   1   12   17     1    17    1.5264E+05 -3.3355E+03   1.5597E+05  0.000E+00  0.000E+00  0.000E+00  4.08127E+01  1.877E-01  2.000E+01  2.000E+04 -1.668E-01
   1   12   18     1    18    1.5597E+05 -3.2012E+03   1.5917E+05  0.000E+00  0.000E+00  0.000E+00  4.03378E+01  1.900E-01  2.000E+01  2.000E+04 -1.601E-01
   1   12   19     1    19    1.5917E+05 -4.3352E+03   1.6351E+05  0.000E+00  0.000E+00  0.000E+00  3.98632E+01  1.927E-01  2.000E+01  2.000E+04 -2.168E-01
   1   13   20     1    20    1.6351E+05 -2.4743E+03   1.6598E+05  0.000E+00  0.000E+00  0.000E+00  3.93884E+01  1.952E-01  2.000E+01  2.000E+04 -1.237E-01
   1   14   21     1    21    1.6598E+05 -1.3281E+03   1.6731E+05  0.000E+00  0.000E+00  0.000E+00  3.89124E+01  1.965E-01  2.000E+01  2.000E+04 -6.641E-02
   1   14   22     1    22    1.6731E+05  5.1289E+03   1.6218E+05  0.000E+00  0.000E+00  0.000E+00  3.84338E+01  1.952E-01  2.000E+01  2.000E+04  2.564E-01
   1    9   30     2     1    5.0000E+04 -2.7809E+03   5.2781E+04  0.000E+00  0.000E+00  0.000E+00  4.02428E+01  1.178E-01  2.000E+01  2.000E+04 -1.390E-01
   1    9   29     2     2    5.2781E+04 -3.1127E+03   5.5894E+04  0.000E+00  0.000E+00  0.000E+00  3.99968E+01  1.218E-01  2.000E+01  2.000E+04 -1.556E-01
   1    9   28     2     3    5.5894E+04 -3.4932E+03   5.9387E+04  0.000E+00  0.000E+00  0.000E+00  3.97512E+01  1.262E-01  2.000E+01  2.000E+04 -1.747E-01
   1    9   27     2     4    5.9387E+04 -6.2202E+03   6.5607E+04  0.000E+00  0.000E+00  0.000E+00  3.95075E+01  1.325E-01  2.000E+01  2.000E+04 -3.110E-01
   1   10   26     2     5    6.5607E+04 -3.8529E+03   6.9460E+04  0.000E+00  0.000E+00  0.000E+00  3.92638E+01  1.388E-01  2.000E+01  2.000E+04 -1.926E-01
   1   11   25     2     6    6.9460E+04 -2.8089E+03   7.2269E+04  0.000E+00  0.000E+00  0.000E+00  3.90178E+01  1.428E-01  2.000E+01  2.000E+04 -1.404E-01
   1   12   24     2     7    7.2269E+04 -1.9633E+03   7.4232E+04  0.000E+00  0.000E+00  0.000E+00  3.87707E+01  1.457E-01  2.000E+01  2.000E+04 -9.817E-02
   1   13   23     2     8    7.4232E+04 -1.1388E+03   7.5371E+04  0.000E+00  0.000E+00  0.000E+00  3.85225E+01  1.475E-01  2.000E+01  2.000E+04 -5.694E-02
   1   14   22     2     9    7.5371E+04  1.8946E+03   7.3476E+04  0.000E+00  0.000E+00  0.000E+00  3.82721E+01  1.471E-01  2.000E+01  2.000E+04  9.473E-02
   1   14   22     3     1    2.3566E+05 -8.3784E+03   2.4404E+05  0.000E+00  0.000E+00  0.000E+00  3.77584E+01  2.029E-01  2.000E+01  2.000E+04 -4.189E-01
   1   15   23     3     2    2.4404E+05 -1.8830E+03   2.4592E+05  0.000E+00  0.000E+00  0.000E+00  3.68721E+01  2.055E-01  2.000E+01  2.000E+04 -9.415E-02
   1   15   24     3     3    2.4592E+05 -1.5287E+03   2.4745E+05  0.000E+00  0.000E+00  0.000E+00  3.59841E+01  2.063E-01  2.000E+01  2.000E+04 -7.643E-02
   1   15   25     3     4    2.4745E+05 -1.5784E+03   2.4903E+05  0.000E+00  0.000E+00  0.000E+00  3.50960E+01  2.071E-01  2.000E+01  2.000E+04 -7.892E-02
   1   15   26     3     5    2.4903E+05 -2.1013E+03   2.5113E+05  0.000E+00  0.000E+00  0.000E+00  3.42080E+01  2.080E-01  2.000E+01  2.000E+04 -1.051E-01
   1   16   27     3     6    2.5113E+05 -2.7997E+03   2.5393E+05  0.000E+00  0.000E+00  0.000E+00  3.33204E+01  2.093E-01  2.000E+01  2.000E+04 -1.400E-01
   1   17   28     3     7    2.5393E+05 -3.5986E+03   2.5753E+05  0.000E+00  0.000E+00  0.000E+00  3.24331E+01  2.108E-01  2.000E+01  2.000E+04 -1.799E-01
   1   18   29     3     8    2.5753E+05 -5.2547E+03   2.6278E+05  0.000E+00  0.000E+00  0.000E+00  3.15464E+01  2.130E-01  2.000E+01  2.000E+04 -2.627E-01
   1   18   30     3     9    2.6278E+05 -4.6014E+03   2.6738E+05  0.000E+00  0.000E+00  0.000E+00  3.06599E+01  2.154E-01  2.000E+01  2.000E+04 -2.301E-01



1
              HEAD IN LAYER   1 AT END OF TIME STEP   1 IN STRESS PERIOD    8
  ---------------------------------------------------------------------------

          1      2      3      4      5      6      7      8      9     10
         11     12     13     14     15     16     17     18     19     20
         21     22     23     24     25     26     27     28     29     30
 .........................................................................
   1  ****** ****** ****** ****** ****** ****** ****** ****** ****** ******
      ****** ****** ****** ****** ****** ****** ****** ****** ****** ******
      ****** ****** ****** ****** ****** ****** ****** ****** ****** ******
   2  ****** ****** ****** ****** ****** ****** ****** ****** ****** ******
      ****** ****** ****** ****** ****** ****** ****** ****** ****** ******
      ****** ****** ****** ****** ****** ****** ****** ****** ****** ******
   3  ****** ****** ****** ****** ****** ****** ****** ****** ****** ******
      ****** ****** ****** ****** ****** ****** ****** ****** ****** ******
      ****** ****** ****** ****** ****** ****** ****** ****** ****** ******
   4  ****** ****** ****** ****** ****** ****** ****** ****** ****** ******
      ****** ****** ****** ****** ****** ****** ****** ****** ****** ******
      ****** ****** ****** ****** ****** ****** ****** ****** ****** ******
   5  ****** ****** ****** ****** ****** ****** ****** ****** ****** ******
      ****** ****** ****** ****** ****** ****** ****** ****** ****** ******
      ****** ****** ****** ****** ****** ****** ****** ****** ****** ******
   6  ****** ****** ****** ****** ****** ****** ****** ****** ****** ******
      ****** ****** ****** ****** ****** ****** ****** ****** ****** ******
      ****** ****** ****** ****** ****** ****** ****** ****** ****** ******
   7  ****** ****** ****** ****** ****** ****** ****** ****** ****** ******
      ****** ****** ****** ****** ****** ****** ****** ****** ****** ******
      ****** ****** ****** ****** ****** ****** ****** ****** ****** ******
   8  ****** ****** ****** ****** ****** ****** ****** ****** ****** ******
      ****** ****** ****** ****** ****** ****** ****** ****** ****** ******
      ****** ****** ****** ****** ****** ****** ****** ****** ****** ******
   9  ****** ****** ****** ****** ****** ****** ****** ****** ****** ******
      ****** ****** ****** ****** ****** ****** ****** ****** ****** ******
      ****** ****** ****** ****** ****** ****** ****** ****** ****** ******
  10  ****** ****** ****** ****** ****** ****** ****** ****** ****** ******
      ****** ****** ****** ****** ****** ****** ****** ****** ****** ******
      ****** ****** ****** ****** ****** ****** ****** ****** ****** ******
  11  ****** ****** ****** ****** ****** ****** ****** ****** ****** ******
      ****** ****** ****** ****** ****** ****** ****** ****** ****** ******
      ****** ****** ****** ****** ****** ****** ****** ****** ****** ******
  12  ****** ****** ****** ****** ****** ****** ****** ****** ****** ******
      ****** ****** ****** ****** ****** ****** ****** ****** ****** ******
      ****** ****** ****** ****** ****** ****** ****** ****** ****** ******
  13  ****** ****** ****** ****** ****** ****** ****** ****** ****** ******
      ****** ****** ****** ****** ****** ****** ****** ****** ****** ******
      ****** ****** ****** ****** ****** ****** ****** ****** ****** ******
  14  ****** ****** ****** ****** ****** ****** ****** ****** ****** ******
      ****** ****** ****** ****** ****** ****** ****** ****** ****** ******
      ****** ****** ****** ****** ****** ****** ****** ****** ****** ******
  15  ****** ****** ****** ****** ****** ****** ****** ****** ****** ******
      ****** ****** ****** ****** ****** ****** ****** ****** ****** ******
      ****** ****** ****** ****** ****** ****** ****** ****** ****** ******
  16  ****** ****** ****** ****** ****** ****** ****** ****** ****** ******
      ****** ****** ****** ****** ****** ****** ****** ****** ****** ******
      ****** ****** ****** ****** ****** ****** ****** ****** ****** ******
  17  ****** ****** ****** ****** ****** ****** ****** ****** ****** ******
      ****** ****** ****** ****** ****** ****** ****** ****** ****** ******
      ****** ****** ****** ****** ****** ****** ****** ****** ****** ******
  18  ****** ****** ****** ****** ****** ****** ****** ****** ****** ******
      ****** ****** ****** ****** ****** ****** ****** ****** ****** ******
      ****** ****** ****** ****** ****** ****** ****** ****** ****** ******
  19  ****** ****** ****** ****** ****** ****** ****** ****** ****** ******
      ****** ****** ****** ****** ****** ****** ****** ****** ****** ******
      ****** ****** ****** ****** ****** ****** ****** ****** ****** ******
  20  ****** ****** ****** ****** ****** ****** ****** ****** ****** ******
      ****** ****** ****** ****** ****** ****** ****** ****** ****** ******
      ****** ****** ****** ****** ****** ****** ****** ****** ****** ******
  21  ****** ****** ****** ****** ****** ****** ****** ****** ****** ******
      ****** ****** ****** ****** ****** ****** ****** ****** ****** ******
      ****** ****** ****** ****** ****** ****** ****** ****** ****** ******
  22  ****** ****** ****** ****** ****** ****** ****** ****** ****** ******
      ****** ****** ****** ****** ****** ****** ****** ****** ****** ******
      ****** ****** ****** ****** ****** ****** ****** ****** ****** ******
  23  ****** ****** ****** ****** ****** ****** ****** ****** ****** ******
      ****** ****** ****** ****** ****** ****** ****** ****** ****** ******
      ****** ****** ****** ****** ****** ****** ****** ****** ****** ******
  24  ****** ****** ****** ****** ****** ****** ****** ****** ****** ******
      ****** ****** ****** ****** ****** ****** ****** ****** ****** ******
      ****** ****** ****** ****** ****** ****** ****** ****** ****** ******
  25  ****** ****** ****** ****** ****** ****** ****** ****** ****** ******
      ****** ****** ****** ****** ****** ****** ****** ****** ****** ******
      ****** ****** ****** ****** ****** ****** ****** ****** ****** ******

 HEAD WILL BE SAVED ON UNIT   51 AT END OF TIME STEP    1, STRESS PERIOD    8
1
  VOLUMETRIC BUDGET FOR ENTIRE MODEL AT END OF TIME STEP    1, STRESS PERIOD   8
  ------------------------------------------------------------------------------

     CUMULATIVE VOLUMES      L**3       RATES FOR THIS TIME STEP      L**3/T
     ------------------                 ------------------------

           IN:                                      IN:
           ---                                      ---
             STORAGE =    24488859.4733               STORAGE =           0.0000
       CONSTANT HEAD =   130117725.4382         CONSTANT HEAD =      179411.2707
               WELLS =           0.0000                 WELLS =           0.0000
            RECHARGE =    17608800.0000              RECHARGE =       27600.0000
      STREAM LEAKAGE =     4937627.0920        STREAM LEAKAGE =        7023.4916

            TOTAL IN =   177153012.0034              TOTAL IN =      214034.7623

          OUT:                                     OUT:
          ----                                     ----
             STORAGE =     1506448.7011               STORAGE =        4794.3739
       CONSTANT HEAD =           0.0000         CONSTANT HEAD =           0.0000
               WELLS =    70236628.5269                 WELLS =       84834.8925
            RECHARGE =           0.0000              RECHARGE =           0.0000
      STREAM LEAKAGE =   105409935.4836        STREAM LEAKAGE =      124405.4949

           TOTAL OUT =   177153012.7117             TOTAL OUT =      214034.7614

            IN - OUT =          -0.7082              IN - OUT =       8.7606E-04

 PERCENT DISCREPANCY =          -0.00     PERCENT DISCREPANCY =           0.00






         TIME SUMMARY AT END OF TIME STEP    1 IN STRESS PERIOD    8
                    SECONDS     MINUTES      HOURS       DAYS        YEARS
                    -----------------------------------------------------------
   TIME STEP LENGTH 7.86240E+06 1.31040E+05  2184.0      91.000     0.24914    
 STRESS PERIOD TIME 7.86240E+06 1.31040E+05  2184.0      91.000     0.24914    
         TOTAL TIME 6.30720E+07 1.05120E+06  17520.      730.00      1.9986    
1
1
                            STRESS PERIOD NO.    9, LENGTH =   92.00000    
                            -----------------------------------------------

                              NUMBER OF TIME STEPS =     1

                               MULTIPLIER FOR DELT =     1.500

                            INITIAL TIME STEP SIZE =   92.00000    

 WELL NO.  LAYER   ROW   COL   STRESS RATE         
 --------------------------------------------------
      1      1     23     21     -0.2847E+05
      2      1     23     12     -0.2965E+05
      3      1     23     17     -0.2671E+05

      3 WELLS

                 RECHARGE =  5.000000E-04

 REUSING STREAM SEGMENT DATA FROM LAST STRESS PERIOD
 
 SOLVING FOR HEAD 


     6 CALLS TO PCG ROUTINE FOR TIME STEP   1 IN STRESS PERIOD    9
    22 TOTAL ITERATIONS

 OUTPUT CONTROL FOR STRESS PERIOD    9   TIME STEP    1
    SAVE BUDGET
    SAVE HEAD FOR ALL LAYERS
    PRINT HEAD FOR ALL LAYERS
 UBDSV2 SAVING "STREAMFLOW OUT  " ON UNIT  50 AT TIME STEP  1, STRESS PERIOD   9



 STREAM LISTING     PERIOD      9   STEP        1

 LAYER ROW COL. STREAM  RCH.  FLOW INTO     FLOW TO   FLOW OUT OF   OVRLND.     DIRECT     STREAM       STREAM     STREAM     STREAM   STREAMBED  STREAMBED
                SEG.NO.  NO.  STRM. RCH.    AQUIFER    STRM. RCH.    RUNOFF     PRECIP       ET          HEAD       DEPTH      WIDTH   CONDCTNC.   GRADIENT

   1   13    1     1     1    1.0000E+05 -2.7151E+03   1.0272E+05  0.000E+00  0.000E+00  0.000E+00  4.84072E+01  1.458E-01  2.000E+01  2.000E+04 -1.358E-01
   1   13    2     1     2    1.0272E+05 -4.6187E+03   1.0733E+05  0.000E+00  0.000E+00  0.000E+00  4.79331E+01  1.490E-01  2.000E+01  2.000E+04 -2.309E-01
   1   14    3     1     3    1.0733E+05 -3.6347E+03   1.1097E+05  0.000E+00  0.000E+00  0.000E+00  4.74593E+01  1.525E-01  2.000E+01  2.000E+04 -1.817E-01
   1   15    4     1     4    1.1097E+05 -3.4833E+03   1.1445E+05  0.000E+00  0.000E+00  0.000E+00  4.69850E+01  1.554E-01  2.000E+01  2.000E+04 -1.742E-01
   1   16    5     1     5    1.1445E+05 -3.6496E+03   1.1810E+05  0.000E+00  0.000E+00  0.000E+00  4.65106E+01  1.584E-01  2.000E+01  2.000E+04 -1.825E-01
   1   16    6     1     6    1.1810E+05 -2.8432E+03   1.2094E+05  0.000E+00  0.000E+00  0.000E+00  4.60360E+01  1.610E-01  2.000E+01  2.000E+04 -1.422E-01
   1   16    7     1     7    1.2094E+05 -2.8301E+03   1.2377E+05  0.000E+00  0.000E+00  0.000E+00  4.55610E+01  1.633E-01  2.000E+01  2.000E+04 -1.415E-01
   1   16    8     1     8    1.2377E+05 -2.7623E+03   1.2654E+05  0.000E+00  0.000E+00  0.000E+00  4.50860E+01  1.655E-01  2.000E+01  2.000E+04 -1.381E-01
   1   16    9     1     9    1.2654E+05 -2.6308E+03   1.2917E+05  0.000E+00  0.000E+00  0.000E+00  4.46108E+01  1.676E-01  2.000E+01  2.000E+04 -1.315E-01
   1   16   10     1    10    1.2917E+05 -2.4414E+03   1.3161E+05  0.000E+00  0.000E+00  0.000E+00  4.41355E+01  1.696E-01  2.000E+01  2.000E+04 -1.221E-01
   1   16   11     1    11    1.3161E+05 -2.2043E+03   1.3381E+05  0.000E+00  0.000E+00  0.000E+00  4.36601E+01  1.714E-01  2.000E+01  2.000E+04 -1.102E-01
   1   16   12     1    12    1.3381E+05 -2.3786E+03   1.3619E+05  0.000E+00  0.000E+00  0.000E+00  4.31846E+01  1.732E-01  2.000E+01  2.000E+04 -1.189E-01
   1   15   13     1    13    1.3619E+05 -2.6811E+03   1.3887E+05  0.000E+00  0.000E+00  0.000E+00  4.27092E+01  1.751E-01  2.000E+01  2.000E+04 -1.341E-01
   1   14   14     1    14    1.3887E+05 -3.0603E+03   1.4193E+05  0.000E+00  0.000E+00  0.000E+00  4.22341E+01  1.773E-01  2.000E+01  2.000E+04 -1.530E-01
   1   13   15     1    15    1.4193E+05 -3.6234E+03   1.4556E+05  0.000E+00  0.000E+00  0.000E+00  4.17594E+01  1.798E-01  2.000E+01  2.000E+04 -1.812E-01
   1   12   16     1    16    1.4556E+05 -5.1278E+03   1.5068E+05  0.000E+00  0.000E+00  0.000E+00  4.12854E+01  1.831E-01  2.000E+01  2.000E+04 -2.564E-01
   1   12   17     1    17    1.5068E+05 -3.2341E+03   1.5392E+05  0.000E+00  0.000E+00  0.000E+00  4.08112E+01  1.862E-01  2.000E+01  2.000E+04 -1.617E-01
   1   12   18     1    18    1.5392E+05 -3.1020E+03   1.5702E+05  0.000E+00  0.000E+00  0.000E+00  4.03362E+01  1.885E-01  2.000E+01  2.000E+04 -1.551E-01
   1   12   19     1    19    1.5702E+05 -4.2107E+03   1.6123E+05  0.000E+00  0.000E+00  0.000E+00  3.98616E+01  1.911E-01  2.000E+01  2.000E+04 -2.105E-01
   1   13   20     1    20    1.6123E+05 -2.3617E+03   1.6359E+05  0.000E+00  0.000E+00  0.000E+00  3.93867E+01  1.935E-01  2.000E+01  2.000E+04 -1.181E-01
   1   14   21     1    21    1.6359E+05 -1.2371E+03   1.6483E+05  0.000E+00  0.000E+00  0.000E+00  3.89107E+01  1.948E-01  2.000E+01  2.000E+04 -6.186E-02
   1   14   22     1    22    1.6483E+05  5.1495E+03   1.5968E+05  0.000E+00  0.000E+00  0.000E+00  3.84320E+01  1.934E-01  2.000E+01  2.000E+04  2.575E-01
   1    9   30     2     1    5.0000E+04 -2.6814E+03   5.2681E+04  0.000E+00  0.000E+00  0.000E+00  4.02427E+01  1.177E-01  2.000E+01  2.000E+04 -1.341E-01
   1    9   29     2     2    5.2681E+04 -3.0139E+03   5.5695E+04  0.000E+00  0.000E+00  0.000E+00  3.99966E+01  1.216E-01  2.000E+01  2.000E+04 -1.507E-01
   1    9   28     2     3    5.5695E+04 -3.3949E+03   5.9090E+04  0.000E+00  0.000E+00  0.000E+00  3.97509E+01  1.259E-01  2.000E+01  2.000E+04 -1.697E-01
   1    9   27     2     4    5.9090E+04 -6.0910E+03   6.5181E+04  0.000E+00  0.000E+00  0.000E+00  3.95070E+01  1.320E-01  2.000E+01  2.000E+04 -3.045E-01
   1   10   26     2     5    6.5181E+04 -3.7171E+03   6.8898E+04  0.000E+00  0.000E+00  0.000E+00  3.92632E+01  1.382E-01  2.000E+01  2.000E+04 -1.859E-01
   1   11   25     2     6    6.8898E+04 -2.6777E+03   7.1576E+04  0.000E+00  0.000E+00  0.000E+00  3.90171E+01  1.421E-01  2.000E+01  2.000E+04 -1.339E-01
   1   12   24     2     7    7.1576E+04 -1.8456E+03   7.3422E+04  0.000E+00  0.000E+00  0.000E+00  3.87698E+01  1.448E-01  2.000E+01  2.000E+04 -9.228E-02
   1   13   23     2     8    7.3422E+04 -1.0452E+03   7.4467E+04  0.000E+00  0.000E+00  0.000E+00  3.85215E+01  1.465E-01  2.000E+01  2.000E+04 -5.226E-02
   1   14   22     2     9    7.4467E+04  1.9289E+03   7.2538E+04  0.000E+00  0.000E+00  0.000E+00  3.82710E+01  1.460E-01  2.000E+01  2.000E+04  9.644E-02
   1   14   22     3     1    2.3222E+05 -8.3574E+03   2.4058E+05  0.000E+00  0.000E+00  0.000E+00  3.77567E+01  2.011E-01  2.000E+01  2.000E+04 -4.179E-01
   1   15   23     3     2    2.4058E+05 -1.8004E+03   2.4238E+05  0.000E+00  0.000E+00  0.000E+00  3.68704E+01  2.037E-01  2.000E+01  2.000E+04 -9.002E-02
   1   15   24     3     3    2.4238E+05 -1.4601E+03   2.4384E+05  0.000E+00  0.000E+00  0.000E+00  3.59823E+01  2.045E-01  2.000E+01  2.000E+04 -7.301E-02
   1   15   25     3     4    2.4384E+05 -1.5053E+03   2.4534E+05  0.000E+00  0.000E+00  0.000E+00  3.50942E+01  2.053E-01  2.000E+01  2.000E+04 -7.526E-02
   1   15   26     3     5    2.4534E+05 -2.0016E+03   2.4734E+05  0.000E+00  0.000E+00  0.000E+00  3.42062E+01  2.062E-01  2.000E+01  2.000E+04 -1.001E-01
   1   16   27     3     6    2.4734E+05 -2.6812E+03   2.5002E+05  0.000E+00  0.000E+00  0.000E+00  3.33185E+01  2.073E-01  2.000E+01  2.000E+04 -1.341E-01
   1   17   28     3     7    2.5002E+05 -3.4785E+03   2.5350E+05  0.000E+00  0.000E+00  0.000E+00  3.24311E+01  2.089E-01  2.000E+01  2.000E+04 -1.739E-01
   1   18   29     3     8    2.5350E+05 -5.1447E+03   2.5865E+05  0.000E+00  0.000E+00  0.000E+00  3.15444E+01  2.110E-01  2.000E+01  2.000E+04 -2.572E-01
   1   18   30     3     9    2.5865E+05 -4.5131E+03   2.6316E+05  0.000E+00  0.000E+00  0.000E+00  3.06578E+01  2.134E-01  2.000E+01  2.000E+04 -2.257E-01



1
              HEAD IN LAYER   1 AT END OF TIME STEP   1 IN STRESS PERIOD    9
  ---------------------------------------------------------------------------

          1      2      3      4      5      6      7      8      9     10
         11     12     13     14     15     16     17     18     19     20
         21     22     23     24     25     26     27     28     29     30
 .........................................................................
   1  ****** ****** ****** ****** ****** ****** ****** ****** ****** ******
      ****** ****** ****** ****** ****** ****** ****** ****** ****** ******
      ****** ****** ****** ****** ****** ****** ****** ****** ****** ******
   2  ****** ****** ****** ****** ****** ****** ****** ****** ****** ******
      ****** ****** ****** ****** ****** ****** ****** ****** ****** ******
      ****** ****** ****** ****** ****** ****** ****** ****** ****** ******
   3  ****** ****** ****** ****** ****** ****** ****** ****** ****** ******
      ****** ****** ****** ****** ****** ****** ****** ****** ****** ******
      ****** ****** ****** ****** ****** ****** ****** ****** ****** ******
   4  ****** ****** ****** ****** ****** ****** ****** ****** ****** ******
      ****** ****** ****** ****** ****** ****** ****** ****** ****** ******
      ****** ****** ****** ****** ****** ****** ****** ****** ****** ******
   5  ****** ****** ****** ****** ****** ****** ****** ****** ****** ******
      ****** ****** ****** ****** ****** ****** ****** ****** ****** ******
      ****** ****** ****** ****** ****** ****** ****** ****** ****** ******
   6  ****** ****** ****** ****** ****** ****** ****** ****** ****** ******
      ****** ****** ****** ****** ****** ****** ****** ****** ****** ******
      ****** ****** ****** ****** ****** ****** ****** ****** ****** ******
   7  ****** ****** ****** ****** ****** ****** ****** ****** ****** ******
      ****** ****** ****** ****** ****** ****** ****** ****** ****** ******
      ****** ****** ****** ****** ****** ****** ****** ****** ****** ******
   8  ****** ****** ****** ****** ****** ****** ****** ****** ****** ******
      ****** ****** ****** ****** ****** ****** ****** ****** ****** ******
      ****** ****** ****** ****** ****** ****** ****** ****** ****** ******
   9  ****** ****** ****** ****** ****** ****** ****** ****** ****** ******
      ****** ****** ****** ****** ****** ****** ****** ****** ****** ******
      ****** ****** ****** ****** ****** ****** ****** ****** ****** ******
  10  ****** ****** ****** ****** ****** ****** ****** ****** ****** ******
      ****** ****** ****** ****** ****** ****** ****** ****** ****** ******
      ****** ****** ****** ****** ****** ****** ****** ****** ****** ******
  11  ****** ****** ****** ****** ****** ****** ****** ****** ****** ******
      ****** ****** ****** ****** ****** ****** ****** ****** ****** ******
      ****** ****** ****** ****** ****** ****** ****** ****** ****** ******
  12  ****** ****** ****** ****** ****** ****** ****** ****** ****** ******
      ****** ****** ****** ****** ****** ****** ****** ****** ****** ******
      ****** ****** ****** ****** ****** ****** ****** ****** ****** ******
  13  ****** ****** ****** ****** ****** ****** ****** ****** ****** ******
      ****** ****** ****** ****** ****** ****** ****** ****** ****** ******
      ****** ****** ****** ****** ****** ****** ****** ****** ****** ******
  14  ****** ****** ****** ****** ****** ****** ****** ****** ****** ******
      ****** ****** ****** ****** ****** ****** ****** ****** ****** ******
      ****** ****** ****** ****** ****** ****** ****** ****** ****** ******
  15  ****** ****** ****** ****** ****** ****** ****** ****** ****** ******
      ****** ****** ****** ****** ****** ****** ****** ****** ****** ******
      ****** ****** ****** ****** ****** ****** ****** ****** ****** ******
  16  ****** ****** ****** ****** ****** ****** ****** ****** ****** ******
      ****** ****** ****** ****** ****** ****** ****** ****** ****** ******
      ****** ****** ****** ****** ****** ****** ****** ****** ****** ******
  17  ****** ****** ****** ****** ****** ****** ****** ****** ****** ******
      ****** ****** ****** ****** ****** ****** ****** ****** ****** ******
      ****** ****** ****** ****** ****** ****** ****** ****** ****** ******
  18  ****** ****** ****** ****** ****** ****** ****** ****** ****** ******
      ****** ****** ****** ****** ****** ****** ****** ****** ****** ******
      ****** ****** ****** ****** ****** ****** ****** ****** ****** ******
  19  ****** ****** ****** ****** ****** ****** ****** ****** ****** ******
      ****** ****** ****** ****** ****** ****** ****** ****** ****** ******
      ****** ****** ****** ****** ****** ****** ****** ****** ****** ******
  20  ****** ****** ****** ****** ****** ****** ****** ****** ****** ******
      ****** ****** ****** ****** ****** ****** ****** ****** ****** ******
      ****** ****** ****** ****** ****** ****** ****** ****** ****** ******
  21  ****** ****** ****** ****** ****** ****** ****** ****** ****** ******
      ****** ****** ****** ****** ****** ****** ****** ****** ****** ******
      ****** ****** ****** ****** ****** ****** ****** ****** ****** ******
  22  ****** ****** ****** ****** ****** ****** ****** ****** ****** ******
      ****** ****** ****** ****** ****** ****** ****** ****** ****** ******
      ****** ****** ****** ****** ****** ****** ****** ****** ****** ******
  23  ****** ****** ****** ****** ****** ****** ****** ****** ****** ******
      ****** ****** ****** ****** ****** ****** ****** ****** ****** ******
      ****** ****** ****** ****** ****** ****** ****** ****** ****** ******
  24  ****** ****** ****** ****** ****** ****** ****** ****** ****** ******
      ****** ****** ****** ****** ****** ****** ****** ****** ****** ******
      ****** ****** ****** ****** ****** ****** ****** ****** ****** ******
  25  ****** ****** ****** ****** ****** ****** ****** ****** ****** ******
      ****** ****** ****** ****** ****** ****** ****** ****** ****** ******
      ****** ****** ****** ****** ****** ****** ****** ****** ****** ******

 HEAD WILL BE SAVED ON UNIT   51 AT END OF TIME STEP    1, STRESS PERIOD    9
1
  VOLUMETRIC BUDGET FOR ENTIRE MODEL AT END OF TIME STEP    1, STRESS PERIOD   9
  ------------------------------------------------------------------------------

     CUMULATIVE VOLUMES      L**3       RATES FOR THIS TIME STEP      L**3/T
     ------------------                 ------------------------

           IN:                                      IN:
           ---                                      ---
             STORAGE =    24701995.5011               STORAGE =        2316.6960
       CONSTANT HEAD =   146850611.5041         CONSTANT HEAD =      181879.1964
               WELLS =           0.0000                 WELLS =           0.0000
            RECHARGE =    18878400.0000              RECHARGE =       13800.0000
      STREAM LEAKAGE =     5588833.5339        STREAM LEAKAGE =        7078.3309

            TOTAL IN =   196019840.5391              TOTAL IN =      205074.2232

          OUT:                                     OUT:
          ----                                     ----
             STORAGE =     1506448.7011               STORAGE =           0.0000
       CONSTANT HEAD =           0.0000         CONSTANT HEAD =           0.0000
               WELLS =    78041438.6402                 WELLS =       84834.8925
            RECHARGE =           0.0000              RECHARGE =           0.0000
      STREAM LEAKAGE =   116471954.1694        STREAM LEAKAGE =      120239.3335

           TOTAL OUT =   196019841.5108             TOTAL OUT =      205074.2261

            IN - OUT =          -0.9717              IN - OUT =      -2.8644E-03

 PERCENT DISCREPANCY =          -0.00     PERCENT DISCREPANCY =          -0.00






         TIME SUMMARY AT END OF TIME STEP    1 IN STRESS PERIOD    9
                    SECONDS     MINUTES      HOURS       DAYS        YEARS
                    -----------------------------------------------------------
   TIME STEP LENGTH 7.94880E+06 1.32480E+05  2208.0      92.000     0.25188    
 STRESS PERIOD TIME 7.94880E+06 1.32480E+05  2208.0      92.000     0.25188    
         TOTAL TIME 7.10208E+07 1.18368E+06  19728.      822.00      2.2505    
1
1
                            STRESS PERIOD NO.   10, LENGTH =   91.00000    
                            -----------------------------------------------

                              NUMBER OF TIME STEPS =     1

                               MULTIPLIER FOR DELT =     1.500

                            INITIAL TIME STEP SIZE =   91.00000    

 WELL NO.  LAYER   ROW   COL   STRESS RATE         
 --------------------------------------------------
      1      1     23     21     -0.2847E+05
      2      1     23     12     -0.2965E+05
      3      1     23     17     -0.2671E+05

      3 WELLS

                 RECHARGE =  2.000000E-03

 REUSING STREAM SEGMENT DATA FROM LAST STRESS PERIOD
 
 SOLVING FOR HEAD 


     7 CALLS TO PCG ROUTINE FOR TIME STEP   1 IN STRESS PERIOD   10
    26 TOTAL ITERATIONS

 OUTPUT CONTROL FOR STRESS PERIOD   10   TIME STEP    1
    SAVE BUDGET
    SAVE HEAD FOR ALL LAYERS
    PRINT HEAD FOR ALL LAYERS
 UBDSV2 SAVING "STREAMFLOW OUT  " ON UNIT  50 AT TIME STEP  1, STRESS PERIOD  10



 STREAM LISTING     PERIOD     10   STEP        1

 LAYER ROW COL. STREAM  RCH.  FLOW INTO     FLOW TO   FLOW OUT OF   OVRLND.     DIRECT     STREAM       STREAM     STREAM     STREAM   STREAMBED  STREAMBED
                SEG.NO.  NO.  STRM. RCH.    AQUIFER    STRM. RCH.    RUNOFF     PRECIP       ET          HEAD       DEPTH      WIDTH   CONDCTNC.   GRADIENT

   1   13    1     1     1    1.0000E+05 -3.1388E+03   1.0314E+05  0.000E+00  0.000E+00  0.000E+00  4.84074E+01  1.460E-01  2.000E+01  2.000E+04 -1.569E-01
   1   13    2     1     2    1.0314E+05 -5.1813E+03   1.0832E+05  0.000E+00  0.000E+00  0.000E+00  4.79337E+01  1.496E-01  2.000E+01  2.000E+04 -2.591E-01
   1   14    3     1     3    1.0832E+05 -4.2025E+03   1.1252E+05  0.000E+00  0.000E+00  0.000E+00  4.74603E+01  1.535E-01  2.000E+01  2.000E+04 -2.101E-01
   1   15    4     1     4    1.1252E+05 -4.0446E+03   1.1657E+05  0.000E+00  0.000E+00  0.000E+00  4.69865E+01  1.569E-01  2.000E+01  2.000E+04 -2.022E-01
   1   16    5     1     5    1.1657E+05 -4.1675E+03   1.2073E+05  0.000E+00  0.000E+00  0.000E+00  4.65126E+01  1.603E-01  2.000E+01  2.000E+04 -2.084E-01
   1   16    6     1     6    1.2073E+05 -3.2528E+03   1.2399E+05  0.000E+00  0.000E+00  0.000E+00  4.60383E+01  1.633E-01  2.000E+01  2.000E+04 -1.626E-01
   1   16    7     1     7    1.2399E+05 -3.2468E+03   1.2723E+05  0.000E+00  0.000E+00  0.000E+00  4.55636E+01  1.659E-01  2.000E+01  2.000E+04 -1.623E-01
   1   16    8     1     8    1.2723E+05 -3.1833E+03   1.3042E+05  0.000E+00  0.000E+00  0.000E+00  4.50888E+01  1.684E-01  2.000E+01  2.000E+04 -1.592E-01
   1   16    9     1     9    1.3042E+05 -3.0523E+03   1.3347E+05  0.000E+00  0.000E+00  0.000E+00  4.46140E+01  1.708E-01  2.000E+01  2.000E+04 -1.526E-01
   1   16   10     1    10    1.3347E+05 -2.8598E+03   1.3633E+05  0.000E+00  0.000E+00  0.000E+00  4.41390E+01  1.731E-01  2.000E+01  2.000E+04 -1.430E-01
   1   16   11     1    11    1.3633E+05 -2.6179E+03   1.3895E+05  0.000E+00  0.000E+00  0.000E+00  4.36639E+01  1.752E-01  2.000E+01  2.000E+04 -1.309E-01
   1   16   12     1    12    1.3895E+05 -2.9146E+03   1.4186E+05  0.000E+00  0.000E+00  0.000E+00  4.31887E+01  1.773E-01  2.000E+01  2.000E+04 -1.457E-01
   1   15   13     1    13    1.4186E+05 -3.2619E+03   1.4512E+05  0.000E+00  0.000E+00  0.000E+00  4.27137E+01  1.796E-01  2.000E+01  2.000E+04 -1.631E-01
   1   14   14     1    14    1.4512E+05 -3.6512E+03   1.4878E+05  0.000E+00  0.000E+00  0.000E+00  4.22391E+01  1.822E-01  2.000E+01  2.000E+04 -1.826E-01
   1   13   15     1    15    1.4878E+05 -4.2036E+03   1.5298E+05  0.000E+00  0.000E+00  0.000E+00  4.17647E+01  1.851E-01  2.000E+01  2.000E+04 -2.102E-01
   1   12   16     1    16    1.5298E+05 -5.6826E+03   1.5866E+05  0.000E+00  0.000E+00  0.000E+00  4.12910E+01  1.888E-01  2.000E+01  2.000E+04 -2.841E-01
   1   12   17     1    17    1.5866E+05 -3.6456E+03   1.6231E+05  0.000E+00  0.000E+00  0.000E+00  4.08171E+01  1.921E-01  2.000E+01  2.000E+04 -1.823E-01
   1   12   18     1    18    1.6231E+05 -3.5056E+03   1.6581E+05  0.000E+00  0.000E+00  0.000E+00  4.03424E+01  1.947E-01  2.000E+01  2.000E+04 -1.753E-01
   1   12   19     1    19    1.6581E+05 -4.7008E+03   1.7051E+05  0.000E+00  0.000E+00  0.000E+00  3.98680E+01  1.976E-01  2.000E+01  2.000E+04 -2.350E-01
   1   13   20     1    20    1.7051E+05 -2.8404E+03   1.7335E+05  0.000E+00  0.000E+00  0.000E+00  3.93934E+01  2.002E-01  2.000E+01  2.000E+04 -1.420E-01
   1   14   21     1    21    1.7335E+05 -1.6816E+03   1.7504E+05  0.000E+00  0.000E+00  0.000E+00  3.89177E+01  2.018E-01  2.000E+01  2.000E+04 -8.408E-02
   1   14   22     1    22    1.7504E+05  5.0685E+03   1.6997E+05  0.000E+00  0.000E+00  0.000E+00  3.84393E+01  2.006E-01  2.000E+01  2.000E+04  2.534E-01
   1    9   30     2     1    5.0000E+04 -3.0427E+03   5.3043E+04  0.000E+00  0.000E+00  0.000E+00  4.02430E+01  1.180E-01  2.000E+01  2.000E+04 -1.521E-01
   1    9   29     2     2    5.3043E+04 -3.3726E+03   5.6415E+04  0.000E+00  0.000E+00  0.000E+00  3.99973E+01  1.223E-01  2.000E+01  2.000E+04 -1.686E-01
   1    9   28     2     3    5.6415E+04 -3.7520E+03   6.0167E+04  0.000E+00  0.000E+00  0.000E+00  3.97520E+01  1.270E-01  2.000E+01  2.000E+04 -1.876E-01
   1    9   27     2     4    6.0167E+04 -6.5706E+03   6.6738E+04  0.000E+00  0.000E+00  0.000E+00  3.95087E+01  1.337E-01  2.000E+01  2.000E+04 -3.285E-01
   1   10   26     2     5    6.6738E+04 -4.2125E+03   7.0950E+04  0.000E+00  0.000E+00  0.000E+00  3.92654E+01  1.404E-01  2.000E+01  2.000E+04 -2.106E-01
   1   11   25     2     6    7.0950E+04 -3.1517E+03   7.4102E+04  0.000E+00  0.000E+00  0.000E+00  3.90198E+01  1.448E-01  2.000E+01  2.000E+04 -1.576E-01
   1   12   24     2     7    7.4102E+04 -2.2645E+03   7.6367E+04  0.000E+00  0.000E+00  0.000E+00  3.87731E+01  1.481E-01  2.000E+01  2.000E+04 -1.132E-01
   1   13   23     2     8    7.6367E+04 -1.3717E+03   7.7738E+04  0.000E+00  0.000E+00  0.000E+00  3.85252E+01  1.502E-01  2.000E+01  2.000E+04 -6.858E-02
   1   14   22     2     9    7.7738E+04  1.7821E+03   7.5956E+04  0.000E+00  0.000E+00  0.000E+00  3.82750E+01  1.500E-01  2.000E+01  2.000E+04  8.911E-02
   1   14   22     3     1    2.4592E+05 -8.4443E+03   2.5437E+05  0.000E+00  0.000E+00  0.000E+00  3.77636E+01  2.081E-01  2.000E+01  2.000E+04 -4.222E-01
   1   15   23     3     2    2.5437E+05 -2.2159E+03   2.5658E+05  0.000E+00  0.000E+00  0.000E+00  3.68774E+01  2.107E-01  2.000E+01  2.000E+04 -1.108E-01
   1   15   24     3     3    2.5658E+05 -1.7568E+03   2.5834E+05  0.000E+00  0.000E+00  0.000E+00  3.59895E+01  2.117E-01  2.000E+01  2.000E+04 -8.784E-02
   1   15   25     3     4    2.5834E+05 -1.8004E+03   2.6014E+05  0.000E+00  0.000E+00  0.000E+00  3.51015E+01  2.126E-01  2.000E+01  2.000E+04 -9.002E-02
   1   15   26     3     5    2.6014E+05 -2.3783E+03   2.6252E+05  0.000E+00  0.000E+00  0.000E+00  3.42136E+01  2.136E-01  2.000E+01  2.000E+04 -1.189E-01
   1   16   27     3     6    2.6252E+05 -3.1570E+03   2.6568E+05  0.000E+00  0.000E+00  0.000E+00  3.33261E+01  2.150E-01  2.000E+01  2.000E+04 -1.579E-01
   1   17   28     3     7    2.6568E+05 -3.9647E+03   2.6964E+05  0.000E+00  0.000E+00  0.000E+00  3.24389E+01  2.167E-01  2.000E+01  2.000E+04 -1.982E-01
   1   18   29     3     8    2.6964E+05 -5.6023E+03   2.7524E+05  0.000E+00  0.000E+00  0.000E+00  3.15523E+01  2.190E-01  2.000E+01  2.000E+04 -2.801E-01
   1   18   30     3     9    2.7524E+05 -4.8557E+03   2.8010E+05  0.000E+00  0.000E+00  0.000E+00  3.06660E+01  2.215E-01  2.000E+01  2.000E+04 -2.428E-01



1
              HEAD IN LAYER   1 AT END OF TIME STEP   1 IN STRESS PERIOD   10
  ---------------------------------------------------------------------------

          1      2      3      4      5      6      7      8      9     10
         11     12     13     14     15     16     17     18     19     20
         21     22     23     24     25     26     27     28     29     30
 .........................................................................
   1  ****** ****** ****** ****** ****** ****** ****** ****** ****** ******
      ****** ****** ****** ****** ****** ****** ****** ****** ****** ******
      ****** ****** ****** ****** ****** ****** ****** ****** ****** ******
   2  ****** ****** ****** ****** ****** ****** ****** ****** ****** ******
      ****** ****** ****** ****** ****** ****** ****** ****** ****** ******
      ****** ****** ****** ****** ****** ****** ****** ****** ****** ******
   3  ****** ****** ****** ****** ****** ****** ****** ****** ****** ******
      ****** ****** ****** ****** ****** ****** ****** ****** ****** ******
      ****** ****** ****** ****** ****** ****** ****** ****** ****** ******
   4  ****** ****** ****** ****** ****** ****** ****** ****** ****** ******
      ****** ****** ****** ****** ****** ****** ****** ****** ****** ******
      ****** ****** ****** ****** ****** ****** ****** ****** ****** ******
   5  ****** ****** ****** ****** ****** ****** ****** ****** ****** ******
      ****** ****** ****** ****** ****** ****** ****** ****** ****** ******
      ****** ****** ****** ****** ****** ****** ****** ****** ****** ******
   6  ****** ****** ****** ****** ****** ****** ****** ****** ****** ******
      ****** ****** ****** ****** ****** ****** ****** ****** ****** ******
      ****** ****** ****** ****** ****** ****** ****** ****** ****** ******
   7  ****** ****** ****** ****** ****** ****** ****** ****** ****** ******
      ****** ****** ****** ****** ****** ****** ****** ****** ****** ******
      ****** ****** ****** ****** ****** ****** ****** ****** ****** ******
   8  ****** ****** ****** ****** ****** ****** ****** ****** ****** ******
      ****** ****** ****** ****** ****** ****** ****** ****** ****** ******
      ****** ****** ****** ****** ****** ****** ****** ****** ****** ******
   9  ****** ****** ****** ****** ****** ****** ****** ****** ****** ******
      ****** ****** ****** ****** ****** ****** ****** ****** ****** ******
      ****** ****** ****** ****** ****** ****** ****** ****** ****** ******
  10  ****** ****** ****** ****** ****** ****** ****** ****** ****** ******
      ****** ****** ****** ****** ****** ****** ****** ****** ****** ******
      ****** ****** ****** ****** ****** ****** ****** ****** ****** ******
  11  ****** ****** ****** ****** ****** ****** ****** ****** ****** ******
      ****** ****** ****** ****** ****** ****** ****** ****** ****** ******
      ****** ****** ****** ****** ****** ****** ****** ****** ****** ******
  12  ****** ****** ****** ****** ****** ****** ****** ****** ****** ******
      ****** ****** ****** ****** ****** ****** ****** ****** ****** ******
      ****** ****** ****** ****** ****** ****** ****** ****** ****** ******
  13  ****** ****** ****** ****** ****** ****** ****** ****** ****** ******
      ****** ****** ****** ****** ****** ****** ****** ****** ****** ******
      ****** ****** ****** ****** ****** ****** ****** ****** ****** ******
  14  ****** ****** ****** ****** ****** ****** ****** ****** ****** ******
      ****** ****** ****** ****** ****** ****** ****** ****** ****** ******
      ****** ****** ****** ****** ****** ****** ****** ****** ****** ******
  15  ****** ****** ****** ****** ****** ****** ****** ****** ****** ******
      ****** ****** ****** ****** ****** ****** ****** ****** ****** ******
      ****** ****** ****** ****** ****** ****** ****** ****** ****** ******
  16  ****** ****** ****** ****** ****** ****** ****** ****** ****** ******
      ****** ****** ****** ****** ****** ****** ****** ****** ****** ******
      ****** ****** ****** ****** ****** ****** ****** ****** ****** ******
  17  ****** ****** ****** ****** ****** ****** ****** ****** ****** ******
      ****** ****** ****** ****** ****** ****** ****** ****** ****** ******
      ****** ****** ****** ****** ****** ****** ****** ****** ****** ******
  18  ****** ****** ****** ****** ****** ****** ****** ****** ****** ******
      ****** ****** ****** ****** ****** ****** ****** ****** ****** ******
      ****** ****** ****** ****** ****** ****** ****** ****** ****** ******
  19  ****** ****** ****** ****** ****** ****** ****** ****** ****** ******
      ****** ****** ****** ****** ****** ****** ****** ****** ****** ******
      ****** ****** ****** ****** ****** ****** ****** ****** ****** ******
  20  ****** ****** ****** ****** ****** ****** ****** ****** ****** ******
      ****** ****** ****** ****** ****** ****** ****** ****** ****** ******
      ****** ****** ****** ****** ****** ****** ****** ****** ****** ******
  21  ****** ****** ****** ****** ****** ****** ****** ****** ****** ******
      ****** ****** ****** ****** ****** ****** ****** ****** ****** ******
      ****** ****** ****** ****** ****** ****** ****** ****** ****** ******
  22  ****** ****** ****** ****** ****** ****** ****** ****** ****** ******
      ****** ****** ****** ****** ****** ****** ****** ****** ****** ******
      ****** ****** ****** ****** ****** ****** ****** ****** ****** ******
  23  ****** ****** ****** ****** ****** ****** ****** ****** ****** ******
      ****** ****** ****** ****** ****** ****** ****** ****** ****** ******
      ****** ****** ****** ****** ****** ****** ****** ****** ****** ******
  24  ****** ****** ****** ****** ****** ****** ****** ****** ****** ******
      ****** ****** ****** ****** ****** ****** ****** ****** ****** ******
      ****** ****** ****** ****** ****** ****** ****** ****** ****** ******
  25  ****** ****** ****** ****** ****** ****** ****** ****** ****** ******
      ****** ****** ****** ****** ****** ****** ****** ****** ****** ******
      ****** ****** ****** ****** ****** ****** ****** ****** ****** ******

 HEAD WILL BE SAVED ON UNIT   51 AT END OF TIME STEP    1, STRESS PERIOD   10
1
  VOLUMETRIC BUDGET FOR ENTIRE MODEL AT END OF TIME STEP    1, STRESS PERIOD  10
  ------------------------------------------------------------------------------

     CUMULATIVE VOLUMES      L**3       RATES FOR THIS TIME STEP      L**3/T
     ------------------                 ------------------------

           IN:                                      IN:
           ---                                      ---
             STORAGE =    24701995.5011               STORAGE =           0.0000
       CONSTANT HEAD =   162375887.3684         CONSTANT HEAD =      170607.4271
               WELLS =           0.0000                 WELLS =           0.0000
            RECHARGE =    23901600.0000              RECHARGE =       55200.0000
      STREAM LEAKAGE =     6212235.9059        STREAM LEAKAGE =        6850.5755

            TOTAL IN =   217191718.7754              TOTAL IN =      232658.0026

          OUT:                                     OUT:
          ----                                     ----
             STORAGE =     2495962.3978               STORAGE =       10873.7769
       CONSTANT HEAD =           0.0000         CONSTANT HEAD =           0.0000
               WELLS =    85761413.8610                 WELLS =       84834.8925
            RECHARGE =           0.0000              RECHARGE =           0.0000
      STREAM LEAKAGE =   128934343.3317        STREAM LEAKAGE =      136949.3315

           TOTAL OUT =   217191719.5905             TOTAL OUT =      232658.0009

            IN - OUT =          -0.8151              IN - OUT =       1.7210E-03

 PERCENT DISCREPANCY =          -0.00     PERCENT DISCREPANCY =           0.00






         TIME SUMMARY AT END OF TIME STEP    1 IN STRESS PERIOD   10
                    SECONDS     MINUTES      HOURS       DAYS        YEARS
                    -----------------------------------------------------------
   TIME STEP LENGTH 7.86240E+06 1.31040E+05  2184.0      91.000     0.24914    
 STRESS PERIOD TIME 7.86240E+06 1.31040E+05  2184.0      91.000     0.24914    
         TOTAL TIME 7.88832E+07 1.31472E+06  21912.      913.00      2.4997    
1
1
                            STRESS PERIOD NO.   11, LENGTH =   91.00000    
                            -----------------------------------------------

                              NUMBER OF TIME STEPS =     1

                               MULTIPLIER FOR DELT =     1.500

                            INITIAL TIME STEP SIZE =   91.00000    

 WELL NO.  LAYER   ROW   COL   STRESS RATE         
 --------------------------------------------------
      1      1     23     21     -0.2847E+05
      2      1     23     12     -0.2965E+05
      3      1     23     17     -0.2671E+05

      3 WELLS

                 RECHARGE =   0.00000    

 REUSING STREAM SEGMENT DATA FROM LAST STRESS PERIOD
 
 SOLVING FOR HEAD 


     7 CALLS TO PCG ROUTINE FOR TIME STEP   1 IN STRESS PERIOD   11
    26 TOTAL ITERATIONS

 OUTPUT CONTROL FOR STRESS PERIOD   11   TIME STEP    1
    SAVE BUDGET
    SAVE HEAD FOR ALL LAYERS
    PRINT HEAD FOR ALL LAYERS
 UBDSV2 SAVING "STREAMFLOW OUT  " ON UNIT  50 AT TIME STEP  1, STRESS PERIOD  11



 STREAM LISTING     PERIOD     11   STEP        1

 LAYER ROW COL. STREAM  RCH.  FLOW INTO     FLOW TO   FLOW OUT OF   OVRLND.     DIRECT     STREAM       STREAM     STREAM     STREAM   STREAMBED  STREAMBED
                SEG.NO.  NO.  STRM. RCH.    AQUIFER    STRM. RCH.    RUNOFF     PRECIP       ET          HEAD       DEPTH      WIDTH   CONDCTNC.   GRADIENT

   1   13    1     1     1    1.0000E+05 -2.6548E+03   1.0265E+05  0.000E+00  0.000E+00  0.000E+00  4.84072E+01  1.458E-01  2.000E+01  2.000E+04 -1.327E-01
   1   13    2     1     2    1.0265E+05 -4.5485E+03   1.0720E+05  0.000E+00  0.000E+00  0.000E+00  4.79330E+01  1.489E-01  2.000E+01  2.000E+04 -2.274E-01
   1   14    3     1     3    1.0720E+05 -3.5480E+03   1.1075E+05  0.000E+00  0.000E+00  0.000E+00  4.74591E+01  1.523E-01  2.000E+01  2.000E+04 -1.774E-01
   1   15    4     1     4    1.1075E+05 -3.3935E+03   1.1414E+05  0.000E+00  0.000E+00  0.000E+00  4.69847E+01  1.552E-01  2.000E+01  2.000E+04 -1.697E-01
   1   16    5     1     5    1.1414E+05 -3.5669E+03   1.1771E+05  0.000E+00  0.000E+00  0.000E+00  4.65103E+01  1.581E-01  2.000E+01  2.000E+04 -1.783E-01
   1   16    6     1     6    1.1771E+05 -2.7777E+03   1.2049E+05  0.000E+00  0.000E+00  0.000E+00  4.60356E+01  1.606E-01  2.000E+01  2.000E+04 -1.389E-01
   1   16    7     1     7    1.2049E+05 -2.7649E+03   1.2325E+05  0.000E+00  0.000E+00  0.000E+00  4.55606E+01  1.629E-01  2.000E+01  2.000E+04 -1.382E-01
   1   16    8     1     8    1.2325E+05 -2.6975E+03   1.2595E+05  0.000E+00  0.000E+00  0.000E+00  4.50855E+01  1.651E-01  2.000E+01  2.000E+04 -1.349E-01
   1   16    9     1     9    1.2595E+05 -2.5668E+03   1.2852E+05  0.000E+00  0.000E+00  0.000E+00  4.46103E+01  1.671E-01  2.000E+01  2.000E+04 -1.283E-01
   1   16   10     1    10    1.2852E+05 -2.3786E+03   1.3090E+05  0.000E+00  0.000E+00  0.000E+00  4.41350E+01  1.691E-01  2.000E+01  2.000E+04 -1.189E-01
   1   16   11     1    11    1.3090E+05 -2.1434E+03   1.3304E+05  0.000E+00  0.000E+00  0.000E+00  4.36595E+01  1.708E-01  2.000E+01  2.000E+04 -1.072E-01
   1   16   12     1    12    1.3304E+05 -2.3085E+03   1.3535E+05  0.000E+00  0.000E+00  0.000E+00  4.31839E+01  1.726E-01  2.000E+01  2.000E+04 -1.154E-01
   1   15   13     1    13    1.3535E+05 -2.6010E+03   1.3795E+05  0.000E+00  0.000E+00  0.000E+00  4.27085E+01  1.745E-01  2.000E+01  2.000E+04 -1.301E-01
   1   14   14     1    14    1.3795E+05 -2.9788E+03   1.4093E+05  0.000E+00  0.000E+00  0.000E+00  4.22334E+01  1.766E-01  2.000E+01  2.000E+04 -1.489E-01
   1   13   15     1    15    1.4093E+05 -3.5426E+03   1.4447E+05  0.000E+00  0.000E+00  0.000E+00  4.17586E+01  1.791E-01  2.000E+01  2.000E+04 -1.771E-01
   1   12   16     1    16    1.4447E+05 -5.0559E+03   1.4953E+05  0.000E+00  0.000E+00  0.000E+00  4.12845E+01  1.823E-01  2.000E+01  2.000E+04 -2.528E-01
   1   12   17     1    17    1.4953E+05 -3.1733E+03   1.5270E+05  0.000E+00  0.000E+00  0.000E+00  4.08103E+01  1.853E-01  2.000E+01  2.000E+04 -1.587E-01
   1   12   18     1    18    1.5270E+05 -3.0398E+03   1.5574E+05  0.000E+00  0.000E+00  0.000E+00  4.03353E+01  1.876E-01  2.000E+01  2.000E+04 -1.520E-01
   1   12   19     1    19    1.5574E+05 -4.1324E+03   1.5987E+05  0.000E+00  0.000E+00  0.000E+00  3.98606E+01  1.902E-01  2.000E+01  2.000E+04 -2.066E-01
   1   13   20     1    20    1.5987E+05 -2.2793E+03   1.6215E+05  0.000E+00  0.000E+00  0.000E+00  3.93857E+01  1.925E-01  2.000E+01  2.000E+04 -1.140E-01
   1   14   21     1    21    1.6215E+05 -1.1693E+03   1.6332E+05  0.000E+00  0.000E+00  0.000E+00  3.89096E+01  1.937E-01  2.000E+01  2.000E+04 -5.847E-02
   1   14   22     1    22    1.6332E+05  5.1688E+03   1.5815E+05  0.000E+00  0.000E+00  0.000E+00  3.84309E+01  1.923E-01  2.000E+01  2.000E+04  2.584E-01
   1    9   30     2     1    5.0000E+04 -2.6013E+03   5.2601E+04  0.000E+00  0.000E+00  0.000E+00  4.02427E+01  1.177E-01  2.000E+01  2.000E+04 -1.301E-01
   1    9   29     2     2    5.2601E+04 -2.9349E+03   5.5536E+04  0.000E+00  0.000E+00  0.000E+00  3.99964E+01  1.214E-01  2.000E+01  2.000E+04 -1.467E-01
   1    9   28     2     3    5.5536E+04 -3.3178E+03   5.8854E+04  0.000E+00  0.000E+00  0.000E+00  3.97506E+01  1.256E-01  2.000E+01  2.000E+04 -1.659E-01
   1    9   27     2     4    5.8854E+04 -5.9989E+03   6.4853E+04  0.000E+00  0.000E+00  0.000E+00  3.95066E+01  1.316E-01  2.000E+01  2.000E+04 -2.999E-01
   1   10   26     2     5    6.4853E+04 -3.6149E+03   6.8468E+04  0.000E+00  0.000E+00  0.000E+00  3.92627E+01  1.377E-01  2.000E+01  2.000E+04 -1.807E-01
   1   11   25     2     6    6.8468E+04 -2.5774E+03   7.1045E+04  0.000E+00  0.000E+00  0.000E+00  3.90165E+01  1.415E-01  2.000E+01  2.000E+04 -1.289E-01
   1   12   24     2     7    7.1045E+04 -1.7533E+03   7.2799E+04  0.000E+00  0.000E+00  0.000E+00  3.87691E+01  1.441E-01  2.000E+01  2.000E+04 -8.767E-02
   1   13   23     2     8    7.2799E+04 -9.6885E+02   7.3767E+04  0.000E+00  0.000E+00  0.000E+00  3.85207E+01  1.457E-01  2.000E+01  2.000E+04 -4.844E-02
   1   14   22     2     9    7.3767E+04  1.9530E+03   7.1814E+04  0.000E+00  0.000E+00  0.000E+00  3.82702E+01  1.452E-01  2.000E+01  2.000E+04  9.765E-02
   1   14   22     3     1    2.2997E+05 -8.3394E+03   2.3831E+05  0.000E+00  0.000E+00  0.000E+00  3.77555E+01  2.000E-01  2.000E+01  2.000E+04 -4.170E-01
   1   15   23     3     2    2.3831E+05 -1.7372E+03   2.4004E+05  0.000E+00  0.000E+00  0.000E+00  3.68692E+01  2.025E-01  2.000E+01  2.000E+04 -8.686E-02
   1   15   24     3     3    2.4004E+05 -1.4031E+03   2.4145E+05  0.000E+00  0.000E+00  0.000E+00  3.59811E+01  2.033E-01  2.000E+01  2.000E+04 -7.016E-02
   1   15   25     3     4    2.4145E+05 -1.4427E+03   2.4289E+05  0.000E+00  0.000E+00  0.000E+00  3.50930E+01  2.041E-01  2.000E+01  2.000E+04 -7.213E-02
   1   15   26     3     5    2.4289E+05 -1.9147E+03   2.4480E+05  0.000E+00  0.000E+00  0.000E+00  3.42049E+01  2.049E-01  2.000E+01  2.000E+04 -9.573E-02
   1   16   27     3     6    2.4480E+05 -2.5821E+03   2.4739E+05  0.000E+00  0.000E+00  0.000E+00  3.33172E+01  2.060E-01  2.000E+01  2.000E+04 -1.291E-01
   1   17   28     3     7    2.4739E+05 -3.3793E+03   2.5077E+05  0.000E+00  0.000E+00  0.000E+00  3.24298E+01  2.075E-01  2.000E+01  2.000E+04 -1.690E-01
   1   18   29     3     8    2.5077E+05 -5.0569E+03   2.5582E+05  0.000E+00  0.000E+00  0.000E+00  3.15430E+01  2.096E-01  2.000E+01  2.000E+04 -2.528E-01
   1   18   30     3     9    2.5582E+05 -4.4394E+03   2.6026E+05  0.000E+00  0.000E+00  0.000E+00  3.06564E+01  2.120E-01  2.000E+01  2.000E+04 -2.220E-01



1
              HEAD IN LAYER   1 AT END OF TIME STEP   1 IN STRESS PERIOD   11
  ---------------------------------------------------------------------------

          1      2      3      4      5      6      7      8      9     10
         11     12     13     14     15     16     17     18     19     20
         21     22     23     24     25     26     27     28     29     30
 .........................................................................
   1  ****** ****** ****** ****** ****** ****** ****** ****** ****** ******
      ****** ****** ****** ****** ****** ****** ****** ****** ****** ******
      ****** ****** ****** ****** ****** ****** ****** ****** ****** ******
   2  ****** ****** ****** ****** ****** ****** ****** ****** ****** ******
      ****** ****** ****** ****** ****** ****** ****** ****** ****** ******
      ****** ****** ****** ****** ****** ****** ****** ****** ****** ******
   3  ****** ****** ****** ****** ****** ****** ****** ****** ****** ******
      ****** ****** ****** ****** ****** ****** ****** ****** ****** ******
      ****** ****** ****** ****** ****** ****** ****** ****** ****** ******
   4  ****** ****** ****** ****** ****** ****** ****** ****** ****** ******
      ****** ****** ****** ****** ****** ****** ****** ****** ****** ******
      ****** ****** ****** ****** ****** ****** ****** ****** ****** ******
   5  ****** ****** ****** ****** ****** ****** ****** ****** ****** ******
      ****** ****** ****** ****** ****** ****** ****** ****** ****** ******
      ****** ****** ****** ****** ****** ****** ****** ****** ****** ******
   6  ****** ****** ****** ****** ****** ****** ****** ****** ****** ******
      ****** ****** ****** ****** ****** ****** ****** ****** ****** ******
      ****** ****** ****** ****** ****** ****** ****** ****** ****** ******
   7  ****** ****** ****** ****** ****** ****** ****** ****** ****** ******
      ****** ****** ****** ****** ****** ****** ****** ****** ****** ******
      ****** ****** ****** ****** ****** ****** ****** ****** ****** ******
   8  ****** ****** ****** ****** ****** ****** ****** ****** ****** ******
      ****** ****** ****** ****** ****** ****** ****** ****** ****** ******
      ****** ****** ****** ****** ****** ****** ****** ****** ****** ******
   9  ****** ****** ****** ****** ****** ****** ****** ****** ****** ******
      ****** ****** ****** ****** ****** ****** ****** ****** ****** ******
      ****** ****** ****** ****** ****** ****** ****** ****** ****** ******
  10  ****** ****** ****** ****** ****** ****** ****** ****** ****** ******
      ****** ****** ****** ****** ****** ****** ****** ****** ****** ******
      ****** ****** ****** ****** ****** ****** ****** ****** ****** ******
  11  ****** ****** ****** ****** ****** ****** ****** ****** ****** ******
      ****** ****** ****** ****** ****** ****** ****** ****** ****** ******
      ****** ****** ****** ****** ****** ****** ****** ****** ****** ******
  12  ****** ****** ****** ****** ****** ****** ****** ****** ****** ******
      ****** ****** ****** ****** ****** ****** ****** ****** ****** ******
      ****** ****** ****** ****** ****** ****** ****** ****** ****** ******
  13  ****** ****** ****** ****** ****** ****** ****** ****** ****** ******
      ****** ****** ****** ****** ****** ****** ****** ****** ****** ******
      ****** ****** ****** ****** ****** ****** ****** ****** ****** ******
  14  ****** ****** ****** ****** ****** ****** ****** ****** ****** ******
      ****** ****** ****** ****** ****** ****** ****** ****** ****** ******
      ****** ****** ****** ****** ****** ****** ****** ****** ****** ******
  15  ****** ****** ****** ****** ****** ****** ****** ****** ****** ******
      ****** ****** ****** ****** ****** ****** ****** ****** ****** ******
      ****** ****** ****** ****** ****** ****** ****** ****** ****** ******
  16  ****** ****** ****** ****** ****** ****** ****** ****** ****** ******
      ****** ****** ****** ****** ****** ****** ****** ****** ****** ******
      ****** ****** ****** ****** ****** ****** ****** ****** ****** ******
  17  ****** ****** ****** ****** ****** ****** ****** ****** ****** ******
      ****** ****** ****** ****** ****** ****** ****** ****** ****** ******
      ****** ****** ****** ****** ****** ****** ****** ****** ****** ******
  18  ****** ****** ****** ****** ****** ****** ****** ****** ****** ******
      ****** ****** ****** ****** ****** ****** ****** ****** ****** ******
      ****** ****** ****** ****** ****** ****** ****** ****** ****** ******
  19  ****** ****** ****** ****** ****** ****** ****** ****** ****** ******
      ****** ****** ****** ****** ****** ****** ****** ****** ****** ******
      ****** ****** ****** ****** ****** ****** ****** ****** ****** ******
  20  ****** ****** ****** ****** ****** ****** ****** ****** ****** ******
      ****** ****** ****** ****** ****** ****** ****** ****** ****** ******
      ****** ****** ****** ****** ****** ****** ****** ****** ****** ******
  21  ****** ****** ****** ****** ****** ****** ****** ****** ****** ******
      ****** ****** ****** ****** ****** ****** ****** ****** ****** ******
      ****** ****** ****** ****** ****** ****** ****** ****** ****** ******
  22  ****** ****** ****** ****** ****** ****** ****** ****** ****** ******
      ****** ****** ****** ****** ****** ****** ****** ****** ****** ******
      ****** ****** ****** ****** ****** ****** ****** ****** ****** ******
  23  ****** ****** ****** ****** ****** ****** ****** ****** ****** ******
      ****** ****** ****** ****** ****** ****** ****** ****** ****** ******
      ****** ****** ****** ****** ****** ****** ****** ****** ****** ******
  24  ****** ****** ****** ****** ****** ****** ****** ****** ****** ******
      ****** ****** ****** ****** ****** ****** ****** ****** ****** ******
      ****** ****** ****** ****** ****** ****** ****** ****** ****** ******
  25  ****** ****** ****** ****** ****** ****** ****** ****** ****** ******
      ****** ****** ****** ****** ****** ****** ****** ****** ****** ******
      ****** ****** ****** ****** ****** ****** ****** ****** ****** ******

 HEAD WILL BE SAVED ON UNIT   51 AT END OF TIME STEP    1, STRESS PERIOD   11
1
  VOLUMETRIC BUDGET FOR ENTIRE MODEL AT END OF TIME STEP    1, STRESS PERIOD  11
  ------------------------------------------------------------------------------

     CUMULATIVE VOLUMES      L**3       RATES FOR THIS TIME STEP      L**3/T
     ------------------                 ------------------------

           IN:                                      IN:
           ---                                      ---
             STORAGE =    25776974.9559               STORAGE =       11812.9610
       CONSTANT HEAD =   179054730.8260         CONSTANT HEAD =      183283.9940
               WELLS =           0.0000                 WELLS =           0.0000
            RECHARGE =    23901600.0000              RECHARGE =           0.0000
      STREAM LEAKAGE =     6860319.4091        STREAM LEAKAGE =        7121.7967

            TOTAL IN =   235593625.1911              TOTAL IN =      202218.7518

          OUT:                                     OUT:
          ----                                     ----
             STORAGE =     2495962.3978               STORAGE =           0.0000
       CONSTANT HEAD =           0.0000         CONSTANT HEAD =           0.0000
               WELLS =    93481389.0818                 WELLS =       84834.8925
            RECHARGE =           0.0000              RECHARGE =           0.0000
      STREAM LEAKAGE =   139616274.7182        STREAM LEAKAGE =      117383.8614

           TOTAL OUT =   235593626.1978             TOTAL OUT =      202218.7539

            IN - OUT =          -1.0067              IN - OUT =      -2.1057E-03

 PERCENT DISCREPANCY =          -0.00     PERCENT DISCREPANCY =          -0.00






         TIME SUMMARY AT END OF TIME STEP    1 IN STRESS PERIOD   11
                    SECONDS     MINUTES      HOURS       DAYS        YEARS
                    -----------------------------------------------------------
   TIME STEP LENGTH 7.86240E+06 1.31040E+05  2184.0      91.000     0.24914    
 STRESS PERIOD TIME 7.86240E+06 1.31040E+05  2184.0      91.000     0.24914    
         TOTAL TIME 8.67456E+07 1.44576E+06  24096.      1004.0      2.7488    
1
1
                            STRESS PERIOD NO.   12, LENGTH =   91.00000    
                            -----------------------------------------------

                              NUMBER OF TIME STEPS =     1

                               MULTIPLIER FOR DELT =     1.500

                            INITIAL TIME STEP SIZE =   91.00000    

 WELL NO.  LAYER   ROW   COL   STRESS RATE         
 --------------------------------------------------
      1      1     23     21     -0.2847E+05
      2      1     23     12     -0.2965E+05
      3      1     23     17     -0.2671E+05

      3 WELLS

                 RECHARGE =  1.000000E-03

 REUSING STREAM SEGMENT DATA FROM LAST STRESS PERIOD
 
 SOLVING FOR HEAD 


     6 CALLS TO PCG ROUTINE FOR TIME STEP   1 IN STRESS PERIOD   12
    23 TOTAL ITERATIONS

 OUTPUT CONTROL FOR STRESS PERIOD   12   TIME STEP    1
    SAVE BUDGET
    SAVE HEAD FOR ALL LAYERS
    PRINT HEAD FOR ALL LAYERS
 UBDSV2 SAVING "STREAMFLOW OUT  " ON UNIT  50 AT TIME STEP  1, STRESS PERIOD  12



 STREAM LISTING     PERIOD     12   STEP        1

 LAYER ROW COL. STREAM  RCH.  FLOW INTO     FLOW TO   FLOW OUT OF   OVRLND.     DIRECT     STREAM       STREAM     STREAM     STREAM   STREAMBED  STREAMBED
                SEG.NO.  NO.  STRM. RCH.    AQUIFER    STRM. RCH.    RUNOFF     PRECIP       ET          HEAD       DEPTH      WIDTH   CONDCTNC.   GRADIENT

   1   13    1     1     1    1.0000E+05 -2.8284E+03   1.0283E+05  0.000E+00  0.000E+00  0.000E+00  4.84072E+01  1.459E-01  2.000E+01  2.000E+04 -1.414E-01
   1   13    2     1     2    1.0283E+05 -4.7666E+03   1.0760E+05  0.000E+00  0.000E+00  0.000E+00  4.79332E+01  1.491E-01  2.000E+01  2.000E+04 -2.383E-01
   1   14    3     1     3    1.0760E+05 -3.7872E+03   1.1138E+05  0.000E+00  0.000E+00  0.000E+00  4.74596E+01  1.527E-01  2.000E+01  2.000E+04 -1.894E-01
   1   15    4     1     4    1.1138E+05 -3.6349E+03   1.1502E+05  0.000E+00  0.000E+00  0.000E+00  4.69854E+01  1.558E-01  2.000E+01  2.000E+04 -1.817E-01
   1   16    5     1     5    1.1502E+05 -3.7899E+03   1.1881E+05  0.000E+00  0.000E+00  0.000E+00  4.65111E+01  1.589E-01  2.000E+01  2.000E+04 -1.895E-01
   1   16    6     1     6    1.1881E+05 -2.9551E+03   1.2176E+05  0.000E+00  0.000E+00  0.000E+00  4.60366E+01  1.616E-01  2.000E+01  2.000E+04 -1.478E-01
   1   16    7     1     7    1.2176E+05 -2.9442E+03   1.2471E+05  0.000E+00  0.000E+00  0.000E+00  4.55617E+01  1.640E-01  2.000E+01  2.000E+04 -1.472E-01
   1   16    8     1     8    1.2471E+05 -2.8780E+03   1.2758E+05  0.000E+00  0.000E+00  0.000E+00  4.50867E+01  1.663E-01  2.000E+01  2.000E+04 -1.439E-01
   1   16    9     1     9    1.2758E+05 -2.7472E+03   1.3033E+05  0.000E+00  0.000E+00  0.000E+00  4.46117E+01  1.685E-01  2.000E+01  2.000E+04 -1.374E-01
   1   16   10     1    10    1.3033E+05 -2.5579E+03   1.3289E+05  0.000E+00  0.000E+00  0.000E+00  4.41365E+01  1.706E-01  2.000E+01  2.000E+04 -1.279E-01
   1   16   11     1    11    1.3289E+05 -2.3208E+03   1.3521E+05  0.000E+00  0.000E+00  0.000E+00  4.36611E+01  1.725E-01  2.000E+01  2.000E+04 -1.160E-01
   1   16   12     1    12    1.3521E+05 -2.5325E+03   1.3774E+05  0.000E+00  0.000E+00  0.000E+00  4.31857E+01  1.743E-01  2.000E+01  2.000E+04 -1.266E-01
   1   15   13     1    13    1.3774E+05 -2.8453E+03   1.4059E+05  0.000E+00  0.000E+00  0.000E+00  4.27105E+01  1.764E-01  2.000E+01  2.000E+04 -1.423E-01
   1   14   14     1    14    1.4059E+05 -3.2255E+03   1.4381E+05  0.000E+00  0.000E+00  0.000E+00  4.22355E+01  1.787E-01  2.000E+01  2.000E+04 -1.613E-01
   1   13   15     1    15    1.4381E+05 -3.7837E+03   1.4760E+05  0.000E+00  0.000E+00  0.000E+00  4.17609E+01  1.813E-01  2.000E+01  2.000E+04 -1.892E-01
   1   12   16     1    16    1.4760E+05 -5.2757E+03   1.5287E+05  0.000E+00  0.000E+00  0.000E+00  4.12869E+01  1.847E-01  2.000E+01  2.000E+04 -2.638E-01
   1   12   17     1    17    1.5287E+05 -3.3473E+03   1.5622E+05  0.000E+00  0.000E+00  0.000E+00  4.08128E+01  1.878E-01  2.000E+01  2.000E+04 -1.674E-01
   1   12   18     1    18    1.5622E+05 -3.2134E+03   1.5943E+05  0.000E+00  0.000E+00  0.000E+00  4.03379E+01  1.902E-01  2.000E+01  2.000E+04 -1.607E-01
   1   12   19     1    19    1.5943E+05 -4.3440E+03   1.6378E+05  0.000E+00  0.000E+00  0.000E+00  3.98634E+01  1.929E-01  2.000E+01  2.000E+04 -2.172E-01
   1   13   20     1    20    1.6378E+05 -2.4988E+03   1.6628E+05  0.000E+00  0.000E+00  0.000E+00  3.93886E+01  1.954E-01  2.000E+01  2.000E+04 -1.249E-01
   1   14   21     1    21    1.6628E+05 -1.3671E+03   1.6764E+05  0.000E+00  0.000E+00  0.000E+00  3.89126E+01  1.967E-01  2.000E+01  2.000E+04 -6.835E-02
   1   14   22     1    22    1.6764E+05  5.1251E+03   1.6252E+05  0.000E+00  0.000E+00  0.000E+00  3.84340E+01  1.954E-01  2.000E+01  2.000E+04  2.563E-01
   1    9   30     2     1    5.0000E+04 -2.7807E+03   5.2781E+04  0.000E+00  0.000E+00  0.000E+00  4.02428E+01  1.178E-01  2.000E+01  2.000E+04 -1.390E-01
   1    9   29     2     2    5.2781E+04 -3.1125E+03   5.5893E+04  0.000E+00  0.000E+00  0.000E+00  3.99968E+01  1.218E-01  2.000E+01  2.000E+04 -1.556E-01
   1    9   28     2     3    5.5893E+04 -3.4930E+03   5.9386E+04  0.000E+00  0.000E+00  0.000E+00  3.97512E+01  1.262E-01  2.000E+01  2.000E+04 -1.746E-01
   1    9   27     2     4    5.9386E+04 -6.2196E+03   6.5606E+04  0.000E+00  0.000E+00  0.000E+00  3.95075E+01  1.325E-01  2.000E+01  2.000E+04 -3.110E-01
   1   10   26     2     5    6.5606E+04 -3.8524E+03   6.9458E+04  0.000E+00  0.000E+00  0.000E+00  3.92638E+01  1.388E-01  2.000E+01  2.000E+04 -1.926E-01
   1   11   25     2     6    6.9458E+04 -2.8085E+03   7.2267E+04  0.000E+00  0.000E+00  0.000E+00  3.90178E+01  1.428E-01  2.000E+01  2.000E+04 -1.404E-01
   1   12   24     2     7    7.2267E+04 -1.9631E+03   7.4230E+04  0.000E+00  0.000E+00  0.000E+00  3.87707E+01  1.457E-01  2.000E+01  2.000E+04 -9.816E-02
   1   13   23     2     8    7.4230E+04 -1.1393E+03   7.5369E+04  0.000E+00  0.000E+00  0.000E+00  3.85225E+01  1.475E-01  2.000E+01  2.000E+04 -5.696E-02
   1   14   22     2     9    7.5369E+04  1.8861E+03   7.3483E+04  0.000E+00  0.000E+00  0.000E+00  3.82721E+01  1.471E-01  2.000E+01  2.000E+04  9.431E-02
   1   14   22     3     1    2.3600E+05 -8.3834E+03   2.4438E+05  0.000E+00  0.000E+00  0.000E+00  3.77586E+01  2.031E-01  2.000E+01  2.000E+04 -4.192E-01
   1   15   23     3     2    2.4438E+05 -1.9228E+03   2.4631E+05  0.000E+00  0.000E+00  0.000E+00  3.68723E+01  2.057E-01  2.000E+01  2.000E+04 -9.614E-02
   1   15   24     3     3    2.4631E+05 -1.5480E+03   2.4786E+05  0.000E+00  0.000E+00  0.000E+00  3.59843E+01  2.065E-01  2.000E+01  2.000E+04 -7.740E-02
   1   15   25     3     4    2.4786E+05 -1.5922E+03   2.4945E+05  0.000E+00  0.000E+00  0.000E+00  3.50962E+01  2.073E-01  2.000E+01  2.000E+04 -7.961E-02
   1   15   26     3     5    2.4945E+05 -2.1099E+03   2.5156E+05  0.000E+00  0.000E+00  0.000E+00  3.42083E+01  2.083E-01  2.000E+01  2.000E+04 -1.055E-01
   1   16   27     3     6    2.5156E+05 -2.8171E+03   2.5437E+05  0.000E+00  0.000E+00  0.000E+00  3.33206E+01  2.095E-01  2.000E+01  2.000E+04 -1.409E-01
   1   17   28     3     7    2.5437E+05 -3.6168E+03   2.5799E+05  0.000E+00  0.000E+00  0.000E+00  3.24333E+01  2.111E-01  2.000E+01  2.000E+04 -1.808E-01
   1   18   29     3     8    2.5799E+05 -5.2741E+03   2.6327E+05  0.000E+00  0.000E+00  0.000E+00  3.15466E+01  2.133E-01  2.000E+01  2.000E+04 -2.637E-01
   1   18   30     3     9    2.6327E+05 -4.6104E+03   2.6788E+05  0.000E+00  0.000E+00  0.000E+00  3.06601E+01  2.157E-01  2.000E+01  2.000E+04 -2.305E-01



1
              HEAD IN LAYER   1 AT END OF TIME STEP   1 IN STRESS PERIOD   12
  ---------------------------------------------------------------------------

          1      2      3      4      5      6      7      8      9     10
         11     12     13     14     15     16     17     18     19     20
         21     22     23     24     25     26     27     28     29     30
 .........................................................................
   1  ****** ****** ****** ****** ****** ****** ****** ****** ****** ******
      ****** ****** ****** ****** ****** ****** ****** ****** ****** ******
      ****** ****** ****** ****** ****** ****** ****** ****** ****** ******
   2  ****** ****** ****** ****** ****** ****** ****** ****** ****** ******
      ****** ****** ****** ****** ****** ****** ****** ****** ****** ******
      ****** ****** ****** ****** ****** ****** ****** ****** ****** ******
   3  ****** ****** ****** ****** ****** ****** ****** ****** ****** ******
      ****** ****** ****** ****** ****** ****** ****** ****** ****** ******
      ****** ****** ****** ****** ****** ****** ****** ****** ****** ******
   4  ****** ****** ****** ****** ****** ****** ****** ****** ****** ******
      ****** ****** ****** ****** ****** ****** ****** ****** ****** ******
      ****** ****** ****** ****** ****** ****** ****** ****** ****** ******
   5  ****** ****** ****** ****** ****** ****** ****** ****** ****** ******
      ****** ****** ****** ****** ****** ****** ****** ****** ****** ******
      ****** ****** ****** ****** ****** ****** ****** ****** ****** ******
   6  ****** ****** ****** ****** ****** ****** ****** ****** ****** ******
      ****** ****** ****** ****** ****** ****** ****** ****** ****** ******
      ****** ****** ****** ****** ****** ****** ****** ****** ****** ******
   7  ****** ****** ****** ****** ****** ****** ****** ****** ****** ******
      ****** ****** ****** ****** ****** ****** ****** ****** ****** ******
      ****** ****** ****** ****** ****** ****** ****** ****** ****** ******
   8  ****** ****** ****** ****** ****** ****** ****** ****** ****** ******
      ****** ****** ****** ****** ****** ****** ****** ****** ****** ******
      ****** ****** ****** ****** ****** ****** ****** ****** ****** ******
   9  ****** ****** ****** ****** ****** ****** ****** ****** ****** ******
      ****** ****** ****** ****** ****** ****** ****** ****** ****** ******
      ****** ****** ****** ****** ****** ****** ****** ****** ****** ******
  10  ****** ****** ****** ****** ****** ****** ****** ****** ****** ******
      ****** ****** ****** ****** ****** ****** ****** ****** ****** ******
      ****** ****** ****** ****** ****** ****** ****** ****** ****** ******
  11  ****** ****** ****** ****** ****** ****** ****** ****** ****** ******
      ****** ****** ****** ****** ****** ****** ****** ****** ****** ******
      ****** ****** ****** ****** ****** ****** ****** ****** ****** ******
  12  ****** ****** ****** ****** ****** ****** ****** ****** ****** ******
      ****** ****** ****** ****** ****** ****** ****** ****** ****** ******
      ****** ****** ****** ****** ****** ****** ****** ****** ****** ******
  13  ****** ****** ****** ****** ****** ****** ****** ****** ****** ******
      ****** ****** ****** ****** ****** ****** ****** ****** ****** ******
      ****** ****** ****** ****** ****** ****** ****** ****** ****** ******
  14  ****** ****** ****** ****** ****** ****** ****** ****** ****** ******
      ****** ****** ****** ****** ****** ****** ****** ****** ****** ******
      ****** ****** ****** ****** ****** ****** ****** ****** ****** ******
  15  ****** ****** ****** ****** ****** ****** ****** ****** ****** ******
      ****** ****** ****** ****** ****** ****** ****** ****** ****** ******
      ****** ****** ****** ****** ****** ****** ****** ****** ****** ******
  16  ****** ****** ****** ****** ****** ****** ****** ****** ****** ******
      ****** ****** ****** ****** ****** ****** ****** ****** ****** ******
      ****** ****** ****** ****** ****** ****** ****** ****** ****** ******
  17  ****** ****** ****** ****** ****** ****** ****** ****** ****** ******
      ****** ****** ****** ****** ****** ****** ****** ****** ****** ******
      ****** ****** ****** ****** ****** ****** ****** ****** ****** ******
  18  ****** ****** ****** ****** ****** ****** ****** ****** ****** ******
      ****** ****** ****** ****** ****** ****** ****** ****** ****** ******
      ****** ****** ****** ****** ****** ****** ****** ****** ****** ******
  19  ****** ****** ****** ****** ****** ****** ****** ****** ****** ******
      ****** ****** ****** ****** ****** ****** ****** ****** ****** ******
      ****** ****** ****** ****** ****** ****** ****** ****** ****** ******
  20  ****** ****** ****** ****** ****** ****** ****** ****** ****** ******
      ****** ****** ****** ****** ****** ****** ****** ****** ****** ******
      ****** ****** ****** ****** ****** ****** ****** ****** ****** ******
  21  ****** ****** ****** ****** ****** ****** ****** ****** ****** ******
      ****** ****** ****** ****** ****** ****** ****** ****** ****** ******
      ****** ****** ****** ****** ****** ****** ****** ****** ****** ******
  22  ****** ****** ****** ****** ****** ****** ****** ****** ****** ******
      ****** ****** ****** ****** ****** ****** ****** ****** ****** ******
      ****** ****** ****** ****** ****** ****** ****** ****** ****** ******
  23  ****** ****** ****** ****** ****** ****** ****** ****** ****** ******
      ****** ****** ****** ****** ****** ****** ****** ****** ****** ******
      ****** ****** ****** ****** ****** ****** ****** ****** ****** ******
  24  ****** ****** ****** ****** ****** ****** ****** ****** ****** ******
      ****** ****** ****** ****** ****** ****** ****** ****** ****** ******
      ****** ****** ****** ****** ****** ****** ****** ****** ****** ******
  25  ****** ****** ****** ****** ****** ****** ****** ****** ****** ******
      ****** ****** ****** ****** ****** ****** ****** ****** ****** ******
      ****** ****** ****** ****** ****** ****** ****** ****** ****** ******

 HEAD WILL BE SAVED ON UNIT   51 AT END OF TIME STEP    1, STRESS PERIOD   12
1
  VOLUMETRIC BUDGET FOR ENTIRE MODEL AT END OF TIME STEP    1, STRESS PERIOD  12
  ------------------------------------------------------------------------------

     CUMULATIVE VOLUMES      L**3       RATES FOR THIS TIME STEP      L**3/T
     ------------------                 ------------------------

           IN:                                      IN:
           ---                                      ---
             STORAGE =    25776974.9559               STORAGE =           0.0000
       CONSTANT HEAD =   195330638.7883         CONSTANT HEAD =      178856.1315
               WELLS =           0.0000                 WELLS =           0.0000
            RECHARGE =    26413200.0000              RECHARGE =       27600.0000
      STREAM LEAKAGE =     7498338.0429        STREAM LEAKAGE =        7011.1938

            TOTAL IN =   255019151.7871              TOTAL IN =      213467.3252

          OUT:                                     OUT:
          ----                                     ----
             STORAGE =     2836768.9008               STORAGE =        3745.1264
       CONSTANT HEAD =           0.0000         CONSTANT HEAD =           0.0000
               WELLS =   101201364.3026                 WELLS =       84834.8925
            RECHARGE =           0.0000              RECHARGE =           0.0000
      STREAM LEAKAGE =   150981019.5152        STREAM LEAKAGE =      124887.3055

           TOTAL OUT =   255019152.7185             TOTAL OUT =      213467.3244

            IN - OUT =          -0.9315              IN - OUT =       8.2721E-04

 PERCENT DISCREPANCY =          -0.00     PERCENT DISCREPANCY =           0.00






         TIME SUMMARY AT END OF TIME STEP    1 IN STRESS PERIOD   12
                    SECONDS     MINUTES      HOURS       DAYS        YEARS
                    -----------------------------------------------------------
   TIME STEP LENGTH 7.86240E+06 1.31040E+05  2184.0      91.000     0.24914    
 STRESS PERIOD TIME 7.86240E+06 1.31040E+05  2184.0      91.000     0.24914    
         TOTAL TIME 9.46080E+07 1.57680E+06  26280.      1095.0      2.9979    
1

 Run end date and time (yyyy/mm/dd hh:mm:ss): 2018/10/08 23:43:49
 Elapsed run time:  0.073 Seconds

