                                  MODFLOW-2005     
      U.S. GEOLOGICAL SURVEY MODULAR FINITE-DIFFERENCE GROUND-WATER FLOW MODEL
                            VERSION 1.11.00 8/8/2013

 LIST FILE: supply2.lst
                         UNIT   10

 OPENING ..\data\supply.dis
 FILE TYPE:DIS   UNIT   11   STATUS:OLD    
 FORMAT:FORMATTED              ACCESS:SEQUENTIAL          

 OPENING ..\data\supply.ba6
 FILE TYPE:BAS6   UNIT   12   STATUS:OLD    
 FORMAT:FORMATTED              ACCESS:SEQUENTIAL          

 OPENING ..\data\supply_het.bc6
 FILE TYPE:BCF6   UNIT   13   STATUS:OLD    
 FORMAT:FORMATTED              ACCESS:SEQUENTIAL          

 OPENING ..\data\supply.rch
 FILE TYPE:RCH   UNIT   15   STATUS:OLD    
 FORMAT:FORMATTED              ACCESS:SEQUENTIAL          

 OPENING ..\data\supply2.sfr
 FILE TYPE:SFR   UNIT   16   STATUS:OLD    
 FORMAT:FORMATTED              ACCESS:SEQUENTIAL          

 OPENING ..\data\supply.oc
 FILE TYPE:OC   UNIT   17   STATUS:OLD    
 FORMAT:FORMATTED              ACCESS:SEQUENTIAL          

 OPENING ..\data\supply.pcg
 FILE TYPE:PCG   UNIT   18   STATUS:OLD    
 FORMAT:FORMATTED              ACCESS:SEQUENTIAL          

 OPENING supply2.wel
 FILE TYPE:WEL   UNIT   19   STATUS:OLD    
 FORMAT:FORMATTED              ACCESS:SEQUENTIAL          

 OPENING supply2sf.cbc
 FILE TYPE:DATA(BINARY)   UNIT   50   STATUS:UNKNOWN
 FORMAT:BINARY                 ACCESS:SEQUENTIAL          

 OPENING supply2hd.bhd
 FILE TYPE:DATA(BINARY)   UNIT   51   STATUS:UNKNOWN
 FORMAT:BINARY                 ACCESS:SEQUENTIAL          

 BAS -- BASIC PACKAGE, VERSION 7, 5/2/2005 INPUT READ FROM UNIT   12
 
 MODFLOW was compiled using uniform precision
 Precision of REAL and DOUBLE PRECISION variables:          15

 DISCRETIZATION INPUT DATA READ FROM UNIT   11
    1 LAYERS        25 ROWS        30 COLUMNS
   12 STRESS PERIOD(S) IN SIMULATION
 MODEL TIME UNIT IS DAYS
 MODEL LENGTH UNIT IS UNDEFINED
  Confining bed flag for each layer:
   0

                     DELR =   200.000    

                     DELC =   200.000    

 TOP ELEVATION OF LAYER 1 =  100.0000    

   MODEL LAYER BOTTOM EL. =   0.00000     FOR LAYER   1


 STRESS PERIOD     LENGTH       TIME STEPS     MULTIPLIER FOR DELT    SS FLAG
 ----------------------------------------------------------------------------
        1         92.00000          1                    1.500         TR
        2         91.00000          1                    1.500         TR
        3         91.00000          1                    1.500         TR
        4         91.00000          1                    1.500         TR
        5         92.00000          1                    1.500         TR
        6         91.00000          1                    1.500         TR
        7         91.00000          1                    1.500         TR
        8         91.00000          1                    1.500         TR
        9         92.00000          1                    1.500         TR
       10         91.00000          1                    1.500         TR
       11         91.00000          1                    1.500         TR
       12         91.00000          1                    1.500         TR

 TRANSIENT SIMULATION



 
 #MODOFC transient water supply sample problem                                   
 #                                                                               
 THE FREE FORMAT OPTION HAS BEEN SELECTED



                     BOUNDARY ARRAY FOR LAYER   1
 READING ON UNIT   12 WITH FORMAT: (20I4)              

 AQUIFER HEAD WILL BE SET TO   0.0000     AT ALL NO-FLOW NODES (IBOUND=0).



                       INITIAL HEAD FOR LAYER   1
 READING ON UNIT   12 WITH FORMAT: (10F13.0)           

 OUTPUT CONTROL IS SPECIFIED ONLY AT TIME STEPS FOR WHICH OUTPUT IS DESIRED
 COMPACT CELL-BY-CELL BUDGET FILES WILL BE WRITTEN
 HEAD PRINT FORMAT CODE IS  18    DRAWDOWN PRINT FORMAT CODE IS   0
 HEADS WILL BE SAVED ON UNIT   51    DRAWDOWNS WILL BE SAVED ON UNIT    0

 BCF -- BLOCK-CENTERED FLOW PACKAGE, VERSION 7, 5/2/2005
         INPUT READ FROM UNIT 13
 TRANSIENT SIMULATION
 HEAD AT CELLS THAT CONVERT TO DRY=   0.0000    
 WETTING CAPABILITY IS NOT ACTIVE
      LAYER  LAYER-TYPE CODE     INTERBLOCK T
      --------------------------------------------
         1            0          0 -- HARMONIC    

 COLUMN TO ROW ANISOTROPY =  1.000000    

     PRIMARY STORAGE COEF =  5.000000E-02 FOR LAYER   1



               TRANSMIS. ALONG ROWS FOR LAYER   1
 READING ON UNIT   13 WITH FORMAT: (FREE)              

 WEL -- WELL PACKAGE, VERSION 7, 5/2/2005 INPUT READ FROM UNIT   19
 # Well package input file written by MMProc
 No named parameters
 MAXIMUM OF      4 ACTIVE WELLS AT ONE TIME


     0 Well parameters

 RCH -- RECHARGE PACKAGE, VERSION 7, 5/2/2005 INPUT READ FROM UNIT   15
 No named parameters
 OPTION 1 -- RECHARGE TO TOP LAYER


     0 Recharge parameters

 SFR7 -- STREAMFLOW ROUTING PACKAGE, VERSION 1.0.7, 2013-01-15
         INPUT READ FROM UNIT  16
 #  Supply2 test problem for GWM-VI
 #  The eighth entry in the first data line is ISTCB2 -
 #    Setting this to a negative number indicates that
 #    streamflows out of the reach will be saved to a
 #    binary file.  The absolute value of ISTCB2 is the
 #    unit to which unformatted flows will be written.
 #
 No named parameters
 Segment information will not be 
 read by reach
 No named parameters
 No specifed inflow files


 NUMBER OF STREAM REACHES IS   40

 NUMBER OF STREAM SEGMENTS IS    3

 NUMBER OF STREAM PARAMETERS IS    0

 NUMBER OF STREAM SEGMENTS DEFINED USING PARAMETERS IS              0

 MAXIMUM ERROR FOR STREAM LEAKAGE RATES IS  1.00E-04

 CONSTANT FOR MANNINGS EQUATION IS  1.2839E+05





   STREAM NETWORK DESCRIPTION: 

   LAYER    ROW    COL   SEGMENT   REACH     LENGTH
                          NUMBER   NUMBER    IN CELL        
   --------------------------------------------------
      1     13      1       1        1    2.0000E+02
      1     13      2       1        2    2.0000E+02
      1     14      3       1        3    2.0000E+02
      1     15      4       1        4    2.0000E+02
      1     16      5       1        5    2.0000E+02
      1     16      6       1        6    2.0000E+02
      1     16      7       1        7    2.0000E+02
      1     16      8       1        8    2.0000E+02
      1     16      9       1        9    2.0000E+02
      1     16     10       1       10    2.0000E+02
      1     16     11       1       11    2.0000E+02
      1     16     12       1       12    2.0000E+02
      1     15     13       1       13    2.0000E+02
      1     14     14       1       14    2.0000E+02
      1     13     15       1       15    2.0000E+02
      1     12     16       1       16    2.0000E+02
      1     12     17       1       17    2.0000E+02
      1     12     18       1       18    2.0000E+02
      1     12     19       1       19    2.0000E+02
      1     13     20       1       20    2.0000E+02
      1     14     21       1       21    2.0000E+02
      1     14     22       1       22    2.0000E+02
      1      9     30       2        1    2.0000E+02
      1      9     29       2        2    2.0000E+02
      1      9     28       2        3    2.0000E+02
      1      9     27       2        4    2.0000E+02
      1     10     26       2        5    2.0000E+02
      1     11     25       2        6    2.0000E+02
      1     12     24       2        7    2.0000E+02
      1     13     23       2        8    2.0000E+02
      1     14     22       2        9    2.0000E+02
      1     14     22       3        1    2.0000E+02
      1     15     23       3        2    2.0000E+02
      1     15     24       3        3    2.0000E+02
      1     15     25       3        4    2.0000E+02
      1     15     26       3        5    2.0000E+02
      1     16     27       3        6    2.0000E+02
      1     17     28       3        7    2.0000E+02
      1     18     29       3        8    2.0000E+02
      1     18     30       3        9    2.0000E+02




 PCG -- CONJUGATE-GRADIENT SOLUTION PACKAGE, VERSION 7, 5/2/2005
 MAXIMUM OF    500 CALLS OF SOLUTION ROUTINE
 MAXIMUM OF      5 INTERNAL ITERATIONS PER CALL TO SOLUTION ROUTINE
 MATRIX PRECONDITIONING TYPE :    1



                                    SOLUTION BY THE CONJUGATE-GRADIENT METHOD
                                   -------------------------------------------
                    MAXIMUM NUMBER OF CALLS TO PCG ROUTINE =      500
                        MAXIMUM ITERATIONS PER CALL TO PCG =        5
                               MATRIX PRECONDITIONING TYPE =        1
        RELAXATION FACTOR (ONLY USED WITH PRECOND. TYPE 1) =    0.10000E+01
 PARAMETER OF POLYNOMIAL PRECOND. = 2 (2) OR IS CALCULATED :        0
                         HEAD CHANGE CRITERION FOR CLOSURE =    0.10000E-05
                     RESIDUAL CHANGE CRITERION FOR CLOSURE =    0.10000E+01
            PCG HEAD AND RESIDUAL CHANGE PRINTOUT INTERVAL =        1
     PRINTING FROM SOLVER IS LIMITED(1) OR SUPPRESSED (>1) =        1
                            STEADY-STATE DAMPING PARAMETER =    0.10000E+01
                               TRANSIENT DAMPING PARAMETER =    0.10000E+01
1
                            STRESS PERIOD NO.    1, LENGTH =   92.00000    
                            -----------------------------------------------

                              NUMBER OF TIME STEPS =     1

                               MULTIPLIER FOR DELT =     1.500

                            INITIAL TIME STEP SIZE =   92.00000    

 WELL NO.  LAYER   ROW   COL   STRESS RATE         
 --------------------------------------------------
      1      1      8     16     -0.1474E+05
      2      1     14     29      -8048.    
      3      1     19     28      -9398.    
      4      1     18      3      -9037.    

      4 WELLS

                 RECHARGE =  5.000000E-04



 CLASSIFICATION & COUNT OF STREAM SEGMENTS BASED ON SOURCE OF INFLOW:

                HEADWATER     DIVERSION     RECEIVES TRIBUTARY FLOW
                ---------     ---------     -----------------------
                     2              0               1



                    INPUT DATA FOR EACH STREAM SEGMENT
 ---------------------------------------------------------------------------------------------

 SEGMENT    SEG.     INFLOW   OVERLAND   STREAM    STREAM   ICALC  OUTFLOW  DIVERSION PRIORITY
    NO.    LENGTH     RATE     RUNOFF      ET       PPT.    METH.  TO SEG.  FROM SEG.    NO.

      1  4.400E+03 1.000E+05 0.000E+00 0.000E+00 0.000E+00    1        3        0        0
      2  1.800E+03 5.000E+04 0.000E+00 0.000E+00 0.000E+00    1        3        0        0
      3  1.800E+03 0.000E+00 0.000E+00 0.000E+00 0.000E+00    1        0        0        0


         STREAMBED PROPERTIES AND STREAM DIMENSIONS

 SEGMENT     BED HYD. COND.      BED THICKNESS     ELEV.-TOP OF BED     WIDTH OF STREAM     DEPTH OF STREAM    STREAM ROUGHNESS
    No.     UPPER     LOWER     UPPER     LOWER     UPPER     LOWER     UPPER     LOWER     UPPER     LOWER   CHANNEL      BANK

     1  5.000E+00 5.000E+00 1.000E+00 1.000E+00 4.850E+01 3.800E+01 2.000E+01 2.000E+01                     5.000E-02
     2  5.000E+00 5.000E+00 1.000E+00 1.000E+00 4.025E+01 3.800E+01 2.000E+01 2.000E+01                     5.000E-02
     3  5.000E+00 5.000E+00 1.000E+00 1.000E+00 3.800E+01 3.000E+01 2.000E+01 2.000E+01                     5.000E-02



 
 SOLVING FOR HEAD 


     9 CALLS TO PCG ROUTINE FOR TIME STEP   1 IN STRESS PERIOD    1
    36 TOTAL ITERATIONS

 OUTPUT CONTROL FOR STRESS PERIOD    1   TIME STEP    1
    SAVE BUDGET
    SAVE HEAD FOR ALL LAYERS
    PRINT HEAD FOR ALL LAYERS
 UBDSV2 SAVING "STREAMFLOW OUT  " ON UNIT  50 AT TIME STEP  1, STRESS PERIOD   1



 STREAM LISTING     PERIOD      1   STEP        1

 LAYER ROW COL. STREAM  RCH.  FLOW INTO     FLOW TO   FLOW OUT OF   OVRLND.     DIRECT     STREAM       STREAM     STREAM     STREAM   STREAMBED  STREAMBED
                SEG.NO.  NO.  STRM. RCH.    AQUIFER    STRM. RCH.    RUNOFF     PRECIP       ET          HEAD       DEPTH      WIDTH   CONDCTNC.   GRADIENT

   1   13    1     1     1    1.0000E+05 -5.6376E+03   1.0564E+05  0.000E+00  0.000E+00  0.000E+00  4.84084E+01  1.471E-01  2.000E+01  2.000E+04 -2.819E-01
   1   13    2     1     2    1.0564E+05 -7.1251E+03   1.1276E+05  0.000E+00  0.000E+00  0.000E+00  4.79366E+01  1.525E-01  2.000E+01  2.000E+04 -3.563E-01
   1   14    3     1     3    1.1276E+05 -2.0320E+03   1.1479E+05  0.000E+00  0.000E+00  0.000E+00  4.74631E+01  1.563E-01  2.000E+01  2.000E+04 -1.016E-01
   1   15    4     1     4    1.1479E+05 -1.9864E+03   1.1678E+05  0.000E+00  0.000E+00  0.000E+00  4.69875E+01  1.580E-01  2.000E+01  2.000E+04 -9.932E-02
   1   16    5     1     5    1.1678E+05 -5.2698E+03   1.2205E+05  0.000E+00  0.000E+00  0.000E+00  4.65132E+01  1.609E-01  2.000E+01  2.000E+04 -2.635E-01
   1   16    6     1     6    1.2205E+05 -3.7685E+03   1.2582E+05  0.000E+00  0.000E+00  0.000E+00  4.60395E+01  1.645E-01  2.000E+01  2.000E+04 -1.884E-01
   1   16    7     1     7    1.2582E+05 -3.8356E+03   1.2965E+05  0.000E+00  0.000E+00  0.000E+00  4.55653E+01  1.675E-01  2.000E+01  2.000E+04 -1.918E-01
   1   16    8     1     8    1.2965E+05 -3.9095E+03   1.3356E+05  0.000E+00  0.000E+00  0.000E+00  4.50910E+01  1.706E-01  2.000E+01  2.000E+04 -1.955E-01
   1   16    9     1     9    1.3356E+05 -3.9650E+03   1.3753E+05  0.000E+00  0.000E+00  0.000E+00  4.46168E+01  1.736E-01  2.000E+01  2.000E+04 -1.982E-01
   1   16   10     1    10    1.3753E+05 -4.0021E+03   1.4153E+05  0.000E+00  0.000E+00  0.000E+00  4.41426E+01  1.767E-01  2.000E+01  2.000E+04 -2.001E-01
   1   16   11     1    11    1.4153E+05 -4.0606E+03   1.4559E+05  0.000E+00  0.000E+00  0.000E+00  4.36683E+01  1.797E-01  2.000E+01  2.000E+04 -2.030E-01
   1   16   12     1    12    1.4559E+05 -6.9129E+03   1.5251E+05  0.000E+00  0.000E+00  0.000E+00  4.31952E+01  1.838E-01  2.000E+01  2.000E+04 -3.456E-01
   1   15   13     1    13    1.5251E+05 -7.1617E+03   1.5967E+05  0.000E+00  0.000E+00  0.000E+00  4.27230E+01  1.889E-01  2.000E+01  2.000E+04 -3.581E-01
   1   14   14     1    14    1.5967E+05 -7.5245E+03   1.6719E+05  0.000E+00  0.000E+00  0.000E+00  4.22511E+01  1.942E-01  2.000E+01  2.000E+04 -3.762E-01
   1   13   15     1    15    1.6719E+05 -7.6113E+03   1.7480E+05  0.000E+00  0.000E+00  0.000E+00  4.17791E+01  1.996E-01  2.000E+01  2.000E+04 -3.806E-01
   1   12   16     1    16    1.7480E+05 -7.5764E+03   1.8238E+05  0.000E+00  0.000E+00  0.000E+00  4.13071E+01  2.049E-01  2.000E+01  2.000E+04 -3.788E-01
   1   12   17     1    17    1.8238E+05 -5.4984E+03   1.8788E+05  0.000E+00  0.000E+00  0.000E+00  4.08343E+01  2.093E-01  2.000E+01  2.000E+04 -2.749E-01
   1   12   18     1    18    1.8788E+05 -5.5271E+03   1.9340E+05  0.000E+00  0.000E+00  0.000E+00  4.03608E+01  2.130E-01  2.000E+01  2.000E+04 -2.764E-01
   1   12   19     1    19    1.9340E+05 -7.1564E+03   2.0056E+05  0.000E+00  0.000E+00  0.000E+00  3.98877E+01  2.173E-01  2.000E+01  2.000E+04 -3.578E-01
   1   13   20     1    20    2.0056E+05 -6.6655E+03   2.0723E+05  0.000E+00  0.000E+00  0.000E+00  3.94150E+01  2.218E-01  2.000E+01  2.000E+04 -3.333E-01
   1   14   21     1    21    2.0723E+05 -6.3657E+03   2.1359E+05  0.000E+00  0.000E+00  0.000E+00  3.89419E+01  2.260E-01  2.000E+01  2.000E+04 -3.183E-01
   1   14   22     1    22    2.1359E+05  3.6467E+03   2.0995E+05  0.000E+00  0.000E+00  0.000E+00  3.84655E+01  2.269E-01  2.000E+01  2.000E+04  1.823E-01
   1    9   30     2     1    5.0000E+04 -4.3176E+03   5.4318E+04  0.000E+00  0.000E+00  0.000E+00  4.02438E+01  1.188E-01  2.000E+01  2.000E+04 -2.159E-01
   1    9   29     2     2    5.4318E+04 -4.6526E+03   5.8970E+04  0.000E+00  0.000E+00  0.000E+00  3.99999E+01  1.249E-01  2.000E+01  2.000E+04 -2.326E-01
   1    9   28     2     3    5.8970E+04 -5.0266E+03   6.3997E+04  0.000E+00  0.000E+00  0.000E+00  3.97562E+01  1.312E-01  2.000E+01  2.000E+04 -2.513E-01
   1    9   27     2     4    6.3997E+04 -7.9652E+03   7.1962E+04  0.000E+00  0.000E+00  0.000E+00  3.95143E+01  1.393E-01  2.000E+01  2.000E+04 -3.983E-01
   1   10   26     2     5    7.1962E+04 -6.7926E+03   7.8755E+04  0.000E+00  0.000E+00  0.000E+00  3.92732E+01  1.482E-01  2.000E+01  2.000E+04 -3.396E-01
   1   11   25     2     6    7.8755E+04 -6.3177E+03   8.5072E+04  0.000E+00  0.000E+00  0.000E+00  3.90308E+01  1.558E-01  2.000E+01  2.000E+04 -3.159E-01
   1   12   24     2     7    8.5072E+04 -6.0130E+03   9.1085E+04  0.000E+00  0.000E+00  0.000E+00  3.87877E+01  1.627E-01  2.000E+01  2.000E+04 -3.006E-01
   1   13   23     2     8    9.1085E+04 -1.6217E+03   9.2707E+04  0.000E+00  0.000E+00  0.000E+00  3.85419E+01  1.669E-01  2.000E+01  2.000E+04 -8.109E-02
   1   14   22     2     9    9.2707E+04  1.9024E+02   9.2517E+04  0.000E+00  0.000E+00  0.000E+00  3.82927E+01  1.677E-01  2.000E+01  2.000E+04  9.512E-03
   1   14   22     3     1    3.0246E+05 -9.8438E+03   3.1231E+05  0.000E+00  0.000E+00  0.000E+00  3.77910E+01  2.355E-01  2.000E+01  2.000E+04 -4.922E-01
   1   15   23     3     2    3.1231E+05 -1.9789E+03   3.1428E+05  0.000E+00  0.000E+00  0.000E+00  3.69048E+01  2.382E-01  2.000E+01  2.000E+04 -9.895E-02
   1   15   24     3     3    3.1428E+05 -1.5187E+03   3.1580E+05  0.000E+00  0.000E+00  0.000E+00  3.60167E+01  2.390E-01  2.000E+01  2.000E+04 -7.594E-02
   1   15   25     3     4    3.1580E+05 -1.5540E+03   3.1736E+05  0.000E+00  0.000E+00  0.000E+00  3.51285E+01  2.397E-01  2.000E+01  2.000E+04 -7.770E-02
   1   15   26     3     5    3.1736E+05 -1.7145E+03   3.1907E+05  0.000E+00  0.000E+00  0.000E+00  3.42404E+01  2.404E-01  2.000E+01  2.000E+04 -8.572E-02
   1   16   27     3     6    3.1907E+05 -1.8010E+03   3.2087E+05  0.000E+00  0.000E+00  0.000E+00  3.33523E+01  2.412E-01  2.000E+01  2.000E+04 -9.005E-02
   1   17   28     3     7    3.2087E+05 -3.3073E+03   3.2418E+05  0.000E+00  0.000E+00  0.000E+00  3.24646E+01  2.423E-01  2.000E+01  2.000E+04 -1.654E-01
   1   18   29     3     8    3.2418E+05 -4.0467E+03   3.2823E+05  0.000E+00  0.000E+00  0.000E+00  3.15773E+01  2.440E-01  2.000E+01  2.000E+04 -2.023E-01
   1   18   30     3     9    3.2823E+05 -5.3159E+03   3.3354E+05  0.000E+00  0.000E+00  0.000E+00  3.06905E+01  2.461E-01  2.000E+01  2.000E+04 -2.658E-01



1
              HEAD IN LAYER   1 AT END OF TIME STEP   1 IN STRESS PERIOD    1
  ---------------------------------------------------------------------------

          1      2      3      4      5      6      7      8      9     10
         11     12     13     14     15     16     17     18     19     20
         21     22     23     24     25     26     27     28     29     30
 .........................................................................
   1  ****** ****** ****** ****** ****** ****** ****** ****** ****** ******
      ****** ****** ****** ****** ****** ****** ****** ****** ****** ******
      ****** ****** ****** ****** ****** ****** ****** ****** ****** ******
   2  ****** ****** ****** ****** ****** ****** ****** ****** ****** ******
      ****** ****** ****** ****** ****** ****** ****** ****** ****** ******
      ****** ****** ****** ****** ****** ****** ****** ****** ****** ******
   3  ****** ****** ****** ****** ****** ****** ****** ****** ****** ******
      ****** ****** ****** ****** ****** ****** ****** ****** ****** ******
      ****** ****** ****** ****** ****** ****** ****** ****** ****** ******
   4  ****** ****** ****** ****** ****** ****** ****** ****** ****** ******
      ****** ****** ****** ****** ****** ****** ****** ****** ****** ******
      ****** ****** ****** ****** ****** ****** ****** ****** ****** ******
   5  ****** ****** ****** ****** ****** ****** ****** ****** ****** ******
      ****** ****** ****** ****** ****** ****** ****** ****** ****** ******
      ****** ****** ****** ****** ****** ****** ****** ****** ****** ******
   6  ****** ****** ****** ****** ****** ****** ****** ****** ****** ******
      ****** ****** ****** ****** ****** ****** ****** ****** ****** ******
      ****** ****** ****** ****** ****** ****** ****** ****** ****** ******
   7  ****** ****** ****** ****** ****** ****** ****** ****** ****** ******
      ****** ****** ****** ****** ****** ****** ****** ****** ****** ******
      ****** ****** ****** ****** ****** ****** ****** ****** ****** ******
   8  ****** ****** ****** ****** ****** ****** ****** ****** ****** ******
      ****** ****** ****** ****** ****** ****** ****** ****** ****** ******
      ****** ****** ****** ****** ****** ****** ****** ****** ****** ******
   9  ****** ****** ****** ****** ****** ****** ****** ****** ****** ******
      ****** ****** ****** ****** ****** ****** ****** ****** ****** ******
      ****** ****** ****** ****** ****** ****** ****** ****** ****** ******
  10  ****** ****** ****** ****** ****** ****** ****** ****** ****** ******
      ****** ****** ****** ****** ****** ****** ****** ****** ****** ******
      ****** ****** ****** ****** ****** ****** ****** ****** ****** ******
  11  ****** ****** ****** ****** ****** ****** ****** ****** ****** ******
      ****** ****** ****** ****** ****** ****** ****** ****** ****** ******
      ****** ****** ****** ****** ****** ****** ****** ****** ****** ******
  12  ****** ****** ****** ****** ****** ****** ****** ****** ****** ******
      ****** ****** ****** ****** ****** ****** ****** ****** ****** ******
      ****** ****** ****** ****** ****** ****** ****** ****** ****** ******
  13  ****** ****** ****** ****** ****** ****** ****** ****** ****** ******
      ****** ****** ****** ****** ****** ****** ****** ****** ****** ******
      ****** ****** ****** ****** ****** ****** ****** ****** ****** ******
  14  ****** ****** ****** ****** ****** ****** ****** ****** ****** ******
      ****** ****** ****** ****** ****** ****** ****** ****** ****** ******
      ****** ****** ****** ****** ****** ****** ****** ****** ****** ******
  15  ****** ****** ****** ****** ****** ****** ****** ****** ****** ******
      ****** ****** ****** ****** ****** ****** ****** ****** ****** ******
      ****** ****** ****** ****** ****** ****** ****** ****** ****** ******
  16  ****** ****** ****** ****** ****** ****** ****** ****** ****** ******
      ****** ****** ****** ****** ****** ****** ****** ****** ****** ******
      ****** ****** ****** ****** ****** ****** ****** ****** ****** ******
  17  ****** ****** ****** ****** ****** ****** ****** ****** ****** ******
      ****** ****** ****** ****** ****** ****** ****** ****** ****** ******
      ****** ****** ****** ****** ****** ****** ****** ****** ****** ******
  18  ****** ****** ****** ****** ****** ****** ****** ****** ****** ******
      ****** ****** ****** ****** ****** ****** ****** ****** ****** ******
      ****** ****** ****** ****** ****** ****** ****** ****** ****** ******
  19  ****** ****** ****** ****** ****** ****** ****** ****** ****** ******
      ****** ****** ****** ****** ****** ****** ****** ****** ****** ******
      ****** ****** ****** ****** ****** ****** ****** ****** ****** ******
  20  ****** ****** ****** ****** ****** ****** ****** ****** ****** ******
      ****** ****** ****** ****** ****** ****** ****** ****** ****** ******
      ****** ****** ****** ****** ****** ****** ****** ****** ****** ******
  21  ****** ****** ****** ****** ****** ****** ****** ****** ****** ******
      ****** ****** ****** ****** ****** ****** ****** ****** ****** ******
      ****** ****** ****** ****** ****** ****** ****** ****** ****** ******
  22  ****** ****** ****** ****** ****** ****** ****** ****** ****** ******
      ****** ****** ****** ****** ****** ****** ****** ****** ****** ******
      ****** ****** ****** ****** ****** ****** ****** ****** ****** ******
  23  ****** ****** ****** ****** ****** ****** ****** ****** ****** ******
      ****** ****** ****** ****** ****** ****** ****** ****** ****** ******
      ****** ****** ****** ****** ****** ****** ****** ****** ****** ******
  24  ****** ****** ****** ****** ****** ****** ****** ****** ****** ******
      ****** ****** ****** ****** ****** ****** ****** ****** ****** ******
      ****** ****** ****** ****** ****** ****** ****** ****** ****** ******
  25  ****** ****** ****** ****** ****** ****** ****** ****** ****** ******
      ****** ****** ****** ****** ****** ****** ****** ****** ****** ******
      ****** ****** ****** ****** ****** ****** ****** ****** ****** ******

 HEAD WILL BE SAVED ON UNIT   51 AT END OF TIME STEP    1, STRESS PERIOD    1
1
  VOLUMETRIC BUDGET FOR ENTIRE MODEL AT END OF TIME STEP    1, STRESS PERIOD   1
  ------------------------------------------------------------------------------

     CUMULATIVE VOLUMES      L**3       RATES FOR THIS TIME STEP      L**3/T
     ------------------                 ------------------------

           IN:                                      IN:
           ---                                      ---
             STORAGE =    18230502.2202               STORAGE =      198157.6328
       CONSTANT HEAD =     1177998.5870         CONSTANT HEAD =       12804.3325
               WELLS =           0.0000                 WELLS =           0.0000
            RECHARGE =     1269600.0000              RECHARGE =       13800.0000
      STREAM LEAKAGE =      353001.4691        STREAM LEAKAGE =        3836.9725

            TOTAL IN =    21031102.2763              TOTAL IN =      228598.9378

          OUT:                                     OUT:
          ----                                     ----
             STORAGE =           0.0000               STORAGE =           0.0000
       CONSTANT HEAD =           0.0000         CONSTANT HEAD =           0.0000
               WELLS =     3792128.6972                 WELLS =       41218.7902
            RECHARGE =           0.0000              RECHARGE =           0.0000
      STREAM LEAKAGE =    17238973.8865        STREAM LEAKAGE =      187380.1509

           TOTAL OUT =    21031102.5837             TOTAL OUT =      228598.9411

            IN - OUT =          -0.3074              IN - OUT =      -3.3417E-03

 PERCENT DISCREPANCY =          -0.00     PERCENT DISCREPANCY =          -0.00






         TIME SUMMARY AT END OF TIME STEP    1 IN STRESS PERIOD    1
                    SECONDS     MINUTES      HOURS       DAYS        YEARS
                    -----------------------------------------------------------
   TIME STEP LENGTH 7.94880E+06 1.32480E+05  2208.0      92.000     0.25188    
 STRESS PERIOD TIME 7.94880E+06 1.32480E+05  2208.0      92.000     0.25188    
         TOTAL TIME 7.94880E+06 1.32480E+05  2208.0      92.000     0.25188    
1
1
                            STRESS PERIOD NO.    2, LENGTH =   91.00000    
                            -----------------------------------------------

                              NUMBER OF TIME STEPS =     1

                               MULTIPLIER FOR DELT =     1.500

                            INITIAL TIME STEP SIZE =   91.00000    

 WELL NO.  LAYER   ROW   COL   STRESS RATE         
 --------------------------------------------------
      1      1      8     16     -0.1474E+05
      2      1     14     29      -8048.    
      3      1     19     28      -9398.    
      4      1     18      3      -9037.    

      4 WELLS

                 RECHARGE =  2.000000E-03

 REUSING STREAM SEGMENT DATA FROM LAST STRESS PERIOD
 
 SOLVING FOR HEAD 


     7 CALLS TO PCG ROUTINE FOR TIME STEP   1 IN STRESS PERIOD    2
    27 TOTAL ITERATIONS

 OUTPUT CONTROL FOR STRESS PERIOD    2   TIME STEP    1
    SAVE BUDGET
    SAVE HEAD FOR ALL LAYERS
    PRINT HEAD FOR ALL LAYERS
 UBDSV2 SAVING "STREAMFLOW OUT  " ON UNIT  50 AT TIME STEP  1, STRESS PERIOD   2



 STREAM LISTING     PERIOD      2   STEP        1

 LAYER ROW COL. STREAM  RCH.  FLOW INTO     FLOW TO   FLOW OUT OF   OVRLND.     DIRECT     STREAM       STREAM     STREAM     STREAM   STREAMBED  STREAMBED
                SEG.NO.  NO.  STRM. RCH.    AQUIFER    STRM. RCH.    RUNOFF     PRECIP       ET          HEAD       DEPTH      WIDTH   CONDCTNC.   GRADIENT

   1   13    1     1     1    1.0000E+05 -3.3054E+03   1.0331E+05  0.000E+00  0.000E+00  0.000E+00  4.84074E+01  1.461E-01  2.000E+01  2.000E+04 -1.653E-01
   1   13    2     1     2    1.0331E+05 -4.5938E+03   1.0790E+05  0.000E+00  0.000E+00  0.000E+00  4.79336E+01  1.495E-01  2.000E+01  2.000E+04 -2.297E-01
   1   14    3     1     3    1.0790E+05 -8.8087E+02   1.0878E+05  0.000E+00  0.000E+00  0.000E+00  4.74586E+01  1.518E-01  2.000E+01  2.000E+04 -4.404E-02
   1   15    4     1     4    1.0878E+05 -7.6652E+02   1.0955E+05  0.000E+00  0.000E+00  0.000E+00  4.69820E+01  1.525E-01  2.000E+01  2.000E+04 -3.833E-02
   1   16    5     1     5    1.0955E+05 -1.7518E+03   1.1130E+05  0.000E+00  0.000E+00  0.000E+00  4.65058E+01  1.535E-01  2.000E+01  2.000E+04 -8.759E-02
   1   16    6     1     6    1.1130E+05 -1.7669E+03   1.1307E+05  0.000E+00  0.000E+00  0.000E+00  4.60300E+01  1.550E-01  2.000E+01  2.000E+04 -8.834E-02
   1   16    7     1     7    1.1307E+05 -1.9677E+03   1.1503E+05  0.000E+00  0.000E+00  0.000E+00  4.55543E+01  1.565E-01  2.000E+01  2.000E+04 -9.839E-02
   1   16    8     1     8    1.1503E+05 -2.0906E+03   1.1712E+05  0.000E+00  0.000E+00  0.000E+00  4.50786E+01  1.582E-01  2.000E+01  2.000E+04 -1.045E-01
   1   16    9     1     9    1.1712E+05 -2.1618E+03   1.1929E+05  0.000E+00  0.000E+00  0.000E+00  4.46031E+01  1.599E-01  2.000E+01  2.000E+04 -1.081E-01
   1   16   10     1    10    1.1929E+05 -2.1956E+03   1.2148E+05  0.000E+00  0.000E+00  0.000E+00  4.41276E+01  1.617E-01  2.000E+01  2.000E+04 -1.098E-01
   1   16   11     1    11    1.2148E+05 -2.2373E+03   1.2372E+05  0.000E+00  0.000E+00  0.000E+00  4.36521E+01  1.635E-01  2.000E+01  2.000E+04 -1.119E-01
   1   16   12     1    12    1.2372E+05 -3.9659E+03   1.2768E+05  0.000E+00  0.000E+00  0.000E+00  4.31773E+01  1.659E-01  2.000E+01  2.000E+04 -1.983E-01
   1   15   13     1    13    1.2768E+05 -3.8428E+03   1.3153E+05  0.000E+00  0.000E+00  0.000E+00  4.27031E+01  1.690E-01  2.000E+01  2.000E+04 -1.921E-01
   1   14   14     1    14    1.3153E+05 -4.0376E+03   1.3556E+05  0.000E+00  0.000E+00  0.000E+00  4.22289E+01  1.721E-01  2.000E+01  2.000E+04 -2.019E-01
   1   13   15     1    15    1.3556E+05 -4.0545E+03   1.3962E+05  0.000E+00  0.000E+00  0.000E+00  4.17547E+01  1.752E-01  2.000E+01  2.000E+04 -2.027E-01
   1   12   16     1    16    1.3962E+05 -4.0435E+03   1.4366E+05  0.000E+00  0.000E+00  0.000E+00  4.12805E+01  1.783E-01  2.000E+01  2.000E+04 -2.022E-01
   1   12   17     1    17    1.4366E+05 -2.7769E+03   1.4644E+05  0.000E+00  0.000E+00  0.000E+00  4.08058E+01  1.808E-01  2.000E+01  2.000E+04 -1.388E-01
   1   12   18     1    18    1.4644E+05 -2.8386E+03   1.4928E+05  0.000E+00  0.000E+00  0.000E+00  4.03306E+01  1.829E-01  2.000E+01  2.000E+04 -1.419E-01
   1   12   19     1    19    1.4928E+05 -3.8331E+03   1.5311E+05  0.000E+00  0.000E+00  0.000E+00  3.98558E+01  1.854E-01  2.000E+01  2.000E+04 -1.917E-01
   1   13   20     1    20    1.5311E+05 -3.4933E+03   1.5660E+05  0.000E+00  0.000E+00  0.000E+00  3.93812E+01  1.881E-01  2.000E+01  2.000E+04 -1.747E-01
   1   14   21     1    21    1.5660E+05 -3.6234E+03   1.6023E+05  0.000E+00  0.000E+00  0.000E+00  3.89065E+01  1.906E-01  2.000E+01  2.000E+04 -1.812E-01
   1   14   22     1    22    1.6023E+05  4.4023E+03   1.5583E+05  0.000E+00  0.000E+00  0.000E+00  3.84290E+01  1.904E-01  2.000E+01  2.000E+04  2.201E-01
   1    9   30     2     1    5.0000E+04 -1.4271E+03   5.1427E+04  0.000E+00  0.000E+00  0.000E+00  4.02419E+01  1.169E-01  2.000E+01  2.000E+04 -7.136E-02
   1    9   29     2     2    5.1427E+04 -1.7864E+03   5.3213E+04  0.000E+00  0.000E+00  0.000E+00  3.99941E+01  1.191E-01  2.000E+01  2.000E+04 -8.932E-02
   1    9   28     2     3    5.3213E+04 -2.1992E+03   5.5413E+04  0.000E+00  0.000E+00  0.000E+00  3.97468E+01  1.218E-01  2.000E+01  2.000E+04 -1.100E-01
   1    9   27     2     4    5.5413E+04 -4.3698E+03   5.9782E+04  0.000E+00  0.000E+00  0.000E+00  3.95011E+01  1.261E-01  2.000E+01  2.000E+04 -2.185E-01
   1   10   26     2     5    5.9782E+04 -2.9911E+03   6.2774E+04  0.000E+00  0.000E+00  0.000E+00  3.92559E+01  1.309E-01  2.000E+01  2.000E+04 -1.496E-01
   1   11   25     2     6    6.2774E+04 -2.6902E+03   6.5464E+04  0.000E+00  0.000E+00  0.000E+00  3.90095E+01  1.345E-01  2.000E+01  2.000E+04 -1.345E-01
   1   12   24     2     7    6.5464E+04 -2.8002E+03   6.8264E+04  0.000E+00  0.000E+00  0.000E+00  3.87629E+01  1.379E-01  2.000E+01  2.000E+04 -1.400E-01
   1   13   23     2     8    6.8264E+04 -5.6386E+02   6.8828E+04  0.000E+00  0.000E+00  0.000E+00  3.85150E+01  1.400E-01  2.000E+01  2.000E+04 -2.819E-02
   1   14   22     2     9    6.8828E+04  1.1159E+03   6.7712E+04  0.000E+00  0.000E+00  0.000E+00  3.82647E+01  1.397E-01  2.000E+01  2.000E+04  5.580E-02
   1   14   22     3     1    2.2354E+05 -9.1290E+03   2.3267E+05  0.000E+00  0.000E+00  0.000E+00  3.77524E+01  1.969E-01  2.000E+01  2.000E+04 -4.565E-01
   1   15   23     3     2    2.3267E+05 -1.0327E+03   2.3370E+05  0.000E+00  0.000E+00  0.000E+00  3.68662E+01  1.995E-01  2.000E+01  2.000E+04 -5.164E-02
   1   15   24     3     3    2.3370E+05 -6.4280E+02   2.3434E+05  0.000E+00  0.000E+00  0.000E+00  3.59777E+01  1.999E-01  2.000E+01  2.000E+04 -3.214E-02
   1   15   25     3     4    2.3434E+05 -6.2657E+02   2.3497E+05  0.000E+00  0.000E+00  0.000E+00  3.50891E+01  2.002E-01  2.000E+01  2.000E+04 -3.133E-02
   1   15   26     3     5    2.3497E+05 -5.3703E+02   2.3551E+05  0.000E+00  0.000E+00  0.000E+00  3.42005E+01  2.005E-01  2.000E+01  2.000E+04 -2.685E-02
   1   16   27     3     6    2.3551E+05 -4.2935E+02   2.3594E+05  0.000E+00  0.000E+00  0.000E+00  3.33119E+01  2.008E-01  2.000E+01  2.000E+04 -2.147E-02
   1   17   28     3     7    2.3594E+05  5.8951E+02   2.3535E+05  0.000E+00  0.000E+00  0.000E+00  3.24230E+01  2.007E-01  2.000E+01  2.000E+04  2.948E-02
   1   18   29     3     8    2.3535E+05 -5.2093E+02   2.3587E+05  0.000E+00  0.000E+00  0.000E+00  3.15341E+01  2.007E-01  2.000E+01  2.000E+04 -2.605E-02
   1   18   30     3     9    2.3587E+05 -2.3992E+03   2.3827E+05  0.000E+00  0.000E+00  0.000E+00  3.06459E+01  2.015E-01  2.000E+01  2.000E+04 -1.200E-01



1
              HEAD IN LAYER   1 AT END OF TIME STEP   1 IN STRESS PERIOD    2
  ---------------------------------------------------------------------------

          1      2      3      4      5      6      7      8      9     10
         11     12     13     14     15     16     17     18     19     20
         21     22     23     24     25     26     27     28     29     30
 .........................................................................
   1  ****** ****** ****** ****** ****** ****** ****** ****** ****** ******
      ****** ****** ****** ****** ****** ****** ****** ****** ****** ******
      ****** ****** ****** ****** ****** ****** ****** ****** ****** ******
   2  ****** ****** ****** ****** ****** ****** ****** ****** ****** ******
      ****** ****** ****** ****** ****** ****** ****** ****** ****** ******
      ****** ****** ****** ****** ****** ****** ****** ****** ****** ******
   3  ****** ****** ****** ****** ****** ****** ****** ****** ****** ******
      ****** ****** ****** ****** ****** ****** ****** ****** ****** ******
      ****** ****** ****** ****** ****** ****** ****** ****** ****** ******
   4  ****** ****** ****** ****** ****** ****** ****** ****** ****** ******
      ****** ****** ****** ****** ****** ****** ****** ****** ****** ******
      ****** ****** ****** ****** ****** ****** ****** ****** ****** ******
   5  ****** ****** ****** ****** ****** ****** ****** ****** ****** ******
      ****** ****** ****** ****** ****** ****** ****** ****** ****** ******
      ****** ****** ****** ****** ****** ****** ****** ****** ****** ******
   6  ****** ****** ****** ****** ****** ****** ****** ****** ****** ******
      ****** ****** ****** ****** ****** ****** ****** ****** ****** ******
      ****** ****** ****** ****** ****** ****** ****** ****** ****** ******
   7  ****** ****** ****** ****** ****** ****** ****** ****** ****** ******
      ****** ****** ****** ****** ****** ****** ****** ****** ****** ******
      ****** ****** ****** ****** ****** ****** ****** ****** ****** ******
   8  ****** ****** ****** ****** ****** ****** ****** ****** ****** ******
      ****** ****** ****** ****** ****** ****** ****** ****** ****** ******
      ****** ****** ****** ****** ****** ****** ****** ****** ****** ******
   9  ****** ****** ****** ****** ****** ****** ****** ****** ****** ******
      ****** ****** ****** ****** ****** ****** ****** ****** ****** ******
      ****** ****** ****** ****** ****** ****** ****** ****** ****** ******
  10  ****** ****** ****** ****** ****** ****** ****** ****** ****** ******
      ****** ****** ****** ****** ****** ****** ****** ****** ****** ******
      ****** ****** ****** ****** ****** ****** ****** ****** ****** ******
  11  ****** ****** ****** ****** ****** ****** ****** ****** ****** ******
      ****** ****** ****** ****** ****** ****** ****** ****** ****** ******
      ****** ****** ****** ****** ****** ****** ****** ****** ****** ******
  12  ****** ****** ****** ****** ****** ****** ****** ****** ****** ******
      ****** ****** ****** ****** ****** ****** ****** ****** ****** ******
      ****** ****** ****** ****** ****** ****** ****** ****** ****** ******
  13  ****** ****** ****** ****** ****** ****** ****** ****** ****** ******
      ****** ****** ****** ****** ****** ****** ****** ****** ****** ******
      ****** ****** ****** ****** ****** ****** ****** ****** ****** ******
  14  ****** ****** ****** ****** ****** ****** ****** ****** ****** ******
      ****** ****** ****** ****** ****** ****** ****** ****** ****** ******
      ****** ****** ****** ****** ****** ****** ****** ****** ****** ******
  15  ****** ****** ****** ****** ****** ****** ****** ****** ****** ******
      ****** ****** ****** ****** ****** ****** ****** ****** ****** ******
      ****** ****** ****** ****** ****** ****** ****** ****** ****** ******
  16  ****** ****** ****** ****** ****** ****** ****** ****** ****** ******
      ****** ****** ****** ****** ****** ****** ****** ****** ****** ******
      ****** ****** ****** ****** ****** ****** ****** ****** ****** ******
  17  ****** ****** ****** ****** ****** ****** ****** ****** ****** ******
      ****** ****** ****** ****** ****** ****** ****** ****** ****** ******
      ****** ****** ****** ****** ****** ****** ****** ****** ****** ******
  18  ****** ****** ****** ****** ****** ****** ****** ****** ****** ******
      ****** ****** ****** ****** ****** ****** ****** ****** ****** ******
      ****** ****** ****** ****** ****** ****** ****** ****** ****** ******
  19  ****** ****** ****** ****** ****** ****** ****** ****** ****** ******
      ****** ****** ****** ****** ****** ****** ****** ****** ****** ******
      ****** ****** ****** ****** ****** ****** ****** ****** ****** ******
  20  ****** ****** ****** ****** ****** ****** ****** ****** ****** ******
      ****** ****** ****** ****** ****** ****** ****** ****** ****** ******
      ****** ****** ****** ****** ****** ****** ****** ****** ****** ******
  21  ****** ****** ****** ****** ****** ****** ****** ****** ****** ******
      ****** ****** ****** ****** ****** ****** ****** ****** ****** ******
      ****** ****** ****** ****** ****** ****** ****** ****** ****** ******
  22  ****** ****** ****** ****** ****** ****** ****** ****** ****** ******
      ****** ****** ****** ****** ****** ****** ****** ****** ****** ******
      ****** ****** ****** ****** ****** ****** ****** ****** ****** ******
  23  ****** ****** ****** ****** ****** ****** ****** ****** ****** ******
      ****** ****** ****** ****** ****** ****** ****** ****** ****** ******
      ****** ****** ****** ****** ****** ****** ****** ****** ****** ******
  24  ****** ****** ****** ****** ****** ****** ****** ****** ****** ******
      ****** ****** ****** ****** ****** ****** ****** ****** ****** ******
      ****** ****** ****** ****** ****** ****** ****** ****** ****** ******
  25  ****** ****** ****** ****** ****** ****** ****** ****** ****** ******
      ****** ****** ****** ****** ****** ****** ****** ****** ****** ******
      ****** ****** ****** ****** ****** ****** ****** ****** ****** ******

 HEAD WILL BE SAVED ON UNIT   51 AT END OF TIME STEP    1, STRESS PERIOD    2
1
  VOLUMETRIC BUDGET FOR ENTIRE MODEL AT END OF TIME STEP    1, STRESS PERIOD   2
  ------------------------------------------------------------------------------

     CUMULATIVE VOLUMES      L**3       RATES FOR THIS TIME STEP      L**3/T
     ------------------                 ------------------------

           IN:                                      IN:
           ---                                      ---
             STORAGE =    23386219.8295               STORAGE =       56656.2375
       CONSTANT HEAD =     2782162.7495         CONSTANT HEAD =       17628.1776
               WELLS =           0.0000                 WELLS =           0.0000
            RECHARGE =     6292800.0000              RECHARGE =       55200.0000
      STREAM LEAKAGE =      908804.0976        STREAM LEAKAGE =        6107.7212

            TOTAL IN =    33369986.6766              TOTAL IN =      135592.1363

          OUT:                                     OUT:
          ----                                     ----
             STORAGE =           0.0000               STORAGE =           0.0000
       CONSTANT HEAD =           0.0000         CONSTANT HEAD =           0.0000
               WELLS =     7543038.6043                 WELLS =       41218.7902
            RECHARGE =           0.0000              RECHARGE =           0.0000
      STREAM LEAKAGE =    25826949.4315        STREAM LEAKAGE =       94373.3576

           TOTAL OUT =    33369988.0358             TOTAL OUT =      135592.1478

            IN - OUT =          -1.3591              IN - OUT =      -1.1557E-02

 PERCENT DISCREPANCY =          -0.00     PERCENT DISCREPANCY =          -0.00






         TIME SUMMARY AT END OF TIME STEP    1 IN STRESS PERIOD    2
                    SECONDS     MINUTES      HOURS       DAYS        YEARS
                    -----------------------------------------------------------
   TIME STEP LENGTH 7.86240E+06 1.31040E+05  2184.0      91.000     0.24914    
 STRESS PERIOD TIME 7.86240E+06 1.31040E+05  2184.0      91.000     0.24914    
         TOTAL TIME 1.58112E+07 2.63520E+05  4392.0      183.00     0.50103    
1
1
                            STRESS PERIOD NO.    3, LENGTH =   91.00000    
                            -----------------------------------------------

                              NUMBER OF TIME STEPS =     1

                               MULTIPLIER FOR DELT =     1.500

                            INITIAL TIME STEP SIZE =   91.00000    

 WELL NO.  LAYER   ROW   COL   STRESS RATE         
 --------------------------------------------------
      1      1      8     16     -0.1474E+05
      2      1     14     29      -8048.    
      3      1     19     28      -9398.    
      4      1     18      3      -9037.    

      4 WELLS

                 RECHARGE =   0.00000    

 REUSING STREAM SEGMENT DATA FROM LAST STRESS PERIOD
 
 SOLVING FOR HEAD 


     7 CALLS TO PCG ROUTINE FOR TIME STEP   1 IN STRESS PERIOD    3
    27 TOTAL ITERATIONS

 OUTPUT CONTROL FOR STRESS PERIOD    3   TIME STEP    1
    SAVE BUDGET
    SAVE HEAD FOR ALL LAYERS
    PRINT HEAD FOR ALL LAYERS
 UBDSV2 SAVING "STREAMFLOW OUT  " ON UNIT  50 AT TIME STEP  1, STRESS PERIOD   3



 STREAM LISTING     PERIOD      3   STEP        1

 LAYER ROW COL. STREAM  RCH.  FLOW INTO     FLOW TO   FLOW OUT OF   OVRLND.     DIRECT     STREAM       STREAM     STREAM     STREAM   STREAMBED  STREAMBED
                SEG.NO.  NO.  STRM. RCH.    AQUIFER    STRM. RCH.    RUNOFF     PRECIP       ET          HEAD       DEPTH      WIDTH   CONDCTNC.   GRADIENT

   1   13    1     1     1    1.0000E+05 -1.9604E+03   1.0196E+05  0.000E+00  0.000E+00  0.000E+00  4.84069E+01  1.455E-01  2.000E+01  2.000E+04 -9.802E-02
   1   13    2     1     2    1.0196E+05 -3.0969E+03   1.0506E+05  0.000E+00  0.000E+00  0.000E+00  4.79318E+01  1.477E-01  2.000E+01  2.000E+04 -1.548E-01
   1   14    3     1     3    1.0506E+05 -3.9361E+02   1.0545E+05  0.000E+00  0.000E+00  0.000E+00  4.74560E+01  1.492E-01  2.000E+01  2.000E+04 -1.968E-02
   1   15    4     1     4    1.0545E+05 -2.2718E+02   1.0568E+05  0.000E+00  0.000E+00  0.000E+00  4.69790E+01  1.494E-01  2.000E+01  2.000E+04 -1.136E-02
   1   16    5     1     5    1.0568E+05  2.5607E+02   1.0542E+05  0.000E+00  0.000E+00  0.000E+00  4.65017E+01  1.494E-01  2.000E+01  2.000E+04  1.280E-02
   1   16    6     1     6    1.0542E+05 -6.7973E+02   1.0610E+05  0.000E+00  0.000E+00  0.000E+00  4.60246E+01  1.496E-01  2.000E+01  2.000E+04 -3.399E-02
   1   16    7     1     7    1.0610E+05 -9.5862E+02   1.0706E+05  0.000E+00  0.000E+00  0.000E+00  4.55480E+01  1.503E-01  2.000E+01  2.000E+04 -4.793E-02
   1   16    8     1     8    1.0706E+05 -1.1119E+03   1.0817E+05  0.000E+00  0.000E+00  0.000E+00  4.50716E+01  1.512E-01  2.000E+01  2.000E+04 -5.560E-02
   1   16    9     1     9    1.0817E+05 -1.1970E+03   1.0937E+05  0.000E+00  0.000E+00  0.000E+00  4.45953E+01  1.521E-01  2.000E+01  2.000E+04 -5.985E-02
   1   16   10     1    10    1.0937E+05 -1.2387E+03   1.1061E+05  0.000E+00  0.000E+00  0.000E+00  4.41191E+01  1.532E-01  2.000E+01  2.000E+04 -6.194E-02
   1   16   11     1    11    1.1061E+05 -1.2804E+03   1.1189E+05  0.000E+00  0.000E+00  0.000E+00  4.36428E+01  1.542E-01  2.000E+01  2.000E+04 -6.402E-02
   1   16   12     1    12    1.1189E+05 -2.3120E+03   1.1420E+05  0.000E+00  0.000E+00  0.000E+00  4.31671E+01  1.557E-01  2.000E+01  2.000E+04 -1.156E-01
   1   15   13     1    13    1.1420E+05 -2.1394E+03   1.1634E+05  0.000E+00  0.000E+00  0.000E+00  4.26916E+01  1.575E-01  2.000E+01  2.000E+04 -1.070E-01
   1   14   14     1    14    1.1634E+05 -2.2675E+03   1.1861E+05  0.000E+00  0.000E+00  0.000E+00  4.22161E+01  1.593E-01  2.000E+01  2.000E+04 -1.134E-01
   1   13   15     1    15    1.1861E+05 -2.2547E+03   1.2086E+05  0.000E+00  0.000E+00  0.000E+00  4.17407E+01  1.612E-01  2.000E+01  2.000E+04 -1.127E-01
   1   12   16     1    16    1.2086E+05 -2.1300E+03   1.2299E+05  0.000E+00  0.000E+00  0.000E+00  4.12652E+01  1.629E-01  2.000E+01  2.000E+04 -1.065E-01
   1   12   17     1    17    1.2299E+05 -1.4165E+03   1.2441E+05  0.000E+00  0.000E+00  0.000E+00  4.07893E+01  1.643E-01  2.000E+01  2.000E+04 -7.082E-02
   1   12   18     1    18    1.2441E+05 -1.5077E+03   1.2592E+05  0.000E+00  0.000E+00  0.000E+00  4.03132E+01  1.655E-01  2.000E+01  2.000E+04 -7.538E-02
   1   12   19     1    19    1.2592E+05 -2.1643E+03   1.2808E+05  0.000E+00  0.000E+00  0.000E+00  3.98374E+01  1.670E-01  2.000E+01  2.000E+04 -1.082E-01
   1   13   20     1    20    1.2808E+05 -2.0078E+03   1.3009E+05  0.000E+00  0.000E+00  0.000E+00  3.93618E+01  1.686E-01  2.000E+01  2.000E+04 -1.004E-01
   1   14   21     1    21    1.3009E+05 -2.1348E+03   1.3222E+05  0.000E+00  0.000E+00  0.000E+00  3.88861E+01  1.702E-01  2.000E+01  2.000E+04 -1.067E-01
   1   14   22     1    22    1.3222E+05  4.7562E+03   1.2747E+05  0.000E+00  0.000E+00  0.000E+00  3.84078E+01  1.692E-01  2.000E+01  2.000E+04  2.378E-01
   1    9   30     2     1    5.0000E+04 -1.7938E+02   5.0179E+04  0.000E+00  0.000E+00  0.000E+00  4.02410E+01  1.160E-01  2.000E+01  2.000E+04 -8.969E-03
   1    9   29     2     2    5.0179E+04 -5.4169E+02   5.0721E+04  0.000E+00  0.000E+00  0.000E+00  3.99915E+01  1.165E-01  2.000E+01  2.000E+04 -2.708E-02
   1    9   28     2     3    5.0721E+04 -9.4336E+02   5.1664E+04  0.000E+00  0.000E+00  0.000E+00  3.97425E+01  1.175E-01  2.000E+01  2.000E+04 -4.717E-02
   1    9   27     2     4    5.1664E+04 -2.5674E+03   5.4232E+04  0.000E+00  0.000E+00  0.000E+00  3.94949E+01  1.199E-01  2.000E+01  2.000E+04 -1.284E-01
   1   10   26     2     5    5.4232E+04 -1.2900E+03   5.5522E+04  0.000E+00  0.000E+00  0.000E+00  3.92475E+01  1.225E-01  2.000E+01  2.000E+04 -6.450E-02
   1   11   25     2     6    5.5522E+04 -1.1041E+03   5.6626E+04  0.000E+00  0.000E+00  0.000E+00  3.89991E+01  1.241E-01  2.000E+01  2.000E+04 -5.520E-02
   1   12   24     2     7    5.6626E+04 -1.3887E+03   5.8015E+04  0.000E+00  0.000E+00  0.000E+00  3.87508E+01  1.258E-01  2.000E+01  2.000E+04 -6.943E-02
   1   13   23     2     8    5.8015E+04 -2.1979E+02   5.8234E+04  0.000E+00  0.000E+00  0.000E+00  3.85018E+01  1.268E-01  2.000E+01  2.000E+04 -1.099E-02
   1   14   22     2     9    5.8234E+04  1.6177E+03   5.6617E+04  0.000E+00  0.000E+00  0.000E+00  3.82509E+01  1.259E-01  2.000E+01  2.000E+04  8.089E-02
   1   14   22     3     1    1.8408E+05 -8.7778E+03   1.9286E+05  0.000E+00  0.000E+00  0.000E+00  3.77311E+01  1.756E-01  2.000E+01  2.000E+04 -4.389E-01
   1   15   23     3     2    1.9286E+05 -6.3725E+02   1.9350E+05  0.000E+00  0.000E+00  0.000E+00  3.68449E+01  1.782E-01  2.000E+01  2.000E+04 -3.186E-02
   1   15   24     3     3    1.9350E+05 -3.1499E+02   1.9381E+05  0.000E+00  0.000E+00  0.000E+00  3.59562E+01  1.785E-01  2.000E+01  2.000E+04 -1.575E-02
   1   15   25     3     4    1.9381E+05 -2.7878E+02   1.9409E+05  0.000E+00  0.000E+00  0.000E+00  3.50675E+01  1.786E-01  2.000E+01  2.000E+04 -1.394E-02
   1   15   26     3     5    1.9409E+05 -1.1202E+02   1.9420E+05  0.000E+00  0.000E+00  0.000E+00  3.41787E+01  1.787E-01  2.000E+01  2.000E+04 -5.601E-03
   1   16   27     3     6    1.9420E+05  6.4825E+01   1.9414E+05  0.000E+00  0.000E+00  0.000E+00  3.32898E+01  1.787E-01  2.000E+01  2.000E+04  3.241E-03
   1   17   28     3     7    1.9414E+05  2.1325E+03   1.9201E+05  0.000E+00  0.000E+00  0.000E+00  3.24004E+01  1.781E-01  2.000E+01  2.000E+04  1.066E-01
   1   18   29     3     8    1.9201E+05  1.1447E+03   1.9086E+05  0.000E+00  0.000E+00  0.000E+00  3.15106E+01  1.772E-01  2.000E+01  2.000E+04  5.723E-02
   1   18   30     3     9    1.9086E+05 -1.1513E+03   1.9201E+05  0.000E+00  0.000E+00  0.000E+00  3.06217E+01  1.772E-01  2.000E+01  2.000E+04 -5.756E-02



1
              HEAD IN LAYER   1 AT END OF TIME STEP   1 IN STRESS PERIOD    3
  ---------------------------------------------------------------------------

          1      2      3      4      5      6      7      8      9     10
         11     12     13     14     15     16     17     18     19     20
         21     22     23     24     25     26     27     28     29     30
 .........................................................................
   1  ****** ****** ****** ****** ****** ****** ****** ****** ****** ******
      ****** ****** ****** ****** ****** ****** ****** ****** ****** ******
      ****** ****** ****** ****** ****** ****** ****** ****** ****** ******
   2  ****** ****** ****** ****** ****** ****** ****** ****** ****** ******
      ****** ****** ****** ****** ****** ****** ****** ****** ****** ******
      ****** ****** ****** ****** ****** ****** ****** ****** ****** ******
   3  ****** ****** ****** ****** ****** ****** ****** ****** ****** ******
      ****** ****** ****** ****** ****** ****** ****** ****** ****** ******
      ****** ****** ****** ****** ****** ****** ****** ****** ****** ******
   4  ****** ****** ****** ****** ****** ****** ****** ****** ****** ******
      ****** ****** ****** ****** ****** ****** ****** ****** ****** ******
      ****** ****** ****** ****** ****** ****** ****** ****** ****** ******
   5  ****** ****** ****** ****** ****** ****** ****** ****** ****** ******
      ****** ****** ****** ****** ****** ****** ****** ****** ****** ******
      ****** ****** ****** ****** ****** ****** ****** ****** ****** ******
   6  ****** ****** ****** ****** ****** ****** ****** ****** ****** ******
      ****** ****** ****** ****** ****** ****** ****** ****** ****** ******
      ****** ****** ****** ****** ****** ****** ****** ****** ****** ******
   7  ****** ****** ****** ****** ****** ****** ****** ****** ****** ******
      ****** ****** ****** ****** ****** ****** ****** ****** ****** ******
      ****** ****** ****** ****** ****** ****** ****** ****** ****** ******
   8  ****** ****** ****** ****** ****** ****** ****** ****** ****** ******
      ****** ****** ****** ****** ****** ****** ****** ****** ****** ******
      ****** ****** ****** ****** ****** ****** ****** ****** ****** ******
   9  ****** ****** ****** ****** ****** ****** ****** ****** ****** ******
      ****** ****** ****** ****** ****** ****** ****** ****** ****** ******
      ****** ****** ****** ****** ****** ****** ****** ****** ****** ******
  10  ****** ****** ****** ****** ****** ****** ****** ****** ****** ******
      ****** ****** ****** ****** ****** ****** ****** ****** ****** ******
      ****** ****** ****** ****** ****** ****** ****** ****** ****** ******
  11  ****** ****** ****** ****** ****** ****** ****** ****** ****** ******
      ****** ****** ****** ****** ****** ****** ****** ****** ****** ******
      ****** ****** ****** ****** ****** ****** ****** ****** ****** ******
  12  ****** ****** ****** ****** ****** ****** ****** ****** ****** ******
      ****** ****** ****** ****** ****** ****** ****** ****** ****** ******
      ****** ****** ****** ****** ****** ****** ****** ****** ****** ******
  13  ****** ****** ****** ****** ****** ****** ****** ****** ****** ******
      ****** ****** ****** ****** ****** ****** ****** ****** ****** ******
      ****** ****** ****** ****** ****** ****** ****** ****** ****** ******
  14  ****** ****** ****** ****** ****** ****** ****** ****** ****** ******
      ****** ****** ****** ****** ****** ****** ****** ****** ****** ******
      ****** ****** ****** ****** ****** ****** ****** ****** ****** ******
  15  ****** ****** ****** ****** ****** ****** ****** ****** ****** ******
      ****** ****** ****** ****** ****** ****** ****** ****** ****** ******
      ****** ****** ****** ****** ****** ****** ****** ****** ****** ******
  16  ****** ****** ****** ****** ****** ****** ****** ****** ****** ******
      ****** ****** ****** ****** ****** ****** ****** ****** ****** ******
      ****** ****** ****** ****** ****** ****** ****** ****** ****** ******
  17  ****** ****** ****** ****** ****** ****** ****** ****** ****** ******
      ****** ****** ****** ****** ****** ****** ****** ****** ****** ******
      ****** ****** ****** ****** ****** ****** ****** ****** ****** ******
  18  ****** ****** ****** ****** ****** ****** ****** ****** ****** ******
      ****** ****** ****** ****** ****** ****** ****** ****** ****** ******
      ****** ****** ****** ****** ****** ****** ****** ****** ****** ******
  19  ****** ****** ****** ****** ****** ****** ****** ****** ****** ******
      ****** ****** ****** ****** ****** ****** ****** ****** ****** ******
      ****** ****** ****** ****** ****** ****** ****** ****** ****** ******
  20  ****** ****** ****** ****** ****** ****** ****** ****** ****** ******
      ****** ****** ****** ****** ****** ****** ****** ****** ****** ******
      ****** ****** ****** ****** ****** ****** ****** ****** ****** ******
  21  ****** ****** ****** ****** ****** ****** ****** ****** ****** ******
      ****** ****** ****** ****** ****** ****** ****** ****** ****** ******
      ****** ****** ****** ****** ****** ****** ****** ****** ****** ******
  22  ****** ****** ****** ****** ****** ****** ****** ****** ****** ******
      ****** ****** ****** ****** ****** ****** ****** ****** ****** ******
      ****** ****** ****** ****** ****** ****** ****** ****** ****** ******
  23  ****** ****** ****** ****** ****** ****** ****** ****** ****** ******
      ****** ****** ****** ****** ****** ****** ****** ****** ****** ******
      ****** ****** ****** ****** ****** ****** ****** ****** ****** ******
  24  ****** ****** ****** ****** ****** ****** ****** ****** ****** ******
      ****** ****** ****** ****** ****** ****** ****** ****** ****** ******
      ****** ****** ****** ****** ****** ****** ****** ****** ****** ******
  25  ****** ****** ****** ****** ****** ****** ****** ****** ****** ******
      ****** ****** ****** ****** ****** ****** ****** ****** ****** ******
      ****** ****** ****** ****** ****** ****** ****** ****** ****** ******

 HEAD WILL BE SAVED ON UNIT   51 AT END OF TIME STEP    1, STRESS PERIOD    3
1
  VOLUMETRIC BUDGET FOR ENTIRE MODEL AT END OF TIME STEP    1, STRESS PERIOD   3
  ------------------------------------------------------------------------------

     CUMULATIVE VOLUMES      L**3       RATES FOR THIS TIME STEP      L**3/T
     ------------------                 ------------------------

           IN:                                      IN:
           ---                                      ---
             STORAGE =    28555577.3006               STORAGE =       56806.1261
       CONSTANT HEAD =     5186948.9579         CONSTANT HEAD =       26426.2221
               WELLS =           0.0000                 WELLS =           0.0000
            RECHARGE =     6292800.0000              RECHARGE =           0.0000
      STREAM LEAKAGE =     1816260.7564        STREAM LEAKAGE =        9972.0512

            TOTAL IN =    41851587.0148              TOTAL IN =       93204.3993

          OUT:                                     OUT:
          ----                                     ----
             STORAGE =           0.0000               STORAGE =           0.0000
       CONSTANT HEAD =           0.0000         CONSTANT HEAD =           0.0000
               WELLS =    11293948.5113                 WELLS =       41218.7902
            RECHARGE =           0.0000              RECHARGE =           0.0000
      STREAM LEAKAGE =    30557640.5985        STREAM LEAKAGE =       51985.6172

           TOTAL OUT =    41851589.1097             TOTAL OUT =       93204.4074

            IN - OUT =          -2.0949              IN - OUT =      -8.0854E-03

 PERCENT DISCREPANCY =          -0.00     PERCENT DISCREPANCY =          -0.00






         TIME SUMMARY AT END OF TIME STEP    1 IN STRESS PERIOD    3
                    SECONDS     MINUTES      HOURS       DAYS        YEARS
                    -----------------------------------------------------------
   TIME STEP LENGTH 7.86240E+06 1.31040E+05  2184.0      91.000     0.24914    
 STRESS PERIOD TIME 7.86240E+06 1.31040E+05  2184.0      91.000     0.24914    
         TOTAL TIME 2.36736E+07 3.94560E+05  6576.0      274.00     0.75017    
1
1
                            STRESS PERIOD NO.    4, LENGTH =   91.00000    
                            -----------------------------------------------

                              NUMBER OF TIME STEPS =     1

                               MULTIPLIER FOR DELT =     1.500

                            INITIAL TIME STEP SIZE =   91.00000    

 WELL NO.  LAYER   ROW   COL   STRESS RATE         
 --------------------------------------------------
      1      1      8     16     -0.1474E+05
      2      1     14     29      -8048.    
      3      1     19     28      -9398.    
      4      1     18      3      -9037.    

      4 WELLS

                 RECHARGE =  1.000000E-03

 REUSING STREAM SEGMENT DATA FROM LAST STRESS PERIOD
 
 SOLVING FOR HEAD 


     6 CALLS TO PCG ROUTINE FOR TIME STEP   1 IN STRESS PERIOD    4
    23 TOTAL ITERATIONS

 OUTPUT CONTROL FOR STRESS PERIOD    4   TIME STEP    1
    SAVE BUDGET
    SAVE HEAD FOR ALL LAYERS
    PRINT HEAD FOR ALL LAYERS
 UBDSV2 SAVING "STREAMFLOW OUT  " ON UNIT  50 AT TIME STEP  1, STRESS PERIOD   4



 STREAM LISTING     PERIOD      4   STEP        1

 LAYER ROW COL. STREAM  RCH.  FLOW INTO     FLOW TO   FLOW OUT OF   OVRLND.     DIRECT     STREAM       STREAM     STREAM     STREAM   STREAMBED  STREAMBED
                SEG.NO.  NO.  STRM. RCH.    AQUIFER    STRM. RCH.    RUNOFF     PRECIP       ET          HEAD       DEPTH      WIDTH   CONDCTNC.   GRADIENT

   1   13    1     1     1    1.0000E+05 -1.6756E+03   1.0168E+05  0.000E+00  0.000E+00  0.000E+00  4.84067E+01  1.454E-01  2.000E+01  2.000E+04 -8.378E-02
   1   13    2     1     2    1.0168E+05 -2.7730E+03   1.0445E+05  0.000E+00  0.000E+00  0.000E+00  4.79314E+01  1.473E-01  2.000E+01  2.000E+04 -1.387E-01
   1   14    3     1     3    1.0445E+05 -3.5332E+02   1.0480E+05  0.000E+00  0.000E+00  0.000E+00  4.74554E+01  1.486E-01  2.000E+01  2.000E+04 -1.767E-02
   1   15    4     1     4    1.0480E+05 -1.7421E+02   1.0498E+05  0.000E+00  0.000E+00  0.000E+00  4.69784E+01  1.489E-01  2.000E+01  2.000E+04 -8.710E-03
   1   16    5     1     5    1.0498E+05  6.4541E+02   1.0433E+05  0.000E+00  0.000E+00  0.000E+00  4.65009E+01  1.487E-01  2.000E+01  2.000E+04  3.227E-02
   1   16    6     1     6    1.0433E+05 -4.9445E+02   1.0483E+05  0.000E+00  0.000E+00  0.000E+00  4.60236E+01  1.486E-01  2.000E+01  2.000E+04 -2.472E-02
   1   16    7     1     7    1.0483E+05 -7.9218E+02   1.0562E+05  0.000E+00  0.000E+00  0.000E+00  4.55469E+01  1.491E-01  2.000E+01  2.000E+04 -3.961E-02
   1   16    8     1     8    1.0562E+05 -9.5463E+02   1.0657E+05  0.000E+00  0.000E+00  0.000E+00  4.50703E+01  1.499E-01  2.000E+01  2.000E+04 -4.773E-02
   1   16    9     1     9    1.0657E+05 -1.0466E+03   1.0762E+05  0.000E+00  0.000E+00  0.000E+00  4.45939E+01  1.507E-01  2.000E+01  2.000E+04 -5.233E-02
   1   16   10     1    10    1.0762E+05 -1.0954E+03   1.0871E+05  0.000E+00  0.000E+00  0.000E+00  4.41175E+01  1.516E-01  2.000E+01  2.000E+04 -5.477E-02
   1   16   11     1    11    1.0871E+05 -1.1404E+03   1.0985E+05  0.000E+00  0.000E+00  0.000E+00  4.36412E+01  1.526E-01  2.000E+01  2.000E+04 -5.702E-02
   1   16   12     1    12    1.0985E+05 -2.0276E+03   1.1188E+05  0.000E+00  0.000E+00  0.000E+00  4.31653E+01  1.539E-01  2.000E+01  2.000E+04 -1.014E-01
   1   15   13     1    13    1.1188E+05 -1.8688E+03   1.1375E+05  0.000E+00  0.000E+00  0.000E+00  4.26896E+01  1.555E-01  2.000E+01  2.000E+04 -9.344E-02
   1   14   14     1    14    1.1375E+05 -1.9661E+03   1.1572E+05  0.000E+00  0.000E+00  0.000E+00  4.22139E+01  1.571E-01  2.000E+01  2.000E+04 -9.831E-02
   1   13   15     1    15    1.1572E+05 -1.9183E+03   1.1764E+05  0.000E+00  0.000E+00  0.000E+00  4.17382E+01  1.587E-01  2.000E+01  2.000E+04 -9.592E-02
   1   12   16     1    16    1.1764E+05 -1.6765E+03   1.1931E+05  0.000E+00  0.000E+00  0.000E+00  4.12624E+01  1.601E-01  2.000E+01  2.000E+04 -8.383E-02
   1   12   17     1    17    1.1931E+05 -1.1492E+03   1.2046E+05  0.000E+00  0.000E+00  0.000E+00  4.07863E+01  1.613E-01  2.000E+01  2.000E+04 -5.746E-02
   1   12   18     1    18    1.2046E+05 -1.2615E+03   1.2172E+05  0.000E+00  0.000E+00  0.000E+00  4.03100E+01  1.623E-01  2.000E+01  2.000E+04 -6.308E-02
   1   12   19     1    19    1.2172E+05 -1.8584E+03   1.2358E+05  0.000E+00  0.000E+00  0.000E+00  3.98340E+01  1.635E-01  2.000E+01  2.000E+04 -9.292E-02
   1   13   20     1    20    1.2358E+05 -1.8214E+03   1.2540E+05  0.000E+00  0.000E+00  0.000E+00  3.93582E+01  1.650E-01  2.000E+01  2.000E+04 -9.107E-02
   1   14   21     1    21    1.2540E+05 -1.8984E+03   1.2730E+05  0.000E+00  0.000E+00  0.000E+00  3.88824E+01  1.664E-01  2.000E+01  2.000E+04 -9.492E-02
   1   14   22     1    22    1.2730E+05  4.7906E+03   1.2251E+05  0.000E+00  0.000E+00  0.000E+00  3.84039E+01  1.653E-01  2.000E+01  2.000E+04  2.395E-01
   1    9   30     2     1    5.0000E+04 -7.5922E+01   5.0076E+04  0.000E+00  0.000E+00  0.000E+00  4.02409E+01  1.159E-01  2.000E+01  2.000E+04 -3.796E-03
   1    9   29     2     2    5.0076E+04 -4.3093E+02   5.0507E+04  0.000E+00  0.000E+00  0.000E+00  3.99913E+01  1.163E-01  2.000E+01  2.000E+04 -2.155E-02
   1    9   28     2     3    5.0507E+04 -8.1132E+02   5.1318E+04  0.000E+00  0.000E+00  0.000E+00  3.97421E+01  1.171E-01  2.000E+01  2.000E+04 -4.057E-02
   1    9   27     2     4    5.1318E+04 -2.2730E+03   5.3591E+04  0.000E+00  0.000E+00  0.000E+00  3.94942E+01  1.192E-01  2.000E+01  2.000E+04 -1.137E-01
   1   10   26     2     5    5.3591E+04 -1.1049E+03   5.4696E+04  0.000E+00  0.000E+00  0.000E+00  3.92465E+01  1.215E-01  2.000E+01  2.000E+04 -5.525E-02
   1   11   25     2     6    5.4696E+04 -9.6005E+02   5.5656E+04  0.000E+00  0.000E+00  0.000E+00  3.89979E+01  1.229E-01  2.000E+01  2.000E+04 -4.800E-02
   1   12   24     2     7    5.5656E+04 -1.2648E+03   5.6921E+04  0.000E+00  0.000E+00  0.000E+00  3.87494E+01  1.244E-01  2.000E+01  2.000E+04 -6.324E-02
   1   13   23     2     8    5.6921E+04 -2.4137E+02   5.7162E+04  0.000E+00  0.000E+00  0.000E+00  3.85004E+01  1.254E-01  2.000E+01  2.000E+04 -1.207E-02
   1   14   22     2     9    5.7162E+04  1.7005E+03   5.5462E+04  0.000E+00  0.000E+00  0.000E+00  3.82494E+01  1.244E-01  2.000E+01  2.000E+04  8.502E-02
   1   14   22     3     1    1.7797E+05 -8.7347E+03   1.8671E+05  0.000E+00  0.000E+00  0.000E+00  3.77277E+01  1.721E-01  2.000E+01  2.000E+04 -4.367E-01
   1   15   23     3     2    1.8671E+05 -6.1221E+02   1.8732E+05  0.000E+00  0.000E+00  0.000E+00  3.68414E+01  1.748E-01  2.000E+01  2.000E+04 -3.061E-02
   1   15   24     3     3    1.8732E+05 -3.1195E+02   1.8763E+05  0.000E+00  0.000E+00  0.000E+00  3.59528E+01  1.750E-01  2.000E+01  2.000E+04 -1.560E-02
   1   15   25     3     4    1.8763E+05 -2.7442E+02   1.8791E+05  0.000E+00  0.000E+00  0.000E+00  3.50641E+01  1.752E-01  2.000E+01  2.000E+04 -1.372E-02
   1   15   26     3     5    1.8791E+05 -1.1473E+02   1.8802E+05  0.000E+00  0.000E+00  0.000E+00  3.41753E+01  1.753E-01  2.000E+01  2.000E+04 -5.736E-03
   1   16   27     3     6    1.8802E+05  7.2797E+01   1.8795E+05  0.000E+00  0.000E+00  0.000E+00  3.32864E+01  1.753E-01  2.000E+01  2.000E+04  3.640E-03
   1   17   28     3     7    1.8795E+05  2.2310E+03   1.8572E+05  0.000E+00  0.000E+00  0.000E+00  3.23969E+01  1.747E-01  2.000E+01  2.000E+04  1.115E-01
   1   18   29     3     8    1.8572E+05  1.4088E+03   1.8431E+05  0.000E+00  0.000E+00  0.000E+00  3.15070E+01  1.736E-01  2.000E+01  2.000E+04  7.044E-02
   1   18   30     3     9    1.8431E+05 -1.0100E+03   1.8532E+05  0.000E+00  0.000E+00  0.000E+00  3.06180E+01  1.735E-01  2.000E+01  2.000E+04 -5.050E-02



1
              HEAD IN LAYER   1 AT END OF TIME STEP   1 IN STRESS PERIOD    4
  ---------------------------------------------------------------------------

          1      2      3      4      5      6      7      8      9     10
         11     12     13     14     15     16     17     18     19     20
         21     22     23     24     25     26     27     28     29     30
 .........................................................................
   1  ****** ****** ****** ****** ****** ****** ****** ****** ****** ******
      ****** ****** ****** ****** ****** ****** ****** ****** ****** ******
      ****** ****** ****** ****** ****** ****** ****** ****** ****** ******
   2  ****** ****** ****** ****** ****** ****** ****** ****** ****** ******
      ****** ****** ****** ****** ****** ****** ****** ****** ****** ******
      ****** ****** ****** ****** ****** ****** ****** ****** ****** ******
   3  ****** ****** ****** ****** ****** ****** ****** ****** ****** ******
      ****** ****** ****** ****** ****** ****** ****** ****** ****** ******
      ****** ****** ****** ****** ****** ****** ****** ****** ****** ******
   4  ****** ****** ****** ****** ****** ****** ****** ****** ****** ******
      ****** ****** ****** ****** ****** ****** ****** ****** ****** ******
      ****** ****** ****** ****** ****** ****** ****** ****** ****** ******
   5  ****** ****** ****** ****** ****** ****** ****** ****** ****** ******
      ****** ****** ****** ****** ****** ****** ****** ****** ****** ******
      ****** ****** ****** ****** ****** ****** ****** ****** ****** ******
   6  ****** ****** ****** ****** ****** ****** ****** ****** ****** ******
      ****** ****** ****** ****** ****** ****** ****** ****** ****** ******
      ****** ****** ****** ****** ****** ****** ****** ****** ****** ******
   7  ****** ****** ****** ****** ****** ****** ****** ****** ****** ******
      ****** ****** ****** ****** ****** ****** ****** ****** ****** ******
      ****** ****** ****** ****** ****** ****** ****** ****** ****** ******
   8  ****** ****** ****** ****** ****** ****** ****** ****** ****** ******
      ****** ****** ****** ****** ****** ****** ****** ****** ****** ******
      ****** ****** ****** ****** ****** ****** ****** ****** ****** ******
   9  ****** ****** ****** ****** ****** ****** ****** ****** ****** ******
      ****** ****** ****** ****** ****** ****** ****** ****** ****** ******
      ****** ****** ****** ****** ****** ****** ****** ****** ****** ******
  10  ****** ****** ****** ****** ****** ****** ****** ****** ****** ******
      ****** ****** ****** ****** ****** ****** ****** ****** ****** ******
      ****** ****** ****** ****** ****** ****** ****** ****** ****** ******
  11  ****** ****** ****** ****** ****** ****** ****** ****** ****** ******
      ****** ****** ****** ****** ****** ****** ****** ****** ****** ******
      ****** ****** ****** ****** ****** ****** ****** ****** ****** ******
  12  ****** ****** ****** ****** ****** ****** ****** ****** ****** ******
      ****** ****** ****** ****** ****** ****** ****** ****** ****** ******
      ****** ****** ****** ****** ****** ****** ****** ****** ****** ******
  13  ****** ****** ****** ****** ****** ****** ****** ****** ****** ******
      ****** ****** ****** ****** ****** ****** ****** ****** ****** ******
      ****** ****** ****** ****** ****** ****** ****** ****** ****** ******
  14  ****** ****** ****** ****** ****** ****** ****** ****** ****** ******
      ****** ****** ****** ****** ****** ****** ****** ****** ****** ******
      ****** ****** ****** ****** ****** ****** ****** ****** ****** ******
  15  ****** ****** ****** ****** ****** ****** ****** ****** ****** ******
      ****** ****** ****** ****** ****** ****** ****** ****** ****** ******
      ****** ****** ****** ****** ****** ****** ****** ****** ****** ******
  16  ****** ****** ****** ****** ****** ****** ****** ****** ****** ******
      ****** ****** ****** ****** ****** ****** ****** ****** ****** ******
      ****** ****** ****** ****** ****** ****** ****** ****** ****** ******
  17  ****** ****** ****** ****** ****** ****** ****** ****** ****** ******
      ****** ****** ****** ****** ****** ****** ****** ****** ****** ******
      ****** ****** ****** ****** ****** ****** ****** ****** ****** ******
  18  ****** ****** ****** ****** ****** ****** ****** ****** ****** ******
      ****** ****** ****** ****** ****** ****** ****** ****** ****** ******
      ****** ****** ****** ****** ****** ****** ****** ****** ****** ******
  19  ****** ****** ****** ****** ****** ****** ****** ****** ****** ******
      ****** ****** ****** ****** ****** ****** ****** ****** ****** ******
      ****** ****** ****** ****** ****** ****** ****** ****** ****** ******
  20  ****** ****** ****** ****** ****** ****** ****** ****** ****** ******
      ****** ****** ****** ****** ****** ****** ****** ****** ****** ******
      ****** ****** ****** ****** ****** ****** ****** ****** ****** ******
  21  ****** ****** ****** ****** ****** ****** ****** ****** ****** ******
      ****** ****** ****** ****** ****** ****** ****** ****** ****** ******
      ****** ****** ****** ****** ****** ****** ****** ****** ****** ******
  22  ****** ****** ****** ****** ****** ****** ****** ****** ****** ******
      ****** ****** ****** ****** ****** ****** ****** ****** ****** ******
      ****** ****** ****** ****** ****** ****** ****** ****** ****** ******
  23  ****** ****** ****** ****** ****** ****** ****** ****** ****** ******
      ****** ****** ****** ****** ****** ****** ****** ****** ****** ******
      ****** ****** ****** ****** ****** ****** ****** ****** ****** ******
  24  ****** ****** ****** ****** ****** ****** ****** ****** ****** ******
      ****** ****** ****** ****** ****** ****** ****** ****** ****** ******
      ****** ****** ****** ****** ****** ****** ****** ****** ****** ******
  25  ****** ****** ****** ****** ****** ****** ****** ****** ****** ******
      ****** ****** ****** ****** ****** ****** ****** ****** ****** ******
      ****** ****** ****** ****** ****** ****** ****** ****** ****** ******

 HEAD WILL BE SAVED ON UNIT   51 AT END OF TIME STEP    1, STRESS PERIOD    4
1
  VOLUMETRIC BUDGET FOR ENTIRE MODEL AT END OF TIME STEP    1, STRESS PERIOD   4
  ------------------------------------------------------------------------------

     CUMULATIVE VOLUMES      L**3       RATES FOR THIS TIME STEP      L**3/T
     ------------------                 ------------------------

           IN:                                      IN:
           ---                                      ---
             STORAGE =    30351682.8013               STORAGE =       19737.4231
       CONSTANT HEAD =     7844528.5757         CONSTANT HEAD =       29204.1716
               WELLS =           0.0000                 WELLS =           0.0000
            RECHARGE =     8804400.0000              RECHARGE =       27600.0000
      STREAM LEAKAGE =     2803525.0683        STREAM LEAKAGE =       10849.0584

            TOTAL IN =    49804136.4453              TOTAL IN =       87390.6531

          OUT:                                     OUT:
          ----                                     ----
             STORAGE =         502.3973               STORAGE =           5.5208
       CONSTANT HEAD =           0.0000         CONSTANT HEAD =           0.0000
               WELLS =    15044858.4183                 WELLS =       41218.7902
            RECHARGE =           0.0000              RECHARGE =           0.0000
      STREAM LEAKAGE =    34758777.8133        STREAM LEAKAGE =       46166.3430

           TOTAL OUT =    49804138.6289             TOTAL OUT =       87390.6541

            IN - OUT =          -2.1836              IN - OUT =      -9.7486E-04

 PERCENT DISCREPANCY =          -0.00     PERCENT DISCREPANCY =          -0.00






         TIME SUMMARY AT END OF TIME STEP    1 IN STRESS PERIOD    4
                    SECONDS     MINUTES      HOURS       DAYS        YEARS
                    -----------------------------------------------------------
   TIME STEP LENGTH 7.86240E+06 1.31040E+05  2184.0      91.000     0.24914    
 STRESS PERIOD TIME 7.86240E+06 1.31040E+05  2184.0      91.000     0.24914    
         TOTAL TIME 3.15360E+07 5.25600E+05  8760.0      365.00     0.99932    
1
1
                            STRESS PERIOD NO.    5, LENGTH =   92.00000    
                            -----------------------------------------------

                              NUMBER OF TIME STEPS =     1

                               MULTIPLIER FOR DELT =     1.500

                            INITIAL TIME STEP SIZE =   92.00000    

 WELL NO.  LAYER   ROW   COL   STRESS RATE         
 --------------------------------------------------
      1      1      8     16     -0.1474E+05
      2      1     14     29      -8048.    
      3      1     19     28      -9398.    
      4      1     18      3      -9037.    

      4 WELLS

                 RECHARGE =  5.000000E-04

 REUSING STREAM SEGMENT DATA FROM LAST STRESS PERIOD
 
 SOLVING FOR HEAD 


     7 CALLS TO PCG ROUTINE FOR TIME STEP   1 IN STRESS PERIOD    5
    26 TOTAL ITERATIONS

 OUTPUT CONTROL FOR STRESS PERIOD    5   TIME STEP    1
    SAVE BUDGET
    SAVE HEAD FOR ALL LAYERS
    PRINT HEAD FOR ALL LAYERS
 UBDSV2 SAVING "STREAMFLOW OUT  " ON UNIT  50 AT TIME STEP  1, STRESS PERIOD   5



 STREAM LISTING     PERIOD      5   STEP        1

 LAYER ROW COL. STREAM  RCH.  FLOW INTO     FLOW TO   FLOW OUT OF   OVRLND.     DIRECT     STREAM       STREAM     STREAM     STREAM   STREAMBED  STREAMBED
                SEG.NO.  NO.  STRM. RCH.    AQUIFER    STRM. RCH.    RUNOFF     PRECIP       ET          HEAD       DEPTH      WIDTH   CONDCTNC.   GRADIENT

   1   13    1     1     1    1.0000E+05 -1.2306E+03   1.0123E+05  0.000E+00  0.000E+00  0.000E+00  4.84065E+01  1.452E-01  2.000E+01  2.000E+04 -6.153E-02
   1   13    2     1     2    1.0123E+05 -2.2721E+03   1.0350E+05  0.000E+00  0.000E+00  0.000E+00  4.79308E+01  1.467E-01  2.000E+01  2.000E+04 -1.136E-01
   1   14    3     1     3    1.0350E+05 -2.2483E+02   1.0373E+05  0.000E+00  0.000E+00  0.000E+00  4.74546E+01  1.478E-01  2.000E+01  2.000E+04 -1.124E-02
   1   15    4     1     4    1.0373E+05 -3.8201E+01   1.0377E+05  0.000E+00  0.000E+00  0.000E+00  4.69774E+01  1.479E-01  2.000E+01  2.000E+04 -1.910E-03
   1   16    5     1     5    1.0377E+05  1.1150E+03   1.0265E+05  0.000E+00  0.000E+00  0.000E+00  4.64997E+01  1.474E-01  2.000E+01  2.000E+04  5.575E-02
   1   16    6     1     6    1.0265E+05 -2.2496E+02   1.0288E+05  0.000E+00  0.000E+00  0.000E+00  4.60220E+01  1.470E-01  2.000E+01  2.000E+04 -1.125E-02
   1   16    7     1     7    1.0288E+05 -5.3611E+02   1.0341E+05  0.000E+00  0.000E+00  0.000E+00  4.55451E+01  1.474E-01  2.000E+01  2.000E+04 -2.681E-02
   1   16    8     1     8    1.0341E+05 -7.0423E+02   1.0412E+05  0.000E+00  0.000E+00  0.000E+00  4.50683E+01  1.479E-01  2.000E+01  2.000E+04 -3.521E-02
   1   16    9     1     9    1.0412E+05 -8.0092E+02   1.0492E+05  0.000E+00  0.000E+00  0.000E+00  4.45917E+01  1.485E-01  2.000E+01  2.000E+04 -4.005E-02
   1   16   10     1    10    1.0492E+05 -8.5491E+02   1.0577E+05  0.000E+00  0.000E+00  0.000E+00  4.41152E+01  1.492E-01  2.000E+01  2.000E+04 -4.275E-02
   1   16   11     1    11    1.0577E+05 -9.0124E+02   1.0667E+05  0.000E+00  0.000E+00  0.000E+00  4.36386E+01  1.500E-01  2.000E+01  2.000E+04 -4.506E-02
   1   16   12     1    12    1.0667E+05 -1.6017E+03   1.0827E+05  0.000E+00  0.000E+00  0.000E+00  4.31624E+01  1.510E-01  2.000E+01  2.000E+04 -8.009E-02
   1   15   13     1    13    1.0827E+05 -1.4173E+03   1.0969E+05  0.000E+00  0.000E+00  0.000E+00  4.26864E+01  1.523E-01  2.000E+01  2.000E+04 -7.086E-02
   1   14   14     1    14    1.0969E+05 -1.4821E+03   1.1117E+05  0.000E+00  0.000E+00  0.000E+00  4.22103E+01  1.535E-01  2.000E+01  2.000E+04 -7.411E-02
   1   13   15     1    15    1.1117E+05 -1.4118E+03   1.1259E+05  0.000E+00  0.000E+00  0.000E+00  4.17343E+01  1.547E-01  2.000E+01  2.000E+04 -7.059E-02
   1   12   16     1    16    1.1259E+05 -1.1134E+03   1.1370E+05  0.000E+00  0.000E+00  0.000E+00  4.12580E+01  1.558E-01  2.000E+01  2.000E+04 -5.567E-02
   1   12   17     1    17    1.1370E+05 -7.7608E+02   1.1448E+05  0.000E+00  0.000E+00  0.000E+00  4.07816E+01  1.566E-01  2.000E+01  2.000E+04 -3.880E-02
   1   12   18     1    18    1.1448E+05 -9.0800E+02   1.1538E+05  0.000E+00  0.000E+00  0.000E+00  4.03050E+01  1.572E-01  2.000E+01  2.000E+04 -4.540E-02
   1   12   19     1    19    1.1538E+05 -1.4295E+03   1.1681E+05  0.000E+00  0.000E+00  0.000E+00  3.98287E+01  1.582E-01  2.000E+01  2.000E+04 -7.147E-02
   1   13   20     1    20    1.1681E+05 -1.4567E+03   1.1827E+05  0.000E+00  0.000E+00  0.000E+00  3.93526E+01  1.594E-01  2.000E+01  2.000E+04 -7.284E-02
   1   14   21     1    21    1.1827E+05 -1.5147E+03   1.1978E+05  0.000E+00  0.000E+00  0.000E+00  3.88765E+01  1.606E-01  2.000E+01  2.000E+04 -7.574E-02
   1   14   22     1    22    1.1978E+05  4.8690E+03   1.1492E+05  0.000E+00  0.000E+00  0.000E+00  3.83979E+01  1.592E-01  2.000E+01  2.000E+04  2.434E-01
   1    9   30     2     1    5.0000E+04  1.6146E+02   4.9839E+04  0.000E+00  0.000E+00  0.000E+00  4.02408E+01  1.158E-01  2.000E+01  2.000E+04  8.073E-03
   1    9   29     2     2    4.9839E+04 -1.8968E+02   5.0028E+04  0.000E+00  0.000E+00  0.000E+00  3.99908E+01  1.158E-01  2.000E+01  2.000E+04 -9.484E-03
   1    9   28     2     3    5.0028E+04 -5.5732E+02   5.0586E+04  0.000E+00  0.000E+00  0.000E+00  3.97413E+01  1.163E-01  2.000E+01  2.000E+04 -2.787E-02
   1    9   27     2     4    5.0586E+04 -1.8700E+03   5.2456E+04  0.000E+00  0.000E+00  0.000E+00  3.94930E+01  1.180E-01  2.000E+01  2.000E+04 -9.350E-02
   1   10   26     2     5    5.2456E+04 -7.5207E+02   5.3208E+04  0.000E+00  0.000E+00  0.000E+00  3.92448E+01  1.198E-01  2.000E+01  2.000E+04 -3.760E-02
   1   11   25     2     6    5.3208E+04 -6.3558E+02   5.3843E+04  0.000E+00  0.000E+00  0.000E+00  3.89957E+01  1.207E-01  2.000E+01  2.000E+04 -3.178E-02
   1   12   24     2     7    5.3843E+04 -9.6792E+02   5.4811E+04  0.000E+00  0.000E+00  0.000E+00  3.87468E+01  1.218E-01  2.000E+01  2.000E+04 -4.840E-02
   1   13   23     2     8    5.4811E+04 -1.7091E+02   5.4982E+04  0.000E+00  0.000E+00  0.000E+00  3.84975E+01  1.225E-01  2.000E+01  2.000E+04 -8.545E-03
   1   14   22     2     9    5.4982E+04  1.8402E+03   5.3142E+04  0.000E+00  0.000E+00  0.000E+00  3.82464E+01  1.214E-01  2.000E+01  2.000E+04  9.201E-02
   1   14   22     3     1    1.6806E+05 -8.6489E+03   1.7671E+05  0.000E+00  0.000E+00  0.000E+00  3.77220E+01  1.664E-01  2.000E+01  2.000E+04 -4.324E-01
   1   15   23     3     2    1.7671E+05 -5.1222E+02   1.7722E+05  0.000E+00  0.000E+00  0.000E+00  3.68357E+01  1.691E-01  2.000E+01  2.000E+04 -2.561E-02
   1   15   24     3     3    1.7722E+05 -2.3837E+02   1.7746E+05  0.000E+00  0.000E+00  0.000E+00  3.59470E+01  1.693E-01  2.000E+01  2.000E+04 -1.192E-02
   1   15   25     3     4    1.7746E+05 -2.0115E+02   1.7766E+05  0.000E+00  0.000E+00  0.000E+00  3.50583E+01  1.694E-01  2.000E+01  2.000E+04 -1.006E-02
   1   15   26     3     5    1.7766E+05 -4.0286E+01   1.7770E+05  0.000E+00  0.000E+00  0.000E+00  3.41695E+01  1.695E-01  2.000E+01  2.000E+04 -2.014E-03
   1   16   27     3     6    1.7770E+05  1.6663E+02   1.7753E+05  0.000E+00  0.000E+00  0.000E+00  3.32805E+01  1.694E-01  2.000E+01  2.000E+04  8.331E-03
   1   17   28     3     7    1.7753E+05  2.5118E+03   1.7502E+05  0.000E+00  0.000E+00  0.000E+00  3.23909E+01  1.687E-01  2.000E+01  2.000E+04  1.256E-01
   1   18   29     3     8    1.7502E+05  1.8043E+03   1.7322E+05  0.000E+00  0.000E+00  0.000E+00  3.15008E+01  1.674E-01  2.000E+01  2.000E+04  9.021E-02
   1   18   30     3     9    1.7322E+05 -7.3818E+02   1.7395E+05  0.000E+00  0.000E+00  0.000E+00  3.06116E+01  1.671E-01  2.000E+01  2.000E+04 -3.691E-02



1
              HEAD IN LAYER   1 AT END OF TIME STEP   1 IN STRESS PERIOD    5
  ---------------------------------------------------------------------------

          1      2      3      4      5      6      7      8      9     10
         11     12     13     14     15     16     17     18     19     20
         21     22     23     24     25     26     27     28     29     30
 .........................................................................
   1  ****** ****** ****** ****** ****** ****** ****** ****** ****** ******
      ****** ****** ****** ****** ****** ****** ****** ****** ****** ******
      ****** ****** ****** ****** ****** ****** ****** ****** ****** ******
   2  ****** ****** ****** ****** ****** ****** ****** ****** ****** ******
      ****** ****** ****** ****** ****** ****** ****** ****** ****** ******
      ****** ****** ****** ****** ****** ****** ****** ****** ****** ******
   3  ****** ****** ****** ****** ****** ****** ****** ****** ****** ******
      ****** ****** ****** ****** ****** ****** ****** ****** ****** ******
      ****** ****** ****** ****** ****** ****** ****** ****** ****** ******
   4  ****** ****** ****** ****** ****** ****** ****** ****** ****** ******
      ****** ****** ****** ****** ****** ****** ****** ****** ****** ******
      ****** ****** ****** ****** ****** ****** ****** ****** ****** ******
   5  ****** ****** ****** ****** ****** ****** ****** ****** ****** ******
      ****** ****** ****** ****** ****** ****** ****** ****** ****** ******
      ****** ****** ****** ****** ****** ****** ****** ****** ****** ******
   6  ****** ****** ****** ****** ****** ****** ****** ****** ****** ******
      ****** ****** ****** ****** ****** ****** ****** ****** ****** ******
      ****** ****** ****** ****** ****** ****** ****** ****** ****** ******
   7  ****** ****** ****** ****** ****** ****** ****** ****** ****** ******
      ****** ****** ****** ****** ****** ****** ****** ****** ****** ******
      ****** ****** ****** ****** ****** ****** ****** ****** ****** ******
   8  ****** ****** ****** ****** ****** ****** ****** ****** ****** ******
      ****** ****** ****** ****** ****** ****** ****** ****** ****** ******
      ****** ****** ****** ****** ****** ****** ****** ****** ****** ******
   9  ****** ****** ****** ****** ****** ****** ****** ****** ****** ******
      ****** ****** ****** ****** ****** ****** ****** ****** ****** ******
      ****** ****** ****** ****** ****** ****** ****** ****** ****** ******
  10  ****** ****** ****** ****** ****** ****** ****** ****** ****** ******
      ****** ****** ****** ****** ****** ****** ****** ****** ****** ******
      ****** ****** ****** ****** ****** ****** ****** ****** ****** ******
  11  ****** ****** ****** ****** ****** ****** ****** ****** ****** ******
      ****** ****** ****** ****** ****** ****** ****** ****** ****** ******
      ****** ****** ****** ****** ****** ****** ****** ****** ****** ******
  12  ****** ****** ****** ****** ****** ****** ****** ****** ****** ******
      ****** ****** ****** ****** ****** ****** ****** ****** ****** ******
      ****** ****** ****** ****** ****** ****** ****** ****** ****** ******
  13  ****** ****** ****** ****** ****** ****** ****** ****** ****** ******
      ****** ****** ****** ****** ****** ****** ****** ****** ****** ******
      ****** ****** ****** ****** ****** ****** ****** ****** ****** ******
  14  ****** ****** ****** ****** ****** ****** ****** ****** ****** ******
      ****** ****** ****** ****** ****** ****** ****** ****** ****** ******
      ****** ****** ****** ****** ****** ****** ****** ****** ****** ******
  15  ****** ****** ****** ****** ****** ****** ****** ****** ****** ******
      ****** ****** ****** ****** ****** ****** ****** ****** ****** ******
      ****** ****** ****** ****** ****** ****** ****** ****** ****** ******
  16  ****** ****** ****** ****** ****** ****** ****** ****** ****** ******
      ****** ****** ****** ****** ****** ****** ****** ****** ****** ******
      ****** ****** ****** ****** ****** ****** ****** ****** ****** ******
  17  ****** ****** ****** ****** ****** ****** ****** ****** ****** ******
      ****** ****** ****** ****** ****** ****** ****** ****** ****** ******
      ****** ****** ****** ****** ****** ****** ****** ****** ****** ******
  18  ****** ****** ****** ****** ****** ****** ****** ****** ****** ******
      ****** ****** ****** ****** ****** ****** ****** ****** ****** ******
      ****** ****** ****** ****** ****** ****** ****** ****** ****** ******
  19  ****** ****** ****** ****** ****** ****** ****** ****** ****** ******
      ****** ****** ****** ****** ****** ****** ****** ****** ****** ******
      ****** ****** ****** ****** ****** ****** ****** ****** ****** ******
  20  ****** ****** ****** ****** ****** ****** ****** ****** ****** ******
      ****** ****** ****** ****** ****** ****** ****** ****** ****** ******
      ****** ****** ****** ****** ****** ****** ****** ****** ****** ******
  21  ****** ****** ****** ****** ****** ****** ****** ****** ****** ******
      ****** ****** ****** ****** ****** ****** ****** ****** ****** ******
      ****** ****** ****** ****** ****** ****** ****** ****** ****** ******
  22  ****** ****** ****** ****** ****** ****** ****** ****** ****** ******
      ****** ****** ****** ****** ****** ****** ****** ****** ****** ******
      ****** ****** ****** ****** ****** ****** ****** ****** ****** ******
  23  ****** ****** ****** ****** ****** ****** ****** ****** ****** ******
      ****** ****** ****** ****** ****** ****** ****** ****** ****** ******
      ****** ****** ****** ****** ****** ****** ****** ****** ****** ******
  24  ****** ****** ****** ****** ****** ****** ****** ****** ****** ******
      ****** ****** ****** ****** ****** ****** ****** ****** ****** ******
      ****** ****** ****** ****** ****** ****** ****** ****** ****** ******
  25  ****** ****** ****** ****** ****** ****** ****** ****** ****** ******
      ****** ****** ****** ****** ****** ****** ****** ****** ****** ******
      ****** ****** ****** ****** ****** ****** ****** ****** ****** ******

 HEAD WILL BE SAVED ON UNIT   51 AT END OF TIME STEP    1, STRESS PERIOD    5
1
  VOLUMETRIC BUDGET FOR ENTIRE MODEL AT END OF TIME STEP    1, STRESS PERIOD   5
  ------------------------------------------------------------------------------

     CUMULATIVE VOLUMES      L**3       RATES FOR THIS TIME STEP      L**3/T
     ------------------                 ------------------------

           IN:                                      IN:
           ---                                      ---
             STORAGE =    32111397.1777               STORAGE =       19127.3302
       CONSTANT HEAD =    10811071.4695         CONSTANT HEAD =       32245.0315
               WELLS =           0.0000                 WELLS =           0.0000
            RECHARGE =    10074000.0000              RECHARGE =       13800.0000
      STREAM LEAKAGE =     3950612.0900        STREAM LEAKAGE =       12468.3372

            TOTAL IN =    56947080.7372              TOTAL IN =       77640.6988

          OUT:                                     OUT:
          ----                                     ----
             STORAGE =         502.3973               STORAGE =           0.0000
       CONSTANT HEAD =           0.0000         CONSTANT HEAD =           0.0000
               WELLS =    18836987.1155                 WELLS =       41218.7902
            RECHARGE =           0.0000              RECHARGE =           0.0000
      STREAM LEAKAGE =    38109593.7231        STREAM LEAKAGE =       36421.9121

           TOTAL OUT =    56947083.2360             TOTAL OUT =       77640.7023

            IN - OUT =          -2.4988              IN - OUT =      -3.4256E-03

 PERCENT DISCREPANCY =          -0.00     PERCENT DISCREPANCY =          -0.00






         TIME SUMMARY AT END OF TIME STEP    1 IN STRESS PERIOD    5
                    SECONDS     MINUTES      HOURS       DAYS        YEARS
                    -----------------------------------------------------------
   TIME STEP LENGTH 7.94880E+06 1.32480E+05  2208.0      92.000     0.25188    
 STRESS PERIOD TIME 7.94880E+06 1.32480E+05  2208.0      92.000     0.25188    
         TOTAL TIME 3.94848E+07 6.58080E+05  10968.      457.00      1.2512    
1
1
                            STRESS PERIOD NO.    6, LENGTH =   91.00000    
                            -----------------------------------------------

                              NUMBER OF TIME STEPS =     1

                               MULTIPLIER FOR DELT =     1.500

                            INITIAL TIME STEP SIZE =   91.00000    

 WELL NO.  LAYER   ROW   COL   STRESS RATE         
 --------------------------------------------------
      1      1      8     16     -0.1474E+05
      2      1     14     29      -8048.    
      3      1     19     28      -9398.    
      4      1     18      3      -9037.    

      4 WELLS

                 RECHARGE =  2.000000E-03

 REUSING STREAM SEGMENT DATA FROM LAST STRESS PERIOD
 
 SOLVING FOR HEAD 


     7 CALLS TO PCG ROUTINE FOR TIME STEP   1 IN STRESS PERIOD    6
    26 TOTAL ITERATIONS

 OUTPUT CONTROL FOR STRESS PERIOD    6   TIME STEP    1
    SAVE BUDGET
    SAVE HEAD FOR ALL LAYERS
    PRINT HEAD FOR ALL LAYERS
 UBDSV2 SAVING "STREAMFLOW OUT  " ON UNIT  50 AT TIME STEP  1, STRESS PERIOD   6



 STREAM LISTING     PERIOD      6   STEP        1

 LAYER ROW COL. STREAM  RCH.  FLOW INTO     FLOW TO   FLOW OUT OF   OVRLND.     DIRECT     STREAM       STREAM     STREAM     STREAM   STREAMBED  STREAMBED
                SEG.NO.  NO.  STRM. RCH.    AQUIFER    STRM. RCH.    RUNOFF     PRECIP       ET          HEAD       DEPTH      WIDTH   CONDCTNC.   GRADIENT

   1   13    1     1     1    1.0000E+05 -1.5263E+03   1.0153E+05  0.000E+00  0.000E+00  0.000E+00  4.84067E+01  1.453E-01  2.000E+01  2.000E+04 -7.631E-02
   1   13    2     1     2    1.0153E+05 -2.5960E+03   1.0412E+05  0.000E+00  0.000E+00  0.000E+00  4.79312E+01  1.471E-01  2.000E+01  2.000E+04 -1.298E-01
   1   14    3     1     3    1.0412E+05 -3.7605E+02   1.0450E+05  0.000E+00  0.000E+00  0.000E+00  4.74552E+01  1.484E-01  2.000E+01  2.000E+04 -1.880E-02
   1   15    4     1     4    1.0450E+05 -2.0064E+02   1.0470E+05  0.000E+00  0.000E+00  0.000E+00  4.69782E+01  1.486E-01  2.000E+01  2.000E+04 -1.003E-02
   1   16    5     1     5    1.0470E+05  6.3615E+02   1.0406E+05  0.000E+00  0.000E+00  0.000E+00  4.65007E+01  1.484E-01  2.000E+01  2.000E+04  3.181E-02
   1   16    6     1     6    1.0406E+05 -5.0772E+02   1.0457E+05  0.000E+00  0.000E+00  0.000E+00  4.60234E+01  1.484E-01  2.000E+01  2.000E+04 -2.539E-02
   1   16    7     1     7    1.0457E+05 -8.0481E+02   1.0538E+05  0.000E+00  0.000E+00  0.000E+00  4.55467E+01  1.489E-01  2.000E+01  2.000E+04 -4.024E-02
   1   16    8     1     8    1.0538E+05 -9.6921E+02   1.0634E+05  0.000E+00  0.000E+00  0.000E+00  4.50701E+01  1.497E-01  2.000E+01  2.000E+04 -4.846E-02
   1   16    9     1     9    1.0634E+05 -1.0663E+03   1.0741E+05  0.000E+00  0.000E+00  0.000E+00  4.45937E+01  1.505E-01  2.000E+01  2.000E+04 -5.331E-02
   1   16   10     1    10    1.0741E+05 -1.1228E+03   1.0853E+05  0.000E+00  0.000E+00  0.000E+00  4.41174E+01  1.515E-01  2.000E+01  2.000E+04 -5.614E-02
   1   16   11     1    11    1.0853E+05 -1.1733E+03   1.0971E+05  0.000E+00  0.000E+00  0.000E+00  4.36411E+01  1.524E-01  2.000E+01  2.000E+04 -5.867E-02
   1   16   12     1    12    1.0971E+05 -2.0412E+03   1.1175E+05  0.000E+00  0.000E+00  0.000E+00  4.31651E+01  1.538E-01  2.000E+01  2.000E+04 -1.021E-01
   1   15   13     1    13    1.1175E+05 -1.8639E+03   1.1361E+05  0.000E+00  0.000E+00  0.000E+00  4.26895E+01  1.554E-01  2.000E+01  2.000E+04 -9.320E-02
   1   14   14     1    14    1.1361E+05 -1.9209E+03   1.1553E+05  0.000E+00  0.000E+00  0.000E+00  4.22138E+01  1.570E-01  2.000E+01  2.000E+04 -9.605E-02
   1   13   15     1    15    1.1553E+05 -1.8283E+03   1.1736E+05  0.000E+00  0.000E+00  0.000E+00  4.17380E+01  1.585E-01  2.000E+01  2.000E+04 -9.141E-02
   1   12   16     1    16    1.1736E+05 -1.4780E+03   1.1884E+05  0.000E+00  0.000E+00  0.000E+00  4.12621E+01  1.598E-01  2.000E+01  2.000E+04 -7.390E-02
   1   12   17     1    17    1.1884E+05 -1.0792E+03   1.1992E+05  0.000E+00  0.000E+00  0.000E+00  4.07859E+01  1.609E-01  2.000E+01  2.000E+04 -5.396E-02
   1   12   18     1    18    1.1992E+05 -1.2164E+03   1.2113E+05  0.000E+00  0.000E+00  0.000E+00  4.03095E+01  1.618E-01  2.000E+01  2.000E+04 -6.082E-02
   1   12   19     1    19    1.2113E+05 -1.8128E+03   1.2295E+05  0.000E+00  0.000E+00  0.000E+00  3.98335E+01  1.630E-01  2.000E+01  2.000E+04 -9.064E-02
   1   13   20     1    20    1.2295E+05 -1.8736E+03   1.2482E+05  0.000E+00  0.000E+00  0.000E+00  3.93577E+01  1.645E-01  2.000E+01  2.000E+04 -9.368E-02
   1   14   21     1    21    1.2482E+05 -1.9238E+03   1.2674E+05  0.000E+00  0.000E+00  0.000E+00  3.88819E+01  1.660E-01  2.000E+01  2.000E+04 -9.619E-02
   1   14   22     1    22    1.2674E+05  4.7625E+03   1.2198E+05  0.000E+00  0.000E+00  0.000E+00  3.84035E+01  1.649E-01  2.000E+01  2.000E+04  2.381E-01
   1    9   30     2     1    5.0000E+04 -1.9953E+02   5.0200E+04  0.000E+00  0.000E+00  0.000E+00  4.02410E+01  1.160E-01  2.000E+01  2.000E+04 -9.977E-03
   1    9   29     2     2    5.0200E+04 -5.4609E+02   5.0746E+04  0.000E+00  0.000E+00  0.000E+00  3.99915E+01  1.165E-01  2.000E+01  2.000E+04 -2.730E-02
   1    9   28     2     3    5.0746E+04 -9.0643E+02   5.1652E+04  0.000E+00  0.000E+00  0.000E+00  3.97425E+01  1.175E-01  2.000E+01  2.000E+04 -4.532E-02
   1    9   27     2     4    5.1652E+04 -2.3085E+03   5.3961E+04  0.000E+00  0.000E+00  0.000E+00  3.94947E+01  1.197E-01  2.000E+01  2.000E+04 -1.154E-01
   1   10   26     2     5    5.3961E+04 -1.2156E+03   5.5176E+04  0.000E+00  0.000E+00  0.000E+00  3.92471E+01  1.221E-01  2.000E+01  2.000E+04 -6.078E-02
   1   11   25     2     6    5.5176E+04 -1.0847E+03   5.6261E+04  0.000E+00  0.000E+00  0.000E+00  3.89986E+01  1.236E-01  2.000E+01  2.000E+04 -5.424E-02
   1   12   24     2     7    5.6261E+04 -1.3724E+03   5.7633E+04  0.000E+00  0.000E+00  0.000E+00  3.87503E+01  1.253E-01  2.000E+01  2.000E+04 -6.862E-02
   1   13   23     2     8    5.7633E+04 -3.0790E+02   5.7941E+04  0.000E+00  0.000E+00  0.000E+00  3.85014E+01  1.264E-01  2.000E+01  2.000E+04 -1.539E-02
   1   14   22     2     9    5.7941E+04  1.7016E+03   5.6240E+04  0.000E+00  0.000E+00  0.000E+00  3.82505E+01  1.255E-01  2.000E+01  2.000E+04  8.508E-02
   1   14   22     3     1    1.7822E+05 -8.7512E+03   1.8697E+05  0.000E+00  0.000E+00  0.000E+00  3.77278E+01  1.723E-01  2.000E+01  2.000E+04 -4.376E-01
   1   15   23     3     2    1.8697E+05 -6.4906E+02   1.8762E+05  0.000E+00  0.000E+00  0.000E+00  3.68416E+01  1.749E-01  2.000E+01  2.000E+04 -3.245E-02
   1   15   24     3     3    1.8762E+05 -3.5986E+02   1.8798E+05  0.000E+00  0.000E+00  0.000E+00  3.59530E+01  1.752E-01  2.000E+01  2.000E+04 -1.799E-02
   1   15   25     3     4    1.8798E+05 -3.2702E+02   1.8831E+05  0.000E+00  0.000E+00  0.000E+00  3.50643E+01  1.754E-01  2.000E+01  2.000E+04 -1.635E-02
   1   15   26     3     5    1.8831E+05 -1.9107E+02   1.8850E+05  0.000E+00  0.000E+00  0.000E+00  3.41755E+01  1.755E-01  2.000E+01  2.000E+04 -9.553E-03
   1   16   27     3     6    1.8850E+05 -1.2255E+00   1.8850E+05  0.000E+00  0.000E+00  0.000E+00  3.32867E+01  1.756E-01  2.000E+01  2.000E+04 -6.127E-05
   1   17   28     3     7    1.8850E+05  2.0522E+03   1.8645E+05  0.000E+00  0.000E+00  0.000E+00  3.23972E+01  1.750E-01  2.000E+01  2.000E+04  1.026E-01
   1   18   29     3     8    1.8645E+05  1.3700E+03   1.8508E+05  0.000E+00  0.000E+00  0.000E+00  3.15074E+01  1.741E-01  2.000E+01  2.000E+04  6.850E-02
   1   18   30     3     9    1.8508E+05 -1.0908E+03   1.8617E+05  0.000E+00  0.000E+00  0.000E+00  3.06184E+01  1.740E-01  2.000E+01  2.000E+04 -5.454E-02



1
              HEAD IN LAYER   1 AT END OF TIME STEP   1 IN STRESS PERIOD    6
  ---------------------------------------------------------------------------

          1      2      3      4      5      6      7      8      9     10
         11     12     13     14     15     16     17     18     19     20
         21     22     23     24     25     26     27     28     29     30
 .........................................................................
   1  ****** ****** ****** ****** ****** ****** ****** ****** ****** ******
      ****** ****** ****** ****** ****** ****** ****** ****** ****** ******
      ****** ****** ****** ****** ****** ****** ****** ****** ****** ******
   2  ****** ****** ****** ****** ****** ****** ****** ****** ****** ******
      ****** ****** ****** ****** ****** ****** ****** ****** ****** ******
      ****** ****** ****** ****** ****** ****** ****** ****** ****** ******
   3  ****** ****** ****** ****** ****** ****** ****** ****** ****** ******
      ****** ****** ****** ****** ****** ****** ****** ****** ****** ******
      ****** ****** ****** ****** ****** ****** ****** ****** ****** ******
   4  ****** ****** ****** ****** ****** ****** ****** ****** ****** ******
      ****** ****** ****** ****** ****** ****** ****** ****** ****** ******
      ****** ****** ****** ****** ****** ****** ****** ****** ****** ******
   5  ****** ****** ****** ****** ****** ****** ****** ****** ****** ******
      ****** ****** ****** ****** ****** ****** ****** ****** ****** ******
      ****** ****** ****** ****** ****** ****** ****** ****** ****** ******
   6  ****** ****** ****** ****** ****** ****** ****** ****** ****** ******
      ****** ****** ****** ****** ****** ****** ****** ****** ****** ******
      ****** ****** ****** ****** ****** ****** ****** ****** ****** ******
   7  ****** ****** ****** ****** ****** ****** ****** ****** ****** ******
      ****** ****** ****** ****** ****** ****** ****** ****** ****** ******
      ****** ****** ****** ****** ****** ****** ****** ****** ****** ******
   8  ****** ****** ****** ****** ****** ****** ****** ****** ****** ******
      ****** ****** ****** ****** ****** ****** ****** ****** ****** ******
      ****** ****** ****** ****** ****** ****** ****** ****** ****** ******
   9  ****** ****** ****** ****** ****** ****** ****** ****** ****** ******
      ****** ****** ****** ****** ****** ****** ****** ****** ****** ******
      ****** ****** ****** ****** ****** ****** ****** ****** ****** ******
  10  ****** ****** ****** ****** ****** ****** ****** ****** ****** ******
      ****** ****** ****** ****** ****** ****** ****** ****** ****** ******
      ****** ****** ****** ****** ****** ****** ****** ****** ****** ******
  11  ****** ****** ****** ****** ****** ****** ****** ****** ****** ******
      ****** ****** ****** ****** ****** ****** ****** ****** ****** ******
      ****** ****** ****** ****** ****** ****** ****** ****** ****** ******
  12  ****** ****** ****** ****** ****** ****** ****** ****** ****** ******
      ****** ****** ****** ****** ****** ****** ****** ****** ****** ******
      ****** ****** ****** ****** ****** ****** ****** ****** ****** ******
  13  ****** ****** ****** ****** ****** ****** ****** ****** ****** ******
      ****** ****** ****** ****** ****** ****** ****** ****** ****** ******
      ****** ****** ****** ****** ****** ****** ****** ****** ****** ******
  14  ****** ****** ****** ****** ****** ****** ****** ****** ****** ******
      ****** ****** ****** ****** ****** ****** ****** ****** ****** ******
      ****** ****** ****** ****** ****** ****** ****** ****** ****** ******
  15  ****** ****** ****** ****** ****** ****** ****** ****** ****** ******
      ****** ****** ****** ****** ****** ****** ****** ****** ****** ******
      ****** ****** ****** ****** ****** ****** ****** ****** ****** ******
  16  ****** ****** ****** ****** ****** ****** ****** ****** ****** ******
      ****** ****** ****** ****** ****** ****** ****** ****** ****** ******
      ****** ****** ****** ****** ****** ****** ****** ****** ****** ******
  17  ****** ****** ****** ****** ****** ****** ****** ****** ****** ******
      ****** ****** ****** ****** ****** ****** ****** ****** ****** ******
      ****** ****** ****** ****** ****** ****** ****** ****** ****** ******
  18  ****** ****** ****** ****** ****** ****** ****** ****** ****** ******
      ****** ****** ****** ****** ****** ****** ****** ****** ****** ******
      ****** ****** ****** ****** ****** ****** ****** ****** ****** ******
  19  ****** ****** ****** ****** ****** ****** ****** ****** ****** ******
      ****** ****** ****** ****** ****** ****** ****** ****** ****** ******
      ****** ****** ****** ****** ****** ****** ****** ****** ****** ******
  20  ****** ****** ****** ****** ****** ****** ****** ****** ****** ******
      ****** ****** ****** ****** ****** ****** ****** ****** ****** ******
      ****** ****** ****** ****** ****** ****** ****** ****** ****** ******
  21  ****** ****** ****** ****** ****** ****** ****** ****** ****** ******
      ****** ****** ****** ****** ****** ****** ****** ****** ****** ******
      ****** ****** ****** ****** ****** ****** ****** ****** ****** ******
  22  ****** ****** ****** ****** ****** ****** ****** ****** ****** ******
      ****** ****** ****** ****** ****** ****** ****** ****** ****** ******
      ****** ****** ****** ****** ****** ****** ****** ****** ****** ******
  23  ****** ****** ****** ****** ****** ****** ****** ****** ****** ******
      ****** ****** ****** ****** ****** ****** ****** ****** ****** ******
      ****** ****** ****** ****** ****** ****** ****** ****** ****** ******
  24  ****** ****** ****** ****** ****** ****** ****** ****** ****** ******
      ****** ****** ****** ****** ****** ****** ****** ****** ****** ******
      ****** ****** ****** ****** ****** ****** ****** ****** ****** ******
  25  ****** ****** ****** ****** ****** ****** ****** ****** ****** ******
      ****** ****** ****** ****** ****** ****** ****** ****** ****** ******
      ****** ****** ****** ****** ****** ****** ****** ****** ****** ******

 HEAD WILL BE SAVED ON UNIT   51 AT END OF TIME STEP    1, STRESS PERIOD    6
1
  VOLUMETRIC BUDGET FOR ENTIRE MODEL AT END OF TIME STEP    1, STRESS PERIOD   6
  ------------------------------------------------------------------------------

     CUMULATIVE VOLUMES      L**3       RATES FOR THIS TIME STEP      L**3/T
     ------------------                 ------------------------

           IN:                                      IN:
           ---                                      ---
             STORAGE =    32111687.7953               STORAGE =           3.1936
       CONSTANT HEAD =    13578777.8131         CONSTANT HEAD =       30414.3554
               WELLS =           0.0000                 WELLS =           0.0000
            RECHARGE =    15097200.0000              RECHARGE =       55200.0000
      STREAM LEAKAGE =     4908155.0401        STREAM LEAKAGE =       10522.4500

            TOTAL IN =    65695820.6486              TOTAL IN =       96139.9990

          OUT:                                     OUT:
          ----                                     ----
             STORAGE =      749303.4691               STORAGE =        8228.5832
       CONSTANT HEAD =           0.0000         CONSTANT HEAD =           0.0000
               WELLS =    22587897.0226                 WELLS =       41218.7902
            RECHARGE =           0.0000              RECHARGE =           0.0000
      STREAM LEAKAGE =    42358622.3910        STREAM LEAKAGE =       46692.6227

           TOTAL OUT =    65695822.8827             TOTAL OUT =       96139.9961

            IN - OUT =          -2.2341              IN - OUT =       2.9084E-03

 PERCENT DISCREPANCY =          -0.00     PERCENT DISCREPANCY =           0.00






         TIME SUMMARY AT END OF TIME STEP    1 IN STRESS PERIOD    6
                    SECONDS     MINUTES      HOURS       DAYS        YEARS
                    -----------------------------------------------------------
   TIME STEP LENGTH 7.86240E+06 1.31040E+05  2184.0      91.000     0.24914    
 STRESS PERIOD TIME 7.86240E+06 1.31040E+05  2184.0      91.000     0.24914    
         TOTAL TIME 4.73472E+07 7.89120E+05  13152.      548.00      1.5003    
1
1
                            STRESS PERIOD NO.    7, LENGTH =   91.00000    
                            -----------------------------------------------

                              NUMBER OF TIME STEPS =     1

                               MULTIPLIER FOR DELT =     1.500

                            INITIAL TIME STEP SIZE =   91.00000    

 WELL NO.  LAYER   ROW   COL   STRESS RATE         
 --------------------------------------------------
      1      1      8     16     -0.1474E+05
      2      1     14     29      -8048.    
      3      1     19     28      -9398.    
      4      1     18      3      -9037.    

      4 WELLS

                 RECHARGE =   0.00000    

 REUSING STREAM SEGMENT DATA FROM LAST STRESS PERIOD
 
 SOLVING FOR HEAD 


     7 CALLS TO PCG ROUTINE FOR TIME STEP   1 IN STRESS PERIOD    7
    26 TOTAL ITERATIONS

 OUTPUT CONTROL FOR STRESS PERIOD    7   TIME STEP    1
    SAVE BUDGET
    SAVE HEAD FOR ALL LAYERS
    PRINT HEAD FOR ALL LAYERS
 UBDSV2 SAVING "STREAMFLOW OUT  " ON UNIT  50 AT TIME STEP  1, STRESS PERIOD   7



 STREAM LISTING     PERIOD      7   STEP        1

 LAYER ROW COL. STREAM  RCH.  FLOW INTO     FLOW TO   FLOW OUT OF   OVRLND.     DIRECT     STREAM       STREAM     STREAM     STREAM   STREAMBED  STREAMBED
                SEG.NO.  NO.  STRM. RCH.    AQUIFER    STRM. RCH.    RUNOFF     PRECIP       ET          HEAD       DEPTH      WIDTH   CONDCTNC.   GRADIENT

   1   13    1     1     1    1.0000E+05 -8.4766E+02   1.0085E+05  0.000E+00  0.000E+00  0.000E+00  4.84064E+01  1.450E-01  2.000E+01  2.000E+04 -4.238E-02
   1   13    2     1     2    1.0085E+05 -1.8368E+03   1.0268E+05  0.000E+00  0.000E+00  0.000E+00  4.79303E+01  1.462E-01  2.000E+01  2.000E+04 -9.184E-02
   1   14    3     1     3    1.0268E+05 -1.2177E+02   1.0281E+05  0.000E+00  0.000E+00  0.000E+00  4.74538E+01  1.470E-01  2.000E+01  2.000E+04 -6.088E-03
   1   15    4     1     4    1.0281E+05  6.4374E+01   1.0274E+05  0.000E+00  0.000E+00  0.000E+00  4.69766E+01  1.470E-01  2.000E+01  2.000E+04  3.219E-03
   1   16    5     1     5    1.0274E+05  1.3979E+03   1.0134E+05  0.000E+00  0.000E+00  0.000E+00  4.64987E+01  1.464E-01  2.000E+01  2.000E+04  6.990E-02
   1   16    6     1     6    1.0134E+05 -4.8900E+01   1.0139E+05  0.000E+00  0.000E+00  0.000E+00  4.60208E+01  1.458E-01  2.000E+01  2.000E+04 -2.445E-03
   1   16    7     1     7    1.0139E+05 -3.6484E+02   1.0176E+05  0.000E+00  0.000E+00  0.000E+00  4.55437E+01  1.460E-01  2.000E+01  2.000E+04 -1.824E-02
   1   16    8     1     8    1.0176E+05 -5.3553E+02   1.0229E+05  0.000E+00  0.000E+00  0.000E+00  4.50669E+01  1.464E-01  2.000E+01  2.000E+04 -2.678E-02
   1   16    9     1     9    1.0229E+05 -6.3613E+02   1.0293E+05  0.000E+00  0.000E+00  0.000E+00  4.45901E+01  1.469E-01  2.000E+01  2.000E+04 -3.181E-02
   1   16   10     1    10    1.0293E+05 -6.9557E+02   1.0362E+05  0.000E+00  0.000E+00  0.000E+00  4.41134E+01  1.475E-01  2.000E+01  2.000E+04 -3.478E-02
   1   16   11     1    11    1.0362E+05 -7.4540E+02   1.0437E+05  0.000E+00  0.000E+00  0.000E+00  4.36367E+01  1.481E-01  2.000E+01  2.000E+04 -3.727E-02
   1   16   12     1    12    1.0437E+05 -1.3219E+03   1.0569E+05  0.000E+00  0.000E+00  0.000E+00  4.31603E+01  1.490E-01  2.000E+01  2.000E+04 -6.610E-02
   1   15   13     1    13    1.0569E+05 -1.0908E+03   1.0678E+05  0.000E+00  0.000E+00  0.000E+00  4.26841E+01  1.500E-01  2.000E+01  2.000E+04 -5.454E-02
   1   14   14     1    14    1.0678E+05 -1.1182E+03   1.0790E+05  0.000E+00  0.000E+00  0.000E+00  4.22078E+01  1.509E-01  2.000E+01  2.000E+04 -5.591E-02
   1   13   15     1    15    1.0790E+05 -1.0219E+03   1.0892E+05  0.000E+00  0.000E+00  0.000E+00  4.17314E+01  1.518E-01  2.000E+01  2.000E+04 -5.110E-02
   1   12   16     1    16    1.0892E+05 -6.7479E+02   1.0960E+05  0.000E+00  0.000E+00  0.000E+00  4.12548E+01  1.525E-01  2.000E+01  2.000E+04 -3.374E-02
   1   12   17     1    17    1.0960E+05 -4.9732E+02   1.1010E+05  0.000E+00  0.000E+00  0.000E+00  4.07780E+01  1.530E-01  2.000E+01  2.000E+04 -2.487E-02
   1   12   18     1    18    1.1010E+05 -6.4941E+02   1.1074E+05  0.000E+00  0.000E+00  0.000E+00  4.03012E+01  1.535E-01  2.000E+01  2.000E+04 -3.247E-02
   1   12   19     1    19    1.1074E+05 -1.1202E+03   1.1186E+05  0.000E+00  0.000E+00  0.000E+00  3.98247E+01  1.543E-01  2.000E+01  2.000E+04 -5.601E-02
   1   13   20     1    20    1.1186E+05 -1.2019E+03   1.1307E+05  0.000E+00  0.000E+00  0.000E+00  3.93484E+01  1.552E-01  2.000E+01  2.000E+04 -6.009E-02
   1   14   21     1    21    1.1307E+05 -1.2621E+03   1.1433E+05  0.000E+00  0.000E+00  0.000E+00  3.88721E+01  1.562E-01  2.000E+01  2.000E+04 -6.311E-02
   1   14   22     1    22    1.1433E+05  4.9187E+03   1.0941E+05  0.000E+00  0.000E+00  0.000E+00  3.83934E+01  1.547E-01  2.000E+01  2.000E+04  2.459E-01
   1    9   30     2     1    5.0000E+04  3.1554E+02   4.9684E+04  0.000E+00  0.000E+00  0.000E+00  4.02406E+01  1.156E-01  2.000E+01  2.000E+04  1.578E-02
   1    9   29     2     2    4.9684E+04 -3.2687E+01   4.9717E+04  0.000E+00  0.000E+00  0.000E+00  3.99904E+01  1.154E-01  2.000E+01  2.000E+04 -1.634E-03
   1    9   28     2     3    4.9717E+04 -3.9136E+02   5.0109E+04  0.000E+00  0.000E+00  0.000E+00  3.97407E+01  1.157E-01  2.000E+01  2.000E+04 -1.957E-02
   1    9   27     2     4    5.0109E+04 -1.6073E+03   5.1716E+04  0.000E+00  0.000E+00  0.000E+00  3.94921E+01  1.171E-01  2.000E+01  2.000E+04 -8.036E-02
   1   10   26     2     5    5.1716E+04 -5.1302E+02   5.2229E+04  0.000E+00  0.000E+00  0.000E+00  3.92436E+01  1.186E-01  2.000E+01  2.000E+04 -2.565E-02
   1   11   25     2     6    5.2229E+04 -4.1102E+02   5.2640E+04  0.000E+00  0.000E+00  0.000E+00  3.89942E+01  1.192E-01  2.000E+01  2.000E+04 -2.055E-02
   1   12   24     2     7    5.2640E+04 -7.5791E+02   5.3398E+04  0.000E+00  0.000E+00  0.000E+00  3.87450E+01  1.200E-01  2.000E+01  2.000E+04 -3.790E-02
   1   13   23     2     8    5.3398E+04 -1.1554E+02   5.3513E+04  0.000E+00  0.000E+00  0.000E+00  3.84956E+01  1.206E-01  2.000E+01  2.000E+04 -5.777E-03
   1   14   22     2     9    5.3513E+04  1.9389E+03   5.1574E+04  0.000E+00  0.000E+00  0.000E+00  3.82444E+01  1.194E-01  2.000E+01  2.000E+04  9.694E-02
   1   14   22     3     1    1.6098E+05 -8.5920E+03   1.6958E+05  0.000E+00  0.000E+00  0.000E+00  3.77178E+01  1.623E-01  2.000E+01  2.000E+04 -4.296E-01
   1   15   23     3     2    1.6958E+05 -4.4277E+02   1.7002E+05  0.000E+00  0.000E+00  0.000E+00  3.68316E+01  1.649E-01  2.000E+01  2.000E+04 -2.214E-02
   1   15   24     3     3    1.7002E+05 -1.8628E+02   1.7021E+05  0.000E+00  0.000E+00  0.000E+00  3.59429E+01  1.651E-01  2.000E+01  2.000E+04 -9.314E-03
   1   15   25     3     4    1.7021E+05 -1.5032E+02   1.7036E+05  0.000E+00  0.000E+00  0.000E+00  3.50541E+01  1.652E-01  2.000E+01  2.000E+04 -7.516E-03
   1   15   26     3     5    1.7036E+05  1.0186E+01   1.7035E+05  0.000E+00  0.000E+00  0.000E+00  3.41652E+01  1.652E-01  2.000E+01  2.000E+04  5.093E-04
   1   16   27     3     6    1.7035E+05  2.3116E+02   1.7011E+05  0.000E+00  0.000E+00  0.000E+00  3.32763E+01  1.652E-01  2.000E+01  2.000E+04  1.156E-02
   1   17   28     3     7    1.7011E+05  2.6939E+03   1.6742E+05  0.000E+00  0.000E+00  0.000E+00  3.23865E+01  1.643E-01  2.000E+01  2.000E+04  1.347E-01
   1   18   29     3     8    1.6742E+05  2.0565E+03   1.6536E+05  0.000E+00  0.000E+00  0.000E+00  3.14963E+01  1.629E-01  2.000E+01  2.000E+04  1.028E-01
   1   18   30     3     9    1.6536E+05 -5.6218E+02   1.6593E+05  0.000E+00  0.000E+00  0.000E+00  3.06069E+01  1.625E-01  2.000E+01  2.000E+04 -2.811E-02



1
              HEAD IN LAYER   1 AT END OF TIME STEP   1 IN STRESS PERIOD    7
  ---------------------------------------------------------------------------

          1      2      3      4      5      6      7      8      9     10
         11     12     13     14     15     16     17     18     19     20
         21     22     23     24     25     26     27     28     29     30
 .........................................................................
   1  ****** ****** ****** ****** ****** ****** ****** ****** ****** ******
      ****** ****** ****** ****** ****** ****** ****** ****** ****** ******
      ****** ****** ****** ****** ****** ****** ****** ****** ****** ******
   2  ****** ****** ****** ****** ****** ****** ****** ****** ****** ******
      ****** ****** ****** ****** ****** ****** ****** ****** ****** ******
      ****** ****** ****** ****** ****** ****** ****** ****** ****** ******
   3  ****** ****** ****** ****** ****** ****** ****** ****** ****** ******
      ****** ****** ****** ****** ****** ****** ****** ****** ****** ******
      ****** ****** ****** ****** ****** ****** ****** ****** ****** ******
   4  ****** ****** ****** ****** ****** ****** ****** ****** ****** ******
      ****** ****** ****** ****** ****** ****** ****** ****** ****** ******
      ****** ****** ****** ****** ****** ****** ****** ****** ****** ******
   5  ****** ****** ****** ****** ****** ****** ****** ****** ****** ******
      ****** ****** ****** ****** ****** ****** ****** ****** ****** ******
      ****** ****** ****** ****** ****** ****** ****** ****** ****** ******
   6  ****** ****** ****** ****** ****** ****** ****** ****** ****** ******
      ****** ****** ****** ****** ****** ****** ****** ****** ****** ******
      ****** ****** ****** ****** ****** ****** ****** ****** ****** ******
   7  ****** ****** ****** ****** ****** ****** ****** ****** ****** ******
      ****** ****** ****** ****** ****** ****** ****** ****** ****** ******
      ****** ****** ****** ****** ****** ****** ****** ****** ****** ******
   8  ****** ****** ****** ****** ****** ****** ****** ****** ****** ******
      ****** ****** ****** ****** ****** ****** ****** ****** ****** ******
      ****** ****** ****** ****** ****** ****** ****** ****** ****** ******
   9  ****** ****** ****** ****** ****** ****** ****** ****** ****** ******
      ****** ****** ****** ****** ****** ****** ****** ****** ****** ******
      ****** ****** ****** ****** ****** ****** ****** ****** ****** ******
  10  ****** ****** ****** ****** ****** ****** ****** ****** ****** ******
      ****** ****** ****** ****** ****** ****** ****** ****** ****** ******
      ****** ****** ****** ****** ****** ****** ****** ****** ****** ******
  11  ****** ****** ****** ****** ****** ****** ****** ****** ****** ******
      ****** ****** ****** ****** ****** ****** ****** ****** ****** ******
      ****** ****** ****** ****** ****** ****** ****** ****** ****** ******
  12  ****** ****** ****** ****** ****** ****** ****** ****** ****** ******
      ****** ****** ****** ****** ****** ****** ****** ****** ****** ******
      ****** ****** ****** ****** ****** ****** ****** ****** ****** ******
  13  ****** ****** ****** ****** ****** ****** ****** ****** ****** ******
      ****** ****** ****** ****** ****** ****** ****** ****** ****** ******
      ****** ****** ****** ****** ****** ****** ****** ****** ****** ******
  14  ****** ****** ****** ****** ****** ****** ****** ****** ****** ******
      ****** ****** ****** ****** ****** ****** ****** ****** ****** ******
      ****** ****** ****** ****** ****** ****** ****** ****** ****** ******
  15  ****** ****** ****** ****** ****** ****** ****** ****** ****** ******
      ****** ****** ****** ****** ****** ****** ****** ****** ****** ******
      ****** ****** ****** ****** ****** ****** ****** ****** ****** ******
  16  ****** ****** ****** ****** ****** ****** ****** ****** ****** ******
      ****** ****** ****** ****** ****** ****** ****** ****** ****** ******
      ****** ****** ****** ****** ****** ****** ****** ****** ****** ******
  17  ****** ****** ****** ****** ****** ****** ****** ****** ****** ******
      ****** ****** ****** ****** ****** ****** ****** ****** ****** ******
      ****** ****** ****** ****** ****** ****** ****** ****** ****** ******
  18  ****** ****** ****** ****** ****** ****** ****** ****** ****** ******
      ****** ****** ****** ****** ****** ****** ****** ****** ****** ******
      ****** ****** ****** ****** ****** ****** ****** ****** ****** ******
  19  ****** ****** ****** ****** ****** ****** ****** ****** ****** ******
      ****** ****** ****** ****** ****** ****** ****** ****** ****** ******
      ****** ****** ****** ****** ****** ****** ****** ****** ****** ******
  20  ****** ****** ****** ****** ****** ****** ****** ****** ****** ******
      ****** ****** ****** ****** ****** ****** ****** ****** ****** ******
      ****** ****** ****** ****** ****** ****** ****** ****** ****** ******
  21  ****** ****** ****** ****** ****** ****** ****** ****** ****** ******
      ****** ****** ****** ****** ****** ****** ****** ****** ****** ******
      ****** ****** ****** ****** ****** ****** ****** ****** ****** ******
  22  ****** ****** ****** ****** ****** ****** ****** ****** ****** ******
      ****** ****** ****** ****** ****** ****** ****** ****** ****** ******
      ****** ****** ****** ****** ****** ****** ****** ****** ****** ******
  23  ****** ****** ****** ****** ****** ****** ****** ****** ****** ******
      ****** ****** ****** ****** ****** ****** ****** ****** ****** ******
      ****** ****** ****** ****** ****** ****** ****** ****** ****** ******
  24  ****** ****** ****** ****** ****** ****** ****** ****** ****** ******
      ****** ****** ****** ****** ****** ****** ****** ****** ****** ******
      ****** ****** ****** ****** ****** ****** ****** ****** ****** ******
  25  ****** ****** ****** ****** ****** ****** ****** ****** ****** ******
      ****** ****** ****** ****** ****** ****** ****** ****** ****** ******
      ****** ****** ****** ****** ****** ****** ****** ****** ****** ******

 HEAD WILL BE SAVED ON UNIT   51 AT END OF TIME STEP    1, STRESS PERIOD    7
1
  VOLUMETRIC BUDGET FOR ENTIRE MODEL AT END OF TIME STEP    1, STRESS PERIOD   7
  ------------------------------------------------------------------------------

     CUMULATIVE VOLUMES      L**3       RATES FOR THIS TIME STEP      L**3/T
     ------------------                 ------------------------

           IN:                                      IN:
           ---                                      ---
             STORAGE =    34182341.0691               STORAGE =       22754.4316
       CONSTANT HEAD =    16708332.7703         CONSTANT HEAD =       34390.7138
               WELLS =           0.0000                 WELLS =           0.0000
            RECHARGE =    15097200.0000              RECHARGE =           0.0000
      STREAM LEAKAGE =     6148228.4745        STREAM LEAKAGE =       13627.1806

            TOTAL IN =    72136102.3139              TOTAL IN =       70772.3260

          OUT:                                     OUT:
          ----                                     ----
             STORAGE =      749303.4691               STORAGE =           0.0000
       CONSTANT HEAD =           0.0000         CONSTANT HEAD =           0.0000
               WELLS =    26338806.9296                 WELLS =       41218.7902
            RECHARGE =           0.0000              RECHARGE =           0.0000
      STREAM LEAKAGE =    45047994.6742        STREAM LEAKAGE =       29553.5416

           TOTAL OUT =    72136105.0730             TOTAL OUT =       70772.3318

            IN - OUT =          -2.7590              IN - OUT =      -5.7682E-03

 PERCENT DISCREPANCY =          -0.00     PERCENT DISCREPANCY =          -0.00






         TIME SUMMARY AT END OF TIME STEP    1 IN STRESS PERIOD    7
                    SECONDS     MINUTES      HOURS       DAYS        YEARS
                    -----------------------------------------------------------
   TIME STEP LENGTH 7.86240E+06 1.31040E+05  2184.0      91.000     0.24914    
 STRESS PERIOD TIME 7.86240E+06 1.31040E+05  2184.0      91.000     0.24914    
         TOTAL TIME 5.52096E+07 9.20160E+05  15336.      639.00      1.7495    
1
1
                            STRESS PERIOD NO.    8, LENGTH =   91.00000    
                            -----------------------------------------------

                              NUMBER OF TIME STEPS =     1

                               MULTIPLIER FOR DELT =     1.500

                            INITIAL TIME STEP SIZE =   91.00000    

 WELL NO.  LAYER   ROW   COL   STRESS RATE         
 --------------------------------------------------
      1      1      8     16     -0.1474E+05
      2      1     14     29      -8048.    
      3      1     19     28      -9398.    
      4      1     18      3      -9037.    

      4 WELLS

                 RECHARGE =  1.000000E-03

 REUSING STREAM SEGMENT DATA FROM LAST STRESS PERIOD
 
 SOLVING FOR HEAD 


     6 CALLS TO PCG ROUTINE FOR TIME STEP   1 IN STRESS PERIOD    8
    22 TOTAL ITERATIONS

 OUTPUT CONTROL FOR STRESS PERIOD    8   TIME STEP    1
    SAVE BUDGET
    SAVE HEAD FOR ALL LAYERS
    PRINT HEAD FOR ALL LAYERS
 UBDSV2 SAVING "STREAMFLOW OUT  " ON UNIT  50 AT TIME STEP  1, STRESS PERIOD   8



 STREAM LISTING     PERIOD      8   STEP        1

 LAYER ROW COL. STREAM  RCH.  FLOW INTO     FLOW TO   FLOW OUT OF   OVRLND.     DIRECT     STREAM       STREAM     STREAM     STREAM   STREAMBED  STREAMBED
                SEG.NO.  NO.  STRM. RCH.    AQUIFER    STRM. RCH.    RUNOFF     PRECIP       ET          HEAD       DEPTH      WIDTH   CONDCTNC.   GRADIENT

   1   13    1     1     1    1.0000E+05 -9.1249E+02   1.0091E+05  0.000E+00  0.000E+00  0.000E+00  4.84064E+01  1.450E-01  2.000E+01  2.000E+04 -4.562E-02
   1   13    2     1     2    1.0091E+05 -1.9000E+03   1.0281E+05  0.000E+00  0.000E+00  0.000E+00  4.79304E+01  1.463E-01  2.000E+01  2.000E+04 -9.500E-02
   1   14    3     1     3    1.0281E+05 -1.8420E+02   1.0300E+05  0.000E+00  0.000E+00  0.000E+00  4.74540E+01  1.472E-01  2.000E+01  2.000E+04 -9.210E-03
   1   15    4     1     4    1.0300E+05 -2.8084E+00   1.0300E+05  0.000E+00  0.000E+00  0.000E+00  4.69768E+01  1.472E-01  2.000E+01  2.000E+04 -1.404E-04
   1   16    5     1     5    1.0300E+05  1.2283E+03   1.0177E+05  0.000E+00  0.000E+00  0.000E+00  4.64990E+01  1.467E-01  2.000E+01  2.000E+04  6.141E-02
   1   16    6     1     6    1.0177E+05 -1.5338E+02   1.0192E+05  0.000E+00  0.000E+00  0.000E+00  4.60212E+01  1.462E-01  2.000E+01  2.000E+04 -7.669E-03
   1   16    7     1     7    1.0192E+05 -4.6448E+02   1.0239E+05  0.000E+00  0.000E+00  0.000E+00  4.55442E+01  1.465E-01  2.000E+01  2.000E+04 -2.322E-02
   1   16    8     1     8    1.0239E+05 -6.3451E+02   1.0302E+05  0.000E+00  0.000E+00  0.000E+00  4.50674E+01  1.470E-01  2.000E+01  2.000E+04 -3.173E-02
   1   16    9     1     9    1.0302E+05 -7.3651E+02   1.0376E+05  0.000E+00  0.000E+00  0.000E+00  4.45908E+01  1.476E-01  2.000E+01  2.000E+04 -3.683E-02
   1   16   10     1    10    1.0376E+05 -7.9878E+02   1.0456E+05  0.000E+00  0.000E+00  0.000E+00  4.41141E+01  1.482E-01  2.000E+01  2.000E+04 -3.994E-02
   1   16   11     1    11    1.0456E+05 -8.5205E+02   1.0541E+05  0.000E+00  0.000E+00  0.000E+00  4.36376E+01  1.489E-01  2.000E+01  2.000E+04 -4.260E-02
   1   16   12     1    12    1.0541E+05 -1.4810E+03   1.0689E+05  0.000E+00  0.000E+00  0.000E+00  4.31613E+01  1.499E-01  2.000E+01  2.000E+04 -7.405E-02
   1   15   13     1    13    1.0689E+05 -1.2550E+03   1.0815E+05  0.000E+00  0.000E+00  0.000E+00  4.26852E+01  1.511E-01  2.000E+01  2.000E+04 -6.275E-02
   1   14   14     1    14    1.0815E+05 -1.2740E+03   1.0942E+05  0.000E+00  0.000E+00  0.000E+00  4.22090E+01  1.521E-01  2.000E+01  2.000E+04 -6.370E-02
   1   13   15     1    15    1.0942E+05 -1.1635E+03   1.1058E+05  0.000E+00  0.000E+00  0.000E+00  4.17327E+01  1.532E-01  2.000E+01  2.000E+04 -5.817E-02
   1   12   16     1    16    1.1058E+05 -7.7576E+02   1.1136E+05  0.000E+00  0.000E+00  0.000E+00  4.12562E+01  1.540E-01  2.000E+01  2.000E+04 -3.879E-02
   1   12   17     1    17    1.1136E+05 -6.0331E+02   1.1196E+05  0.000E+00  0.000E+00  0.000E+00  4.07795E+01  1.545E-01  2.000E+01  2.000E+04 -3.017E-02
   1   12   18     1    18    1.1196E+05 -7.6293E+02   1.1273E+05  0.000E+00  0.000E+00  0.000E+00  4.03028E+01  1.551E-01  2.000E+01  2.000E+04 -3.815E-02
   1   12   19     1    19    1.1273E+05 -1.2637E+03   1.1399E+05  0.000E+00  0.000E+00  0.000E+00  3.98264E+01  1.560E-01  2.000E+01  2.000E+04 -6.318E-02
   1   13   20     1    20    1.1399E+05 -1.3775E+03   1.1537E+05  0.000E+00  0.000E+00  0.000E+00  3.93502E+01  1.570E-01  2.000E+01  2.000E+04 -6.888E-02
   1   14   21     1    21    1.1537E+05 -1.4196E+03   1.1679E+05  0.000E+00  0.000E+00  0.000E+00  3.88741E+01  1.582E-01  2.000E+01  2.000E+04 -7.098E-02
   1   14   22     1    22    1.1679E+05  4.8711E+03   1.1192E+05  0.000E+00  0.000E+00  0.000E+00  3.83954E+01  1.568E-01  2.000E+01  2.000E+04  2.436E-01
   1    9   30     2     1    5.0000E+04  1.5366E+02   4.9846E+04  0.000E+00  0.000E+00  0.000E+00  4.02408E+01  1.158E-01  2.000E+01  2.000E+04  7.683E-03
   1    9   29     2     2    4.9846E+04 -1.9166E+02   5.0038E+04  0.000E+00  0.000E+00  0.000E+00  3.99908E+01  1.158E-01  2.000E+01  2.000E+04 -9.583E-03
   1    9   28     2     3    5.0038E+04 -5.4448E+02   5.0582E+04  0.000E+00  0.000E+00  0.000E+00  3.97413E+01  1.163E-01  2.000E+01  2.000E+04 -2.722E-02
   1    9   27     2     4    5.0582E+04 -1.7817E+03   5.2364E+04  0.000E+00  0.000E+00  0.000E+00  3.94929E+01  1.179E-01  2.000E+01  2.000E+04 -8.908E-02
   1   10   26     2     5    5.2364E+04 -7.1509E+02   5.3079E+04  0.000E+00  0.000E+00  0.000E+00  3.92446E+01  1.196E-01  2.000E+01  2.000E+04 -3.575E-02
   1   11   25     2     6    5.3079E+04 -6.1175E+02   5.3691E+04  0.000E+00  0.000E+00  0.000E+00  3.89955E+01  1.205E-01  2.000E+01  2.000E+04 -3.059E-02
   1   12   24     2     7    5.3691E+04 -9.3986E+02   5.4631E+04  0.000E+00  0.000E+00  0.000E+00  3.87466E+01  1.216E-01  2.000E+01  2.000E+04 -4.699E-02
   1   13   23     2     8    5.4631E+04 -1.8935E+02   5.4820E+04  0.000E+00  0.000E+00  0.000E+00  3.84973E+01  1.223E-01  2.000E+01  2.000E+04 -9.467E-03
   1   14   22     2     9    5.4820E+04  1.8864E+03   5.2934E+04  0.000E+00  0.000E+00  0.000E+00  3.82462E+01  1.212E-01  2.000E+01  2.000E+04  9.432E-02
   1   14   22     3     1    1.6485E+05 -8.6350E+03   1.7348E+05  0.000E+00  0.000E+00  0.000E+00  3.77201E+01  1.645E-01  2.000E+01  2.000E+04 -4.318E-01
   1   15   23     3     2    1.7348E+05 -5.0688E+02   1.7399E+05  0.000E+00  0.000E+00  0.000E+00  3.68339E+01  1.672E-01  2.000E+01  2.000E+04 -2.534E-02
   1   15   24     3     3    1.7399E+05 -2.4671E+02   1.7424E+05  0.000E+00  0.000E+00  0.000E+00  3.59452E+01  1.674E-01  2.000E+01  2.000E+04 -1.234E-02
   1   15   25     3     4    1.7424E+05 -2.1247E+02   1.7445E+05  0.000E+00  0.000E+00  0.000E+00  3.50564E+01  1.676E-01  2.000E+01  2.000E+04 -1.062E-02
   1   15   26     3     5    1.7445E+05 -6.4398E+01   1.7452E+05  0.000E+00  0.000E+00  0.000E+00  3.41676E+01  1.676E-01  2.000E+01  2.000E+04 -3.220E-03
   1   16   27     3     6    1.7452E+05  1.4945E+02   1.7437E+05  0.000E+00  0.000E+00  0.000E+00  3.32787E+01  1.676E-01  2.000E+01  2.000E+04  7.473E-03
   1   17   28     3     7    1.7437E+05  2.4906E+03   1.7188E+05  0.000E+00  0.000E+00  0.000E+00  3.23891E+01  1.668E-01  2.000E+01  2.000E+04  1.245E-01
   1   18   29     3     8    1.7188E+05  1.8918E+03   1.6998E+05  0.000E+00  0.000E+00  0.000E+00  3.14989E+01  1.656E-01  2.000E+01  2.000E+04  9.459E-02
   1   18   30     3     9    1.6998E+05 -7.0832E+02   1.7069E+05  0.000E+00  0.000E+00  0.000E+00  3.06097E+01  1.652E-01  2.000E+01  2.000E+04 -3.542E-02



1
              HEAD IN LAYER   1 AT END OF TIME STEP   1 IN STRESS PERIOD    8
  ---------------------------------------------------------------------------

          1      2      3      4      5      6      7      8      9     10
         11     12     13     14     15     16     17     18     19     20
         21     22     23     24     25     26     27     28     29     30
 .........................................................................
   1  ****** ****** ****** ****** ****** ****** ****** ****** ****** ******
      ****** ****** ****** ****** ****** ****** ****** ****** ****** ******
      ****** ****** ****** ****** ****** ****** ****** ****** ****** ******
   2  ****** ****** ****** ****** ****** ****** ****** ****** ****** ******
      ****** ****** ****** ****** ****** ****** ****** ****** ****** ******
      ****** ****** ****** ****** ****** ****** ****** ****** ****** ******
   3  ****** ****** ****** ****** ****** ****** ****** ****** ****** ******
      ****** ****** ****** ****** ****** ****** ****** ****** ****** ******
      ****** ****** ****** ****** ****** ****** ****** ****** ****** ******
   4  ****** ****** ****** ****** ****** ****** ****** ****** ****** ******
      ****** ****** ****** ****** ****** ****** ****** ****** ****** ******
      ****** ****** ****** ****** ****** ****** ****** ****** ****** ******
   5  ****** ****** ****** ****** ****** ****** ****** ****** ****** ******
      ****** ****** ****** ****** ****** ****** ****** ****** ****** ******
      ****** ****** ****** ****** ****** ****** ****** ****** ****** ******
   6  ****** ****** ****** ****** ****** ****** ****** ****** ****** ******
      ****** ****** ****** ****** ****** ****** ****** ****** ****** ******
      ****** ****** ****** ****** ****** ****** ****** ****** ****** ******
   7  ****** ****** ****** ****** ****** ****** ****** ****** ****** ******
      ****** ****** ****** ****** ****** ****** ****** ****** ****** ******
      ****** ****** ****** ****** ****** ****** ****** ****** ****** ******
   8  ****** ****** ****** ****** ****** ****** ****** ****** ****** ******
      ****** ****** ****** ****** ****** ****** ****** ****** ****** ******
      ****** ****** ****** ****** ****** ****** ****** ****** ****** ******
   9  ****** ****** ****** ****** ****** ****** ****** ****** ****** ******
      ****** ****** ****** ****** ****** ****** ****** ****** ****** ******
      ****** ****** ****** ****** ****** ****** ****** ****** ****** ******
  10  ****** ****** ****** ****** ****** ****** ****** ****** ****** ******
      ****** ****** ****** ****** ****** ****** ****** ****** ****** ******
      ****** ****** ****** ****** ****** ****** ****** ****** ****** ******
  11  ****** ****** ****** ****** ****** ****** ****** ****** ****** ******
      ****** ****** ****** ****** ****** ****** ****** ****** ****** ******
      ****** ****** ****** ****** ****** ****** ****** ****** ****** ******
  12  ****** ****** ****** ****** ****** ****** ****** ****** ****** ******
      ****** ****** ****** ****** ****** ****** ****** ****** ****** ******
      ****** ****** ****** ****** ****** ****** ****** ****** ****** ******
  13  ****** ****** ****** ****** ****** ****** ****** ****** ****** ******
      ****** ****** ****** ****** ****** ****** ****** ****** ****** ******
      ****** ****** ****** ****** ****** ****** ****** ****** ****** ******
  14  ****** ****** ****** ****** ****** ****** ****** ****** ****** ******
      ****** ****** ****** ****** ****** ****** ****** ****** ****** ******
      ****** ****** ****** ****** ****** ****** ****** ****** ****** ******
  15  ****** ****** ****** ****** ****** ****** ****** ****** ****** ******
      ****** ****** ****** ****** ****** ****** ****** ****** ****** ******
      ****** ****** ****** ****** ****** ****** ****** ****** ****** ******
  16  ****** ****** ****** ****** ****** ****** ****** ****** ****** ******
      ****** ****** ****** ****** ****** ****** ****** ****** ****** ******
      ****** ****** ****** ****** ****** ****** ****** ****** ****** ******
  17  ****** ****** ****** ****** ****** ****** ****** ****** ****** ******
      ****** ****** ****** ****** ****** ****** ****** ****** ****** ******
      ****** ****** ****** ****** ****** ****** ****** ****** ****** ******
  18  ****** ****** ****** ****** ****** ****** ****** ****** ****** ******
      ****** ****** ****** ****** ****** ****** ****** ****** ****** ******
      ****** ****** ****** ****** ****** ****** ****** ****** ****** ******
  19  ****** ****** ****** ****** ****** ****** ****** ****** ****** ******
      ****** ****** ****** ****** ****** ****** ****** ****** ****** ******
      ****** ****** ****** ****** ****** ****** ****** ****** ****** ******
  20  ****** ****** ****** ****** ****** ****** ****** ****** ****** ******
      ****** ****** ****** ****** ****** ****** ****** ****** ****** ******
      ****** ****** ****** ****** ****** ****** ****** ****** ****** ******
  21  ****** ****** ****** ****** ****** ****** ****** ****** ****** ******
      ****** ****** ****** ****** ****** ****** ****** ****** ****** ******
      ****** ****** ****** ****** ****** ****** ****** ****** ****** ******
  22  ****** ****** ****** ****** ****** ****** ****** ****** ****** ******
      ****** ****** ****** ****** ****** ****** ****** ****** ****** ******
      ****** ****** ****** ****** ****** ****** ****** ****** ****** ******
  23  ****** ****** ****** ****** ****** ****** ****** ****** ****** ******
      ****** ****** ****** ****** ****** ****** ****** ****** ****** ******
      ****** ****** ****** ****** ****** ****** ****** ****** ****** ******
  24  ****** ****** ****** ****** ****** ****** ****** ****** ****** ******
      ****** ****** ****** ****** ****** ****** ****** ****** ****** ******
      ****** ****** ****** ****** ****** ****** ****** ****** ****** ******
  25  ****** ****** ****** ****** ****** ****** ****** ****** ****** ******
      ****** ****** ****** ****** ****** ****** ****** ****** ****** ******
      ****** ****** ****** ****** ****** ****** ****** ****** ****** ******

 HEAD WILL BE SAVED ON UNIT   51 AT END OF TIME STEP    1, STRESS PERIOD    8
1
  VOLUMETRIC BUDGET FOR ENTIRE MODEL AT END OF TIME STEP    1, STRESS PERIOD   8
  ------------------------------------------------------------------------------

     CUMULATIVE VOLUMES      L**3       RATES FOR THIS TIME STEP      L**3/T
     ------------------                 ------------------------

           IN:                                      IN:
           ---                                      ---
             STORAGE =    34336584.3632               STORAGE =        1694.9813
       CONSTANT HEAD =    19814083.8609         CONSTANT HEAD =       34129.1329
               WELLS =           0.0000                 WELLS =           0.0000
            RECHARGE =    17608800.0000              RECHARGE =       27600.0000
      STREAM LEAKAGE =     7301321.0548        STREAM LEAKAGE =       12671.3470

            TOTAL IN =    79060789.2790              TOTAL IN =       76095.4612

          OUT:                                     OUT:
          ----                                     ----
             STORAGE =      887031.1932               STORAGE =        1513.4915
       CONSTANT HEAD =           0.0000         CONSTANT HEAD =           0.0000
               WELLS =    30089716.8367                 WELLS =       41218.7902
            RECHARGE =           0.0000              RECHARGE =           0.0000
      STREAM LEAKAGE =    48084043.2729        STREAM LEAKAGE =       33363.1714

           TOTAL OUT =    79060791.3028             TOTAL OUT =       76095.4531

            IN - OUT =          -2.0238              IN - OUT =       8.0789E-03

 PERCENT DISCREPANCY =          -0.00     PERCENT DISCREPANCY =           0.00






         TIME SUMMARY AT END OF TIME STEP    1 IN STRESS PERIOD    8
                    SECONDS     MINUTES      HOURS       DAYS        YEARS
                    -----------------------------------------------------------
   TIME STEP LENGTH 7.86240E+06 1.31040E+05  2184.0      91.000     0.24914    
 STRESS PERIOD TIME 7.86240E+06 1.31040E+05  2184.0      91.000     0.24914    
         TOTAL TIME 6.30720E+07 1.05120E+06  17520.      730.00      1.9986    
1
1
                            STRESS PERIOD NO.    9, LENGTH =   92.00000    
                            -----------------------------------------------

                              NUMBER OF TIME STEPS =     1

                               MULTIPLIER FOR DELT =     1.500

                            INITIAL TIME STEP SIZE =   92.00000    

 WELL NO.  LAYER   ROW   COL   STRESS RATE         
 --------------------------------------------------
      1      1      8     16     -0.1474E+05
      2      1     14     29      -8048.    
      3      1     19     28      -9398.    
      4      1     18      3      -9037.    

      4 WELLS

                 RECHARGE =  5.000000E-04

 REUSING STREAM SEGMENT DATA FROM LAST STRESS PERIOD
 
 SOLVING FOR HEAD 


     6 CALLS TO PCG ROUTINE FOR TIME STEP   1 IN STRESS PERIOD    9
    23 TOTAL ITERATIONS

 OUTPUT CONTROL FOR STRESS PERIOD    9   TIME STEP    1
    SAVE BUDGET
    SAVE HEAD FOR ALL LAYERS
    PRINT HEAD FOR ALL LAYERS
 UBDSV2 SAVING "STREAMFLOW OUT  " ON UNIT  50 AT TIME STEP  1, STRESS PERIOD   9



 STREAM LISTING     PERIOD      9   STEP        1

 LAYER ROW COL. STREAM  RCH.  FLOW INTO     FLOW TO   FLOW OUT OF   OVRLND.     DIRECT     STREAM       STREAM     STREAM     STREAM   STREAMBED  STREAMBED
                SEG.NO.  NO.  STRM. RCH.    AQUIFER    STRM. RCH.    RUNOFF     PRECIP       ET          HEAD       DEPTH      WIDTH   CONDCTNC.   GRADIENT

   1   13    1     1     1    1.0000E+05 -6.9195E+02   1.0069E+05  0.000E+00  0.000E+00  0.000E+00  4.84063E+01  1.450E-01  2.000E+01  2.000E+04 -3.460E-02
   1   13    2     1     2    1.0069E+05 -1.6500E+03   1.0234E+05  0.000E+00  0.000E+00  0.000E+00  4.79301E+01  1.460E-01  2.000E+01  2.000E+04 -8.250E-02
   1   14    3     1     3    1.0234E+05 -1.1224E+02   1.0245E+05  0.000E+00  0.000E+00  0.000E+00  4.74535E+01  1.467E-01  2.000E+01  2.000E+04 -5.612E-03
   1   15    4     1     4    1.0245E+05  7.0034E+01   1.0238E+05  0.000E+00  0.000E+00  0.000E+00  4.69763E+01  1.467E-01  2.000E+01  2.000E+04  3.502E-03
   1   16    5     1     5    1.0238E+05  1.4228E+03   1.0096E+05  0.000E+00  0.000E+00  0.000E+00  4.64984E+01  1.461E-01  2.000E+01  2.000E+04  7.114E-02
   1   16    6     1     6    1.0096E+05 -3.2024E+01   1.0099E+05  0.000E+00  0.000E+00  0.000E+00  4.60205E+01  1.455E-01  2.000E+01  2.000E+04 -1.601E-03
   1   16    7     1     7    1.0099E+05 -3.4689E+02   1.0134E+05  0.000E+00  0.000E+00  0.000E+00  4.55434E+01  1.457E-01  2.000E+01  2.000E+04 -1.734E-02
   1   16    8     1     8    1.0134E+05 -5.1853E+02   1.0186E+05  0.000E+00  0.000E+00  0.000E+00  4.50665E+01  1.460E-01  2.000E+01  2.000E+04 -2.593E-02
   1   16    9     1     9    1.0186E+05 -6.2229E+02   1.0248E+05  0.000E+00  0.000E+00  0.000E+00  4.45897E+01  1.465E-01  2.000E+01  2.000E+04 -3.111E-02
   1   16   10     1    10    1.0248E+05 -6.8679E+02   1.0317E+05  0.000E+00  0.000E+00  0.000E+00  4.41130E+01  1.471E-01  2.000E+01  2.000E+04 -3.434E-02
   1   16   11     1    11    1.0317E+05 -7.4131E+02   1.0391E+05  0.000E+00  0.000E+00  0.000E+00  4.36363E+01  1.477E-01  2.000E+01  2.000E+04 -3.707E-02
   1   16   12     1    12    1.0391E+05 -1.2914E+03   1.0520E+05  0.000E+00  0.000E+00  0.000E+00  4.31599E+01  1.486E-01  2.000E+01  2.000E+04 -6.457E-02
   1   15   13     1    13    1.0520E+05 -1.0430E+03   1.0624E+05  0.000E+00  0.000E+00  0.000E+00  4.26837E+01  1.496E-01  2.000E+01  2.000E+04 -5.215E-02
   1   14   14     1    14    1.0624E+05 -1.0476E+03   1.0729E+05  0.000E+00  0.000E+00  0.000E+00  4.22073E+01  1.504E-01  2.000E+01  2.000E+04 -5.238E-02
   1   13   15     1    15    1.0729E+05 -9.3043E+02   1.0822E+05  0.000E+00  0.000E+00  0.000E+00  4.17308E+01  1.513E-01  2.000E+01  2.000E+04 -4.652E-02
   1   12   16     1    16    1.0822E+05 -5.3309E+02   1.0875E+05  0.000E+00  0.000E+00  0.000E+00  4.12542E+01  1.519E-01  2.000E+01  2.000E+04 -2.665E-02
   1   12   17     1    17    1.0875E+05 -4.3770E+02   1.0919E+05  0.000E+00  0.000E+00  0.000E+00  4.07773E+01  1.523E-01  2.000E+01  2.000E+04 -2.189E-02
   1   12   18     1    18    1.0919E+05 -6.0528E+02   1.0980E+05  0.000E+00  0.000E+00  0.000E+00  4.03005E+01  1.527E-01  2.000E+01  2.000E+04 -3.026E-02
   1   12   19     1    19    1.0980E+05 -1.0740E+03   1.1087E+05  0.000E+00  0.000E+00  0.000E+00  3.98239E+01  1.534E-01  2.000E+01  2.000E+04 -5.370E-02
   1   13   20     1    20    1.1087E+05 -1.2028E+03   1.1207E+05  0.000E+00  0.000E+00  0.000E+00  3.93476E+01  1.544E-01  2.000E+01  2.000E+04 -6.014E-02
   1   14   21     1    21    1.1207E+05 -1.2476E+03   1.1332E+05  0.000E+00  0.000E+00  0.000E+00  3.88713E+01  1.554E-01  2.000E+01  2.000E+04 -6.238E-02
   1   14   22     1    22    1.1332E+05  4.9088E+03   1.0841E+05  0.000E+00  0.000E+00  0.000E+00  3.83925E+01  1.539E-01  2.000E+01  2.000E+04  2.454E-01
   1    9   30     2     1    5.0000E+04  2.7765E+02   4.9722E+04  0.000E+00  0.000E+00  0.000E+00  4.02407E+01  1.157E-01  2.000E+01  2.000E+04  1.388E-02
   1    9   29     2     2    4.9722E+04 -6.7393E+01   4.9790E+04  0.000E+00  0.000E+00  0.000E+00  3.99905E+01  1.155E-01  2.000E+01  2.000E+04 -3.370E-03
   1    9   28     2     3    4.9790E+04 -4.1817E+02   5.0208E+04  0.000E+00  0.000E+00  0.000E+00  3.97409E+01  1.159E-01  2.000E+01  2.000E+04 -2.091E-02
   1    9   27     2     4    5.0208E+04 -1.6033E+03   5.1811E+04  0.000E+00  0.000E+00  0.000E+00  3.94923E+01  1.173E-01  2.000E+01  2.000E+04 -8.017E-02
   1   10   26     2     5    5.1811E+04 -5.3987E+02   5.2351E+04  0.000E+00  0.000E+00  0.000E+00  3.92437E+01  1.187E-01  2.000E+01  2.000E+04 -2.699E-02
   1   11   25     2     6    5.2351E+04 -4.4409E+02   5.2795E+04  0.000E+00  0.000E+00  0.000E+00  3.89944E+01  1.194E-01  2.000E+01  2.000E+04 -2.220E-02
   1   12   24     2     7    5.2795E+04 -7.8559E+02   5.3581E+04  0.000E+00  0.000E+00  0.000E+00  3.87452E+01  1.202E-01  2.000E+01  2.000E+04 -3.928E-02
   1   13   23     2     8    5.3581E+04 -1.4201E+02   5.3723E+04  0.000E+00  0.000E+00  0.000E+00  3.84959E+01  1.209E-01  2.000E+01  2.000E+04 -7.100E-03
   1   14   22     2     9    5.3723E+04  1.9512E+03   5.1772E+04  0.000E+00  0.000E+00  0.000E+00  3.82446E+01  1.196E-01  2.000E+01  2.000E+04  9.756E-02
   1   14   22     3     1    1.6018E+05 -8.5946E+03   1.6878E+05  0.000E+00  0.000E+00  0.000E+00  3.77174E+01  1.618E-01  2.000E+01  2.000E+04 -4.297E-01
   1   15   23     3     2    1.6878E+05 -4.5432E+02   1.6923E+05  0.000E+00  0.000E+00  0.000E+00  3.68311E+01  1.645E-01  2.000E+01  2.000E+04 -2.272E-02
   1   15   24     3     3    1.6923E+05 -2.0371E+02   1.6944E+05  0.000E+00  0.000E+00  0.000E+00  3.59424E+01  1.646E-01  2.000E+01  2.000E+04 -1.019E-02
   1   15   25     3     4    1.6944E+05 -1.6921E+02   1.6961E+05  0.000E+00  0.000E+00  0.000E+00  3.50536E+01  1.648E-01  2.000E+01  2.000E+04 -8.460E-03
   1   15   26     3     5    1.6961E+05 -1.6809E+01   1.6962E+05  0.000E+00  0.000E+00  0.000E+00  3.41648E+01  1.648E-01  2.000E+01  2.000E+04 -8.405E-04
   1   16   27     3     6    1.6962E+05  2.0545E+02   1.6942E+05  0.000E+00  0.000E+00  0.000E+00  3.32759E+01  1.648E-01  2.000E+01  2.000E+04  1.027E-02
   1   17   28     3     7    1.6942E+05  2.6441E+03   1.6677E+05  0.000E+00  0.000E+00  0.000E+00  3.23861E+01  1.639E-01  2.000E+01  2.000E+04  1.322E-01
   1   18   29     3     8    1.6677E+05  2.0677E+03   1.6471E+05  0.000E+00  0.000E+00  0.000E+00  3.14959E+01  1.625E-01  2.000E+01  2.000E+04  1.034E-01
   1   18   30     3     9    1.6471E+05 -5.7616E+02   1.6528E+05  0.000E+00  0.000E+00  0.000E+00  3.06065E+01  1.621E-01  2.000E+01  2.000E+04 -2.881E-02



1
              HEAD IN LAYER   1 AT END OF TIME STEP   1 IN STRESS PERIOD    9
  ---------------------------------------------------------------------------

          1      2      3      4      5      6      7      8      9     10
         11     12     13     14     15     16     17     18     19     20
         21     22     23     24     25     26     27     28     29     30
 .........................................................................
   1  ****** ****** ****** ****** ****** ****** ****** ****** ****** ******
      ****** ****** ****** ****** ****** ****** ****** ****** ****** ******
      ****** ****** ****** ****** ****** ****** ****** ****** ****** ******
   2  ****** ****** ****** ****** ****** ****** ****** ****** ****** ******
      ****** ****** ****** ****** ****** ****** ****** ****** ****** ******
      ****** ****** ****** ****** ****** ****** ****** ****** ****** ******
   3  ****** ****** ****** ****** ****** ****** ****** ****** ****** ******
      ****** ****** ****** ****** ****** ****** ****** ****** ****** ******
      ****** ****** ****** ****** ****** ****** ****** ****** ****** ******
   4  ****** ****** ****** ****** ****** ****** ****** ****** ****** ******
      ****** ****** ****** ****** ****** ****** ****** ****** ****** ******
      ****** ****** ****** ****** ****** ****** ****** ****** ****** ******
   5  ****** ****** ****** ****** ****** ****** ****** ****** ****** ******
      ****** ****** ****** ****** ****** ****** ****** ****** ****** ******
      ****** ****** ****** ****** ****** ****** ****** ****** ****** ******
   6  ****** ****** ****** ****** ****** ****** ****** ****** ****** ******
      ****** ****** ****** ****** ****** ****** ****** ****** ****** ******
      ****** ****** ****** ****** ****** ****** ****** ****** ****** ******
   7  ****** ****** ****** ****** ****** ****** ****** ****** ****** ******
      ****** ****** ****** ****** ****** ****** ****** ****** ****** ******
      ****** ****** ****** ****** ****** ****** ****** ****** ****** ******
   8  ****** ****** ****** ****** ****** ****** ****** ****** ****** ******
      ****** ****** ****** ****** ****** ****** ****** ****** ****** ******
      ****** ****** ****** ****** ****** ****** ****** ****** ****** ******
   9  ****** ****** ****** ****** ****** ****** ****** ****** ****** ******
      ****** ****** ****** ****** ****** ****** ****** ****** ****** ******
      ****** ****** ****** ****** ****** ****** ****** ****** ****** ******
  10  ****** ****** ****** ****** ****** ****** ****** ****** ****** ******
      ****** ****** ****** ****** ****** ****** ****** ****** ****** ******
      ****** ****** ****** ****** ****** ****** ****** ****** ****** ******
  11  ****** ****** ****** ****** ****** ****** ****** ****** ****** ******
      ****** ****** ****** ****** ****** ****** ****** ****** ****** ******
      ****** ****** ****** ****** ****** ****** ****** ****** ****** ******
  12  ****** ****** ****** ****** ****** ****** ****** ****** ****** ******
      ****** ****** ****** ****** ****** ****** ****** ****** ****** ******
      ****** ****** ****** ****** ****** ****** ****** ****** ****** ******
  13  ****** ****** ****** ****** ****** ****** ****** ****** ****** ******
      ****** ****** ****** ****** ****** ****** ****** ****** ****** ******
      ****** ****** ****** ****** ****** ****** ****** ****** ****** ******
  14  ****** ****** ****** ****** ****** ****** ****** ****** ****** ******
      ****** ****** ****** ****** ****** ****** ****** ****** ****** ******
      ****** ****** ****** ****** ****** ****** ****** ****** ****** ******
  15  ****** ****** ****** ****** ****** ****** ****** ****** ****** ******
      ****** ****** ****** ****** ****** ****** ****** ****** ****** ******
      ****** ****** ****** ****** ****** ****** ****** ****** ****** ******
  16  ****** ****** ****** ****** ****** ****** ****** ****** ****** ******
      ****** ****** ****** ****** ****** ****** ****** ****** ****** ******
      ****** ****** ****** ****** ****** ****** ****** ****** ****** ******
  17  ****** ****** ****** ****** ****** ****** ****** ****** ****** ******
      ****** ****** ****** ****** ****** ****** ****** ****** ****** ******
      ****** ****** ****** ****** ****** ****** ****** ****** ****** ******
  18  ****** ****** ****** ****** ****** ****** ****** ****** ****** ******
      ****** ****** ****** ****** ****** ****** ****** ****** ****** ******
      ****** ****** ****** ****** ****** ****** ****** ****** ****** ******
  19  ****** ****** ****** ****** ****** ****** ****** ****** ****** ******
      ****** ****** ****** ****** ****** ****** ****** ****** ****** ******
      ****** ****** ****** ****** ****** ****** ****** ****** ****** ******
  20  ****** ****** ****** ****** ****** ****** ****** ****** ****** ******
      ****** ****** ****** ****** ****** ****** ****** ****** ****** ******
      ****** ****** ****** ****** ****** ****** ****** ****** ****** ******
  21  ****** ****** ****** ****** ****** ****** ****** ****** ****** ******
      ****** ****** ****** ****** ****** ****** ****** ****** ****** ******
      ****** ****** ****** ****** ****** ****** ****** ****** ****** ******
  22  ****** ****** ****** ****** ****** ****** ****** ****** ****** ******
      ****** ****** ****** ****** ****** ****** ****** ****** ****** ******
      ****** ****** ****** ****** ****** ****** ****** ****** ****** ******
  23  ****** ****** ****** ****** ****** ****** ****** ****** ****** ******
      ****** ****** ****** ****** ****** ****** ****** ****** ****** ******
      ****** ****** ****** ****** ****** ****** ****** ****** ****** ******
  24  ****** ****** ****** ****** ****** ****** ****** ****** ****** ******
      ****** ****** ****** ****** ****** ****** ****** ****** ****** ******
      ****** ****** ****** ****** ****** ****** ****** ****** ****** ******
  25  ****** ****** ****** ****** ****** ****** ****** ****** ****** ******
      ****** ****** ****** ****** ****** ****** ****** ****** ****** ******
      ****** ****** ****** ****** ****** ****** ****** ****** ****** ******

 HEAD WILL BE SAVED ON UNIT   51 AT END OF TIME STEP    1, STRESS PERIOD    9
1
  VOLUMETRIC BUDGET FOR ENTIRE MODEL AT END OF TIME STEP    1, STRESS PERIOD   9
  ------------------------------------------------------------------------------

     CUMULATIVE VOLUMES      L**3       RATES FOR THIS TIME STEP      L**3/T
     ------------------                 ------------------------

           IN:                                      IN:
           ---                                      ---
             STORAGE =    35015877.7482               STORAGE =        7383.6237
       CONSTANT HEAD =    23063299.5799         CONSTANT HEAD =       35317.5622
               WELLS =           0.0000                 WELLS =           0.0000
            RECHARGE =    18878400.0000              RECHARGE =       13800.0000
      STREAM LEAKAGE =     8547718.3062        STREAM LEAKAGE =       13547.7962

            TOTAL IN =    85505295.6343              TOTAL IN =       70048.9821

          OUT:                                     OUT:
          ----                                     ----
             STORAGE =      887031.1932               STORAGE =           0.0000
       CONSTANT HEAD =           0.0000         CONSTANT HEAD =           0.0000
               WELLS =    33881845.5339                 WELLS =       41218.7902
            RECHARGE =           0.0000              RECHARGE =           0.0000
      STREAM LEAKAGE =    50736421.0067        STREAM LEAKAGE =       28830.1928

           TOTAL OUT =    85505297.7338             TOTAL OUT =       70048.9829

            IN - OUT =          -2.0996              IN - OUT =      -8.2301E-04

 PERCENT DISCREPANCY =          -0.00     PERCENT DISCREPANCY =          -0.00






         TIME SUMMARY AT END OF TIME STEP    1 IN STRESS PERIOD    9
                    SECONDS     MINUTES      HOURS       DAYS        YEARS
                    -----------------------------------------------------------
   TIME STEP LENGTH 7.94880E+06 1.32480E+05  2208.0      92.000     0.25188    
 STRESS PERIOD TIME 7.94880E+06 1.32480E+05  2208.0      92.000     0.25188    
         TOTAL TIME 7.10208E+07 1.18368E+06  19728.      822.00      2.2505    
1
1
                            STRESS PERIOD NO.   10, LENGTH =   91.00000    
                            -----------------------------------------------

                              NUMBER OF TIME STEPS =     1

                               MULTIPLIER FOR DELT =     1.500

                            INITIAL TIME STEP SIZE =   91.00000    

 WELL NO.  LAYER   ROW   COL   STRESS RATE         
 --------------------------------------------------
      1      1      8     16     -0.1474E+05
      2      1     14     29      -8048.    
      3      1     19     28      -9398.    
      4      1     18      3      -9037.    

      4 WELLS

                 RECHARGE =  2.000000E-03

 REUSING STREAM SEGMENT DATA FROM LAST STRESS PERIOD
 
 SOLVING FOR HEAD 


     7 CALLS TO PCG ROUTINE FOR TIME STEP   1 IN STRESS PERIOD   10
    26 TOTAL ITERATIONS

 OUTPUT CONTROL FOR STRESS PERIOD   10   TIME STEP    1
    SAVE BUDGET
    SAVE HEAD FOR ALL LAYERS
    PRINT HEAD FOR ALL LAYERS
 UBDSV2 SAVING "STREAMFLOW OUT  " ON UNIT  50 AT TIME STEP  1, STRESS PERIOD  10



 STREAM LISTING     PERIOD     10   STEP        1

 LAYER ROW COL. STREAM  RCH.  FLOW INTO     FLOW TO   FLOW OUT OF   OVRLND.     DIRECT     STREAM       STREAM     STREAM     STREAM   STREAMBED  STREAMBED
                SEG.NO.  NO.  STRM. RCH.    AQUIFER    STRM. RCH.    RUNOFF     PRECIP       ET          HEAD       DEPTH      WIDTH   CONDCTNC.   GRADIENT

   1   13    1     1     1    1.0000E+05 -1.1401E+03   1.0114E+05  0.000E+00  0.000E+00  0.000E+00  4.84065E+01  1.451E-01  2.000E+01  2.000E+04 -5.700E-02
   1   13    2     1     2    1.0114E+05 -2.1465E+03   1.0329E+05  0.000E+00  0.000E+00  0.000E+00  4.79307E+01  1.466E-01  2.000E+01  2.000E+04 -1.073E-01
   1   14    3     1     3    1.0329E+05 -2.9796E+02   1.0358E+05  0.000E+00  0.000E+00  0.000E+00  4.74544E+01  1.476E-01  2.000E+01  2.000E+04 -1.490E-02
   1   15    4     1     4    1.0358E+05 -1.2870E+02   1.0371E+05  0.000E+00  0.000E+00  0.000E+00  4.69773E+01  1.478E-01  2.000E+01  2.000E+04 -6.435E-03
   1   16    5     1     5    1.0371E+05  8.0489E+02   1.0291E+05  0.000E+00  0.000E+00  0.000E+00  4.64998E+01  1.475E-01  2.000E+01  2.000E+04  4.024E-02
   1   16    6     1     6    1.0291E+05 -3.9340E+02   1.0330E+05  0.000E+00  0.000E+00  0.000E+00  4.60223E+01  1.473E-01  2.000E+01  2.000E+04 -1.967E-02
   1   16    7     1     7    1.0330E+05 -6.9047E+02   1.0399E+05  0.000E+00  0.000E+00  0.000E+00  4.55455E+01  1.478E-01  2.000E+01  2.000E+04 -3.452E-02
   1   16    8     1     8    1.0399E+05 -8.5670E+02   1.0485E+05  0.000E+00  0.000E+00  0.000E+00  4.50689E+01  1.485E-01  2.000E+01  2.000E+04 -4.284E-02
   1   16    9     1     9    1.0485E+05 -9.5902E+02   1.0581E+05  0.000E+00  0.000E+00  0.000E+00  4.45924E+01  1.492E-01  2.000E+01  2.000E+04 -4.795E-02
   1   16   10     1    10    1.0581E+05 -1.0238E+03   1.0683E+05  0.000E+00  0.000E+00  0.000E+00  4.41160E+01  1.501E-01  2.000E+01  2.000E+04 -5.119E-02
   1   16   11     1    11    1.0683E+05 -1.0820E+03   1.0791E+05  0.000E+00  0.000E+00  0.000E+00  4.36396E+01  1.510E-01  2.000E+01  2.000E+04 -5.410E-02
   1   16   12     1    12    1.0791E+05 -1.8600E+03   1.0977E+05  0.000E+00  0.000E+00  0.000E+00  4.31636E+01  1.522E-01  2.000E+01  2.000E+04 -9.300E-02
   1   15   13     1    13    1.0977E+05 -1.6277E+03   1.1140E+05  0.000E+00  0.000E+00  0.000E+00  4.26877E+01  1.537E-01  2.000E+01  2.000E+04 -8.139E-02
   1   14   14     1    14    1.1140E+05 -1.6390E+03   1.1304E+05  0.000E+00  0.000E+00  0.000E+00  4.22118E+01  1.550E-01  2.000E+01  2.000E+04 -8.195E-02
   1   13   15     1    15    1.1304E+05 -1.5113E+03   1.1455E+05  0.000E+00  0.000E+00  0.000E+00  4.17359E+01  1.563E-01  2.000E+01  2.000E+04 -7.556E-02
   1   12   16     1    16    1.1455E+05 -1.0916E+03   1.1564E+05  0.000E+00  0.000E+00  0.000E+00  4.12597E+01  1.574E-01  2.000E+01  2.000E+04 -5.458E-02
   1   12   17     1    17    1.1564E+05 -8.6148E+02   1.1650E+05  0.000E+00  0.000E+00  0.000E+00  4.07832E+01  1.582E-01  2.000E+01  2.000E+04 -4.307E-02
   1   12   18     1    18    1.1650E+05 -1.0252E+03   1.1753E+05  0.000E+00  0.000E+00  0.000E+00  4.03067E+01  1.590E-01  2.000E+01  2.000E+04 -5.126E-02
   1   12   19     1    19    1.1753E+05 -1.5908E+03   1.1912E+05  0.000E+00  0.000E+00  0.000E+00  3.98305E+01  1.600E-01  2.000E+01  2.000E+04 -7.954E-02
   1   13   20     1    20    1.1912E+05 -1.7233E+03   1.2084E+05  0.000E+00  0.000E+00  0.000E+00  3.93545E+01  1.614E-01  2.000E+01  2.000E+04 -8.617E-02
   1   14   21     1    21    1.2084E+05 -1.7723E+03   1.2262E+05  0.000E+00  0.000E+00  0.000E+00  3.88787E+01  1.628E-01  2.000E+01  2.000E+04 -8.862E-02
   1   14   22     1    22    1.2262E+05  4.7829E+03   1.1783E+05  0.000E+00  0.000E+00  0.000E+00  3.84002E+01  1.616E-01  2.000E+01  2.000E+04  2.391E-01
   1    9   30     2     1    5.0000E+04 -1.3620E+02   5.0136E+04  0.000E+00  0.000E+00  0.000E+00  4.02410E+01  1.160E-01  2.000E+01  2.000E+04 -6.810E-03
   1    9   29     2     2    5.0136E+04 -4.7892E+02   5.0615E+04  0.000E+00  0.000E+00  0.000E+00  3.99914E+01  1.164E-01  2.000E+01  2.000E+04 -2.395E-02
   1    9   28     2     3    5.0615E+04 -8.2879E+02   5.1444E+04  0.000E+00  0.000E+00  0.000E+00  3.97423E+01  1.173E-01  2.000E+01  2.000E+04 -4.144E-02
   1    9   27     2     4    5.1444E+04 -2.1552E+03   5.3599E+04  0.000E+00  0.000E+00  0.000E+00  3.94943E+01  1.193E-01  2.000E+01  2.000E+04 -1.078E-01
   1   10   26     2     5    5.3599E+04 -1.0919E+03   5.4691E+04  0.000E+00  0.000E+00  0.000E+00  3.92465E+01  1.215E-01  2.000E+01  2.000E+04 -5.460E-02
   1   11   25     2     6    5.4691E+04 -9.7165E+02   5.5663E+04  0.000E+00  0.000E+00  0.000E+00  3.89979E+01  1.229E-01  2.000E+01  2.000E+04 -4.858E-02
   1   12   24     2     7    5.5663E+04 -1.2630E+03   5.6926E+04  0.000E+00  0.000E+00  0.000E+00  3.87494E+01  1.244E-01  2.000E+01  2.000E+04 -6.315E-02
   1   13   23     2     8    5.6926E+04 -2.9058E+02   5.7216E+04  0.000E+00  0.000E+00  0.000E+00  3.85004E+01  1.254E-01  2.000E+01  2.000E+04 -1.453E-02
   1   14   22     2     9    5.7216E+04  1.7683E+03   5.5448E+04  0.000E+00  0.000E+00  0.000E+00  3.82495E+01  1.245E-01  2.000E+01  2.000E+04  8.841E-02
   1   14   22     3     1    1.7328E+05 -8.7209E+03   1.8200E+05  0.000E+00  0.000E+00  0.000E+00  3.77250E+01  1.694E-01  2.000E+01  2.000E+04 -4.360E-01
   1   15   23     3     2    1.8200E+05 -6.1685E+02   1.8262E+05  0.000E+00  0.000E+00  0.000E+00  3.68388E+01  1.721E-01  2.000E+01  2.000E+04 -3.084E-02
   1   15   24     3     3    1.8262E+05 -3.4088E+02   1.8296E+05  0.000E+00  0.000E+00  0.000E+00  3.59502E+01  1.724E-01  2.000E+01  2.000E+04 -1.704E-02
   1   15   25     3     4    1.8296E+05 -3.0979E+02   1.8327E+05  0.000E+00  0.000E+00  0.000E+00  3.50614E+01  1.726E-01  2.000E+01  2.000E+04 -1.549E-02
   1   15   26     3     5    1.8327E+05 -1.7905E+02   1.8345E+05  0.000E+00  0.000E+00  0.000E+00  3.41727E+01  1.727E-01  2.000E+01  2.000E+04 -8.952E-03
   1   16   27     3     6    1.8345E+05  1.9583E+01   1.8343E+05  0.000E+00  0.000E+00  0.000E+00  3.32839E+01  1.727E-01  2.000E+01  2.000E+04  9.791E-04
   1   17   28     3     7    1.8343E+05  2.1235E+03   1.8131E+05  0.000E+00  0.000E+00  0.000E+00  3.23944E+01  1.721E-01  2.000E+01  2.000E+04  1.062E-01
   1   18   29     3     8    1.8131E+05  1.5164E+03   1.7979E+05  0.000E+00  0.000E+00  0.000E+00  3.15044E+01  1.711E-01  2.000E+01  2.000E+04  7.582E-02
   1   18   30     3     9    1.7979E+05 -1.0014E+03   1.8079E+05  0.000E+00  0.000E+00  0.000E+00  3.06154E+01  1.710E-01  2.000E+01  2.000E+04 -5.007E-02



1
              HEAD IN LAYER   1 AT END OF TIME STEP   1 IN STRESS PERIOD   10
  ---------------------------------------------------------------------------

          1      2      3      4      5      6      7      8      9     10
         11     12     13     14     15     16     17     18     19     20
         21     22     23     24     25     26     27     28     29     30
 .........................................................................
   1  ****** ****** ****** ****** ****** ****** ****** ****** ****** ******
      ****** ****** ****** ****** ****** ****** ****** ****** ****** ******
      ****** ****** ****** ****** ****** ****** ****** ****** ****** ******
   2  ****** ****** ****** ****** ****** ****** ****** ****** ****** ******
      ****** ****** ****** ****** ****** ****** ****** ****** ****** ******
      ****** ****** ****** ****** ****** ****** ****** ****** ****** ******
   3  ****** ****** ****** ****** ****** ****** ****** ****** ****** ******
      ****** ****** ****** ****** ****** ****** ****** ****** ****** ******
      ****** ****** ****** ****** ****** ****** ****** ****** ****** ******
   4  ****** ****** ****** ****** ****** ****** ****** ****** ****** ******
      ****** ****** ****** ****** ****** ****** ****** ****** ****** ******
      ****** ****** ****** ****** ****** ****** ****** ****** ****** ******
   5  ****** ****** ****** ****** ****** ****** ****** ****** ****** ******
      ****** ****** ****** ****** ****** ****** ****** ****** ****** ******
      ****** ****** ****** ****** ****** ****** ****** ****** ****** ******
   6  ****** ****** ****** ****** ****** ****** ****** ****** ****** ******
      ****** ****** ****** ****** ****** ****** ****** ****** ****** ******
      ****** ****** ****** ****** ****** ****** ****** ****** ****** ******
   7  ****** ****** ****** ****** ****** ****** ****** ****** ****** ******
      ****** ****** ****** ****** ****** ****** ****** ****** ****** ******
      ****** ****** ****** ****** ****** ****** ****** ****** ****** ******
   8  ****** ****** ****** ****** ****** ****** ****** ****** ****** ******
      ****** ****** ****** ****** ****** ****** ****** ****** ****** ******
      ****** ****** ****** ****** ****** ****** ****** ****** ****** ******
   9  ****** ****** ****** ****** ****** ****** ****** ****** ****** ******
      ****** ****** ****** ****** ****** ****** ****** ****** ****** ******
      ****** ****** ****** ****** ****** ****** ****** ****** ****** ******
  10  ****** ****** ****** ****** ****** ****** ****** ****** ****** ******
      ****** ****** ****** ****** ****** ****** ****** ****** ****** ******
      ****** ****** ****** ****** ****** ****** ****** ****** ****** ******
  11  ****** ****** ****** ****** ****** ****** ****** ****** ****** ******
      ****** ****** ****** ****** ****** ****** ****** ****** ****** ******
      ****** ****** ****** ****** ****** ****** ****** ****** ****** ******
  12  ****** ****** ****** ****** ****** ****** ****** ****** ****** ******
      ****** ****** ****** ****** ****** ****** ****** ****** ****** ******
      ****** ****** ****** ****** ****** ****** ****** ****** ****** ******
  13  ****** ****** ****** ****** ****** ****** ****** ****** ****** ******
      ****** ****** ****** ****** ****** ****** ****** ****** ****** ******
      ****** ****** ****** ****** ****** ****** ****** ****** ****** ******
  14  ****** ****** ****** ****** ****** ****** ****** ****** ****** ******
      ****** ****** ****** ****** ****** ****** ****** ****** ****** ******
      ****** ****** ****** ****** ****** ****** ****** ****** ****** ******
  15  ****** ****** ****** ****** ****** ****** ****** ****** ****** ******
      ****** ****** ****** ****** ****** ****** ****** ****** ****** ******
      ****** ****** ****** ****** ****** ****** ****** ****** ****** ******
  16  ****** ****** ****** ****** ****** ****** ****** ****** ****** ******
      ****** ****** ****** ****** ****** ****** ****** ****** ****** ******
      ****** ****** ****** ****** ****** ****** ****** ****** ****** ******
  17  ****** ****** ****** ****** ****** ****** ****** ****** ****** ******
      ****** ****** ****** ****** ****** ****** ****** ****** ****** ******
      ****** ****** ****** ****** ****** ****** ****** ****** ****** ******
  18  ****** ****** ****** ****** ****** ****** ****** ****** ****** ******
      ****** ****** ****** ****** ****** ****** ****** ****** ****** ******
      ****** ****** ****** ****** ****** ****** ****** ****** ****** ******
  19  ****** ****** ****** ****** ****** ****** ****** ****** ****** ******
      ****** ****** ****** ****** ****** ****** ****** ****** ****** ******
      ****** ****** ****** ****** ****** ****** ****** ****** ****** ******
  20  ****** ****** ****** ****** ****** ****** ****** ****** ****** ******
      ****** ****** ****** ****** ****** ****** ****** ****** ****** ******
      ****** ****** ****** ****** ****** ****** ****** ****** ****** ******
  21  ****** ****** ****** ****** ****** ****** ****** ****** ****** ******
      ****** ****** ****** ****** ****** ****** ****** ****** ****** ******
      ****** ****** ****** ****** ****** ****** ****** ****** ****** ******
  22  ****** ****** ****** ****** ****** ****** ****** ****** ****** ******
      ****** ****** ****** ****** ****** ****** ****** ****** ****** ******
      ****** ****** ****** ****** ****** ****** ****** ****** ****** ******
  23  ****** ****** ****** ****** ****** ****** ****** ****** ****** ******
      ****** ****** ****** ****** ****** ****** ****** ****** ****** ******
      ****** ****** ****** ****** ****** ****** ****** ****** ****** ******
  24  ****** ****** ****** ****** ****** ****** ****** ****** ****** ******
      ****** ****** ****** ****** ****** ****** ****** ****** ****** ******
      ****** ****** ****** ****** ****** ****** ****** ****** ****** ******
  25  ****** ****** ****** ****** ****** ****** ****** ****** ****** ******
      ****** ****** ****** ****** ****** ****** ****** ****** ****** ******
      ****** ****** ****** ****** ****** ****** ****** ****** ****** ******

 HEAD WILL BE SAVED ON UNIT   51 AT END OF TIME STEP    1, STRESS PERIOD   10
1
  VOLUMETRIC BUDGET FOR ENTIRE MODEL AT END OF TIME STEP    1, STRESS PERIOD  10
  ------------------------------------------------------------------------------

     CUMULATIVE VOLUMES      L**3       RATES FOR THIS TIME STEP      L**3/T
     ------------------                 ------------------------

           IN:                                      IN:
           ---                                      ---
             STORAGE =    35015877.7482               STORAGE =           0.0000
       CONSTANT HEAD =    26009768.2404         CONSTANT HEAD =       32378.7765
               WELLS =           0.0000                 WELLS =           0.0000
            RECHARGE =    23901600.0000              RECHARGE =       55200.0000
      STREAM LEAKAGE =     9550124.7312        STREAM LEAKAGE =       11015.4552

            TOTAL IN =    94477370.7198              TOTAL IN =       98594.2317

          OUT:                                     OUT:
          ----                                     ----
             STORAGE =     2303809.3203               STORAGE =       15568.9904
       CONSTANT HEAD =           0.0000         CONSTANT HEAD =           0.0000
               WELLS =    37632755.4409                 WELLS =       41218.7902
            RECHARGE =           0.0000              RECHARGE =           0.0000
      STREAM LEAKAGE =    54540807.7001        STREAM LEAKAGE =       41806.4472

           TOTAL OUT =    94477372.4614             TOTAL OUT =       98594.2278

            IN - OUT =          -1.7416              IN - OUT =       3.9338E-03

 PERCENT DISCREPANCY =          -0.00     PERCENT DISCREPANCY =           0.00






         TIME SUMMARY AT END OF TIME STEP    1 IN STRESS PERIOD   10
                    SECONDS     MINUTES      HOURS       DAYS        YEARS
                    -----------------------------------------------------------
   TIME STEP LENGTH 7.86240E+06 1.31040E+05  2184.0      91.000     0.24914    
 STRESS PERIOD TIME 7.86240E+06 1.31040E+05  2184.0      91.000     0.24914    
         TOTAL TIME 7.88832E+07 1.31472E+06  21912.      913.00      2.4997    
1
1
                            STRESS PERIOD NO.   11, LENGTH =   91.00000    
                            -----------------------------------------------

                              NUMBER OF TIME STEPS =     1

                               MULTIPLIER FOR DELT =     1.500

                            INITIAL TIME STEP SIZE =   91.00000    

 WELL NO.  LAYER   ROW   COL   STRESS RATE         
 --------------------------------------------------
      1      1      8     16     -0.1474E+05
      2      1     14     29      -8048.    
      3      1     19     28      -9398.    
      4      1     18      3      -9037.    

      4 WELLS

                 RECHARGE =   0.00000    

 REUSING STREAM SEGMENT DATA FROM LAST STRESS PERIOD
 
 SOLVING FOR HEAD 


     7 CALLS TO PCG ROUTINE FOR TIME STEP   1 IN STRESS PERIOD   11
    26 TOTAL ITERATIONS

 OUTPUT CONTROL FOR STRESS PERIOD   11   TIME STEP    1
    SAVE BUDGET
    SAVE HEAD FOR ALL LAYERS
    PRINT HEAD FOR ALL LAYERS
 UBDSV2 SAVING "STREAMFLOW OUT  " ON UNIT  50 AT TIME STEP  1, STRESS PERIOD  11



 STREAM LISTING     PERIOD     11   STEP        1

 LAYER ROW COL. STREAM  RCH.  FLOW INTO     FLOW TO   FLOW OUT OF   OVRLND.     DIRECT     STREAM       STREAM     STREAM     STREAM   STREAMBED  STREAMBED
                SEG.NO.  NO.  STRM. RCH.    AQUIFER    STRM. RCH.    RUNOFF     PRECIP       ET          HEAD       DEPTH      WIDTH   CONDCTNC.   GRADIENT

   1   13    1     1     1    1.0000E+05 -5.6928E+02   1.0057E+05  0.000E+00  0.000E+00  0.000E+00  4.84063E+01  1.449E-01  2.000E+01  2.000E+04 -2.846E-02
   1   13    2     1     2    1.0057E+05 -1.5106E+03   1.0208E+05  0.000E+00  0.000E+00  0.000E+00  4.79299E+01  1.458E-01  2.000E+01  2.000E+04 -7.553E-02
   1   14    3     1     3    1.0208E+05 -6.6483E+01   1.0215E+05  0.000E+00  0.000E+00  0.000E+00  4.74533E+01  1.465E-01  2.000E+01  2.000E+04 -3.324E-03
   1   15    4     1     4    1.0215E+05  1.1368E+02   1.0203E+05  0.000E+00  0.000E+00  0.000E+00  4.69760E+01  1.465E-01  2.000E+01  2.000E+04  5.684E-03
   1   16    5     1     5    1.0203E+05  1.4933E+03   1.0054E+05  0.000E+00  0.000E+00  0.000E+00  4.64980E+01  1.458E-01  2.000E+01  2.000E+04  7.467E-02
   1   16    6     1     6    1.0054E+05  2.1403E+01   1.0052E+05  0.000E+00  0.000E+00  0.000E+00  4.60201E+01  1.451E-01  2.000E+01  2.000E+04  1.070E-03
   1   16    7     1     7    1.0052E+05 -2.9325E+02   1.0081E+05  0.000E+00  0.000E+00  0.000E+00  4.55430E+01  1.452E-01  2.000E+01  2.000E+04 -1.466E-02
   1   16    8     1     8    1.0081E+05 -4.6502E+02   1.0128E+05  0.000E+00  0.000E+00  0.000E+00  4.50660E+01  1.456E-01  2.000E+01  2.000E+04 -2.325E-02
   1   16    9     1     9    1.0128E+05 -5.6964E+02   1.0185E+05  0.000E+00  0.000E+00  0.000E+00  4.45892E+01  1.460E-01  2.000E+01  2.000E+04 -2.848E-02
   1   16   10     1    10    1.0185E+05 -6.3564E+02   1.0248E+05  0.000E+00  0.000E+00  0.000E+00  4.41124E+01  1.465E-01  2.000E+01  2.000E+04 -3.178E-02
   1   16   11     1    11    1.0248E+05 -6.9210E+02   1.0317E+05  0.000E+00  0.000E+00  0.000E+00  4.36357E+01  1.471E-01  2.000E+01  2.000E+04 -3.461E-02
   1   16   12     1    12    1.0317E+05 -1.2138E+03   1.0439E+05  0.000E+00  0.000E+00  0.000E+00  4.31593E+01  1.479E-01  2.000E+01  2.000E+04 -6.069E-02
   1   15   13     1    13    1.0439E+05 -9.3807E+02   1.0533E+05  0.000E+00  0.000E+00  0.000E+00  4.26829E+01  1.488E-01  2.000E+01  2.000E+04 -4.690E-02
   1   14   14     1    14    1.0533E+05 -9.3115E+02   1.0626E+05  0.000E+00  0.000E+00  0.000E+00  4.22064E+01  1.496E-01  2.000E+01  2.000E+04 -4.656E-02
   1   13   15     1    15    1.0626E+05 -8.0872E+02   1.0707E+05  0.000E+00  0.000E+00  0.000E+00  4.17299E+01  1.504E-01  2.000E+01  2.000E+04 -4.044E-02
   1   12   16     1    16    1.0707E+05 -4.1188E+02   1.0748E+05  0.000E+00  0.000E+00  0.000E+00  4.12531E+01  1.509E-01  2.000E+01  2.000E+04 -2.059E-02
   1   12   17     1    17    1.0748E+05 -3.5359E+02   1.0783E+05  0.000E+00  0.000E+00  0.000E+00  4.07762E+01  1.512E-01  2.000E+01  2.000E+04 -1.768E-02
   1   12   18     1    18    1.0783E+05 -5.2523E+02   1.0836E+05  0.000E+00  0.000E+00  0.000E+00  4.02993E+01  1.516E-01  2.000E+01  2.000E+04 -2.626E-02
   1   12   19     1    19    1.0836E+05 -9.7711E+02   1.0933E+05  0.000E+00  0.000E+00  0.000E+00  3.98227E+01  1.522E-01  2.000E+01  2.000E+04 -4.886E-02
   1   13   20     1    20    1.0933E+05 -1.1107E+03   1.1044E+05  0.000E+00  0.000E+00  0.000E+00  3.93463E+01  1.531E-01  2.000E+01  2.000E+04 -5.553E-02
   1   14   21     1    21    1.1044E+05 -1.1754E+03   1.1162E+05  0.000E+00  0.000E+00  0.000E+00  3.88699E+01  1.540E-01  2.000E+01  2.000E+04 -5.877E-02
   1   14   22     1    22    1.1162E+05  4.9281E+03   1.0669E+05  0.000E+00  0.000E+00  0.000E+00  3.83911E+01  1.525E-01  2.000E+01  2.000E+04  2.464E-01
   1    9   30     2     1    5.0000E+04  3.5207E+02   4.9648E+04  0.000E+00  0.000E+00  0.000E+00  4.02406E+01  1.156E-01  2.000E+01  2.000E+04  1.760E-02
   1    9   29     2     2    4.9648E+04  6.3179E+00   4.9642E+04  0.000E+00  0.000E+00  0.000E+00  3.99904E+01  1.154E-01  2.000E+01  2.000E+04  3.159E-04
   1    9   28     2     3    4.9642E+04 -3.4569E+02   4.9987E+04  0.000E+00  0.000E+00  0.000E+00  3.97406E+01  1.156E-01  2.000E+01  2.000E+04 -1.728E-02
   1    9   27     2     4    4.9987E+04 -1.5148E+03   5.1502E+04  0.000E+00  0.000E+00  0.000E+00  3.94919E+01  1.169E-01  2.000E+01  2.000E+04 -7.574E-02
   1   10   26     2     5    5.1502E+04 -4.3721E+02   5.1939E+04  0.000E+00  0.000E+00  0.000E+00  3.92432E+01  1.182E-01  2.000E+01  2.000E+04 -2.186E-02
   1   11   25     2     6    5.1939E+04 -3.4079E+02   5.2280E+04  0.000E+00  0.000E+00  0.000E+00  3.89938E+01  1.188E-01  2.000E+01  2.000E+04 -1.704E-02
   1   12   24     2     7    5.2280E+04 -6.8911E+02   5.2969E+04  0.000E+00  0.000E+00  0.000E+00  3.87445E+01  1.195E-01  2.000E+01  2.000E+04 -3.446E-02
   1   13   23     2     8    5.2969E+04 -1.0462E+02   5.3074E+04  0.000E+00  0.000E+00  0.000E+00  3.84950E+01  1.200E-01  2.000E+01  2.000E+04 -5.231E-03
   1   14   22     2     9    5.3074E+04  1.9810E+03   5.1093E+04  0.000E+00  0.000E+00  0.000E+00  3.82437E+01  1.187E-01  2.000E+01  2.000E+04  9.905E-02
   1   14   22     3     1    1.5778E+05 -8.5753E+03   1.6636E+05  0.000E+00  0.000E+00  0.000E+00  3.77159E+01  1.604E-01  2.000E+01  2.000E+04 -4.288E-01
   1   15   23     3     2    1.6636E+05 -4.2483E+02   1.6678E+05  0.000E+00  0.000E+00  0.000E+00  3.68297E+01  1.630E-01  2.000E+01  2.000E+04 -2.124E-02
   1   15   24     3     3    1.6678E+05 -1.7577E+02   1.6696E+05  0.000E+00  0.000E+00  0.000E+00  3.59410E+01  1.632E-01  2.000E+01  2.000E+04 -8.789E-03
   1   15   25     3     4    1.6696E+05 -1.4085E+02   1.6710E+05  0.000E+00  0.000E+00  0.000E+00  3.50522E+01  1.633E-01  2.000E+01  2.000E+04 -7.043E-03
   1   15   26     3     5    1.6710E+05  1.6626E+01   1.6708E+05  0.000E+00  0.000E+00  0.000E+00  3.41633E+01  1.633E-01  2.000E+01  2.000E+04  8.313E-04
   1   16   27     3     6    1.6708E+05  2.4257E+02   1.6684E+05  0.000E+00  0.000E+00  0.000E+00  3.32744E+01  1.633E-01  2.000E+01  2.000E+04  1.213E-02
   1   17   28     3     7    1.6684E+05  2.7331E+03   1.6411E+05  0.000E+00  0.000E+00  0.000E+00  3.23846E+01  1.624E-01  2.000E+01  2.000E+04  1.367E-01
   1   18   29     3     8    1.6411E+05  2.1381E+03   1.6197E+05  0.000E+00  0.000E+00  0.000E+00  3.14943E+01  1.609E-01  2.000E+01  2.000E+04  1.069E-01
   1   18   30     3     9    1.6197E+05 -5.1245E+02   1.6248E+05  0.000E+00  0.000E+00  0.000E+00  3.06049E+01  1.605E-01  2.000E+01  2.000E+04 -2.562E-02



1
              HEAD IN LAYER   1 AT END OF TIME STEP   1 IN STRESS PERIOD   11
  ---------------------------------------------------------------------------

          1      2      3      4      5      6      7      8      9     10
         11     12     13     14     15     16     17     18     19     20
         21     22     23     24     25     26     27     28     29     30
 .........................................................................
   1  ****** ****** ****** ****** ****** ****** ****** ****** ****** ******
      ****** ****** ****** ****** ****** ****** ****** ****** ****** ******
      ****** ****** ****** ****** ****** ****** ****** ****** ****** ******
   2  ****** ****** ****** ****** ****** ****** ****** ****** ****** ******
      ****** ****** ****** ****** ****** ****** ****** ****** ****** ******
      ****** ****** ****** ****** ****** ****** ****** ****** ****** ******
   3  ****** ****** ****** ****** ****** ****** ****** ****** ****** ******
      ****** ****** ****** ****** ****** ****** ****** ****** ****** ******
      ****** ****** ****** ****** ****** ****** ****** ****** ****** ******
   4  ****** ****** ****** ****** ****** ****** ****** ****** ****** ******
      ****** ****** ****** ****** ****** ****** ****** ****** ****** ******
      ****** ****** ****** ****** ****** ****** ****** ****** ****** ******
   5  ****** ****** ****** ****** ****** ****** ****** ****** ****** ******
      ****** ****** ****** ****** ****** ****** ****** ****** ****** ******
      ****** ****** ****** ****** ****** ****** ****** ****** ****** ******
   6  ****** ****** ****** ****** ****** ****** ****** ****** ****** ******
      ****** ****** ****** ****** ****** ****** ****** ****** ****** ******
      ****** ****** ****** ****** ****** ****** ****** ****** ****** ******
   7  ****** ****** ****** ****** ****** ****** ****** ****** ****** ******
      ****** ****** ****** ****** ****** ****** ****** ****** ****** ******
      ****** ****** ****** ****** ****** ****** ****** ****** ****** ******
   8  ****** ****** ****** ****** ****** ****** ****** ****** ****** ******
      ****** ****** ****** ****** ****** ****** ****** ****** ****** ******
      ****** ****** ****** ****** ****** ****** ****** ****** ****** ******
   9  ****** ****** ****** ****** ****** ****** ****** ****** ****** ******
      ****** ****** ****** ****** ****** ****** ****** ****** ****** ******
      ****** ****** ****** ****** ****** ****** ****** ****** ****** ******
  10  ****** ****** ****** ****** ****** ****** ****** ****** ****** ******
      ****** ****** ****** ****** ****** ****** ****** ****** ****** ******
      ****** ****** ****** ****** ****** ****** ****** ****** ****** ******
  11  ****** ****** ****** ****** ****** ****** ****** ****** ****** ******
      ****** ****** ****** ****** ****** ****** ****** ****** ****** ******
      ****** ****** ****** ****** ****** ****** ****** ****** ****** ******
  12  ****** ****** ****** ****** ****** ****** ****** ****** ****** ******
      ****** ****** ****** ****** ****** ****** ****** ****** ****** ******
      ****** ****** ****** ****** ****** ****** ****** ****** ****** ******
  13  ****** ****** ****** ****** ****** ****** ****** ****** ****** ******
      ****** ****** ****** ****** ****** ****** ****** ****** ****** ******
      ****** ****** ****** ****** ****** ****** ****** ****** ****** ******
  14  ****** ****** ****** ****** ****** ****** ****** ****** ****** ******
      ****** ****** ****** ****** ****** ****** ****** ****** ****** ******
      ****** ****** ****** ****** ****** ****** ****** ****** ****** ******
  15  ****** ****** ****** ****** ****** ****** ****** ****** ****** ******
      ****** ****** ****** ****** ****** ****** ****** ****** ****** ******
      ****** ****** ****** ****** ****** ****** ****** ****** ****** ******
  16  ****** ****** ****** ****** ****** ****** ****** ****** ****** ******
      ****** ****** ****** ****** ****** ****** ****** ****** ****** ******
      ****** ****** ****** ****** ****** ****** ****** ****** ****** ******
  17  ****** ****** ****** ****** ****** ****** ****** ****** ****** ******
      ****** ****** ****** ****** ****** ****** ****** ****** ****** ******
      ****** ****** ****** ****** ****** ****** ****** ****** ****** ******
  18  ****** ****** ****** ****** ****** ****** ****** ****** ****** ******
      ****** ****** ****** ****** ****** ****** ****** ****** ****** ******
      ****** ****** ****** ****** ****** ****** ****** ****** ****** ******
  19  ****** ****** ****** ****** ****** ****** ****** ****** ****** ******
      ****** ****** ****** ****** ****** ****** ****** ****** ****** ******
      ****** ****** ****** ****** ****** ****** ****** ****** ****** ******
  20  ****** ****** ****** ****** ****** ****** ****** ****** ****** ******
      ****** ****** ****** ****** ****** ****** ****** ****** ****** ******
      ****** ****** ****** ****** ****** ****** ****** ****** ****** ******
  21  ****** ****** ****** ****** ****** ****** ****** ****** ****** ******
      ****** ****** ****** ****** ****** ****** ****** ****** ****** ******
      ****** ****** ****** ****** ****** ****** ****** ****** ****** ******
  22  ****** ****** ****** ****** ****** ****** ****** ****** ****** ******
      ****** ****** ****** ****** ****** ****** ****** ****** ****** ******
      ****** ****** ****** ****** ****** ****** ****** ****** ****** ******
  23  ****** ****** ****** ****** ****** ****** ****** ****** ****** ******
      ****** ****** ****** ****** ****** ****** ****** ****** ****** ******
      ****** ****** ****** ****** ****** ****** ****** ****** ****** ******
  24  ****** ****** ****** ****** ****** ****** ****** ****** ****** ******
      ****** ****** ****** ****** ****** ****** ****** ****** ****** ******
      ****** ****** ****** ****** ****** ****** ****** ****** ****** ******
  25  ****** ****** ****** ****** ****** ****** ****** ****** ****** ******
      ****** ****** ****** ****** ****** ****** ****** ****** ****** ******
      ****** ****** ****** ****** ****** ****** ****** ****** ****** ******

 HEAD WILL BE SAVED ON UNIT   51 AT END OF TIME STEP    1, STRESS PERIOD   11
1
  VOLUMETRIC BUDGET FOR ENTIRE MODEL AT END OF TIME STEP    1, STRESS PERIOD  11
  ------------------------------------------------------------------------------

     CUMULATIVE VOLUMES      L**3       RATES FOR THIS TIME STEP      L**3/T
     ------------------                 ------------------------

           IN:                                      IN:
           ---                                      ---
             STORAGE =    36656347.3916               STORAGE =       18027.1389
       CONSTANT HEAD =    29256141.2932         CONSTANT HEAD =       35674.4292
               WELLS =           0.0000                 WELLS =           0.0000
            RECHARGE =    23901600.0000              RECHARGE =           0.0000
      STREAM LEAKAGE =    10826519.0106        STREAM LEAKAGE =       14026.3108

            TOTAL IN =   100640607.6955              TOTAL IN =       67727.8789

          OUT:                                     OUT:
          ----                                     ----
             STORAGE =     2303809.3203               STORAGE =           0.0000
       CONSTANT HEAD =           0.0000         CONSTANT HEAD =           0.0000
               WELLS =    41383665.3479                 WELLS =       41218.7902
            RECHARGE =           0.0000              RECHARGE =           0.0000
      STREAM LEAKAGE =    56953135.2344        STREAM LEAKAGE =       26509.0938

           TOTAL OUT =   100640609.9027             TOTAL OUT =       67727.8840

            IN - OUT =          -2.2072              IN - OUT =      -5.1170E-03

 PERCENT DISCREPANCY =          -0.00     PERCENT DISCREPANCY =          -0.00






         TIME SUMMARY AT END OF TIME STEP    1 IN STRESS PERIOD   11
                    SECONDS     MINUTES      HOURS       DAYS        YEARS
                    -----------------------------------------------------------
   TIME STEP LENGTH 7.86240E+06 1.31040E+05  2184.0      91.000     0.24914    
 STRESS PERIOD TIME 7.86240E+06 1.31040E+05  2184.0      91.000     0.24914    
         TOTAL TIME 8.67456E+07 1.44576E+06  24096.      1004.0      2.7488    
1
1
                            STRESS PERIOD NO.   12, LENGTH =   91.00000    
                            -----------------------------------------------

                              NUMBER OF TIME STEPS =     1

                               MULTIPLIER FOR DELT =     1.500

                            INITIAL TIME STEP SIZE =   91.00000    

 WELL NO.  LAYER   ROW   COL   STRESS RATE         
 --------------------------------------------------
      1      1      8     16     -0.1474E+05
      2      1     14     29      -8048.    
      3      1     19     28      -9398.    
      4      1     18      3      -9037.    

      4 WELLS

                 RECHARGE =  1.000000E-03

 REUSING STREAM SEGMENT DATA FROM LAST STRESS PERIOD
 
 SOLVING FOR HEAD 


     7 CALLS TO PCG ROUTINE FOR TIME STEP   1 IN STRESS PERIOD   12
    24 TOTAL ITERATIONS

 OUTPUT CONTROL FOR STRESS PERIOD   12   TIME STEP    1
    SAVE BUDGET
    SAVE HEAD FOR ALL LAYERS
    PRINT HEAD FOR ALL LAYERS
 UBDSV2 SAVING "STREAMFLOW OUT  " ON UNIT  50 AT TIME STEP  1, STRESS PERIOD  12



 STREAM LISTING     PERIOD     12   STEP        1

 LAYER ROW COL. STREAM  RCH.  FLOW INTO     FLOW TO   FLOW OUT OF   OVRLND.     DIRECT     STREAM       STREAM     STREAM     STREAM   STREAMBED  STREAMBED
                SEG.NO.  NO.  STRM. RCH.    AQUIFER    STRM. RCH.    RUNOFF     PRECIP       ET          HEAD       DEPTH      WIDTH   CONDCTNC.   GRADIENT

   1   13    1     1     1    1.0000E+05 -7.1128E+02   1.0071E+05  0.000E+00  0.000E+00  0.000E+00  4.84063E+01  1.450E-01  2.000E+01  2.000E+04 -3.556E-02
   1   13    2     1     2    1.0071E+05 -1.6631E+03   1.0237E+05  0.000E+00  0.000E+00  0.000E+00  4.79301E+01  1.460E-01  2.000E+01  2.000E+04 -8.315E-02
   1   14    3     1     3    1.0237E+05 -1.4461E+02   1.0252E+05  0.000E+00  0.000E+00  0.000E+00  4.74536E+01  1.468E-01  2.000E+01  2.000E+04 -7.231E-03
   1   15    4     1     4    1.0252E+05  3.1675E+01   1.0249E+05  0.000E+00  0.000E+00  0.000E+00  4.69764E+01  1.468E-01  2.000E+01  2.000E+04  1.584E-03
   1   16    5     1     5    1.0249E+05  1.2839E+03   1.0120E+05  0.000E+00  0.000E+00  0.000E+00  4.64985E+01  1.462E-01  2.000E+01  2.000E+04  6.420E-02
   1   16    6     1     6    1.0120E+05 -1.0868E+02   1.0131E+05  0.000E+00  0.000E+00  0.000E+00  4.60207E+01  1.457E-01  2.000E+01  2.000E+04 -5.434E-03
   1   16    7     1     7    1.0131E+05 -4.1824E+02   1.0173E+05  0.000E+00  0.000E+00  0.000E+00  4.55437E+01  1.460E-01  2.000E+01  2.000E+04 -2.091E-02
   1   16    8     1     8    1.0173E+05 -5.8898E+02   1.0232E+05  0.000E+00  0.000E+00  0.000E+00  4.50669E+01  1.464E-01  2.000E+01  2.000E+04 -2.945E-02
   1   16    9     1     9    1.0232E+05 -6.9407E+02   1.0301E+05  0.000E+00  0.000E+00  0.000E+00  4.45901E+01  1.470E-01  2.000E+01  2.000E+04 -3.470E-02
   1   16   10     1    10    1.0301E+05 -7.6146E+02   1.0377E+05  0.000E+00  0.000E+00  0.000E+00  4.41135E+01  1.476E-01  2.000E+01  2.000E+04 -3.807E-02
   1   16   11     1    11    1.0377E+05 -8.2023E+02   1.0460E+05  0.000E+00  0.000E+00  0.000E+00  4.36369E+01  1.483E-01  2.000E+01  2.000E+04 -4.101E-02
   1   16   12     1    12    1.0460E+05 -1.4151E+03   1.0601E+05  0.000E+00  0.000E+00  0.000E+00  4.31606E+01  1.492E-01  2.000E+01  2.000E+04 -7.076E-02
   1   15   13     1    13    1.0601E+05 -1.1542E+03   1.0716E+05  0.000E+00  0.000E+00  0.000E+00  4.26844E+01  1.503E-01  2.000E+01  2.000E+04 -5.771E-02
   1   14   14     1    14    1.0716E+05 -1.1476E+03   1.0831E+05  0.000E+00  0.000E+00  0.000E+00  4.22081E+01  1.513E-01  2.000E+01  2.000E+04 -5.738E-02
   1   13   15     1    15    1.0831E+05 -1.0176E+03   1.0933E+05  0.000E+00  0.000E+00  0.000E+00  4.17317E+01  1.522E-01  2.000E+01  2.000E+04 -5.088E-02
   1   12   16     1    16    1.0933E+05 -5.9390E+02   1.0992E+05  0.000E+00  0.000E+00  0.000E+00  4.12551E+01  1.529E-01  2.000E+01  2.000E+04 -2.969E-02
   1   12   17     1    17    1.0992E+05 -5.0634E+02   1.1043E+05  0.000E+00  0.000E+00  0.000E+00  4.07783E+01  1.533E-01  2.000E+01  2.000E+04 -2.532E-02
   1   12   18     1    18    1.1043E+05 -6.8028E+02   1.1111E+05  0.000E+00  0.000E+00  0.000E+00  4.03015E+01  1.538E-01  2.000E+01  2.000E+04 -3.401E-02
   1   12   19     1    19    1.1111E+05 -1.1689E+03   1.1228E+05  0.000E+00  0.000E+00  0.000E+00  3.98250E+01  1.546E-01  2.000E+01  2.000E+04 -5.844E-02
   1   13   20     1    20    1.1228E+05 -1.3207E+03   1.1360E+05  0.000E+00  0.000E+00  0.000E+00  3.93488E+01  1.556E-01  2.000E+01  2.000E+04 -6.604E-02
   1   14   21     1    21    1.1360E+05 -1.3694E+03   1.1497E+05  0.000E+00  0.000E+00  0.000E+00  3.88726E+01  1.567E-01  2.000E+01  2.000E+04 -6.847E-02
   1   14   22     1    22    1.1497E+05  4.8754E+03   1.1009E+05  0.000E+00  0.000E+00  0.000E+00  3.83939E+01  1.553E-01  2.000E+01  2.000E+04  2.438E-01
   1    9   30     2     1    5.0000E+04  1.7580E+02   4.9824E+04  0.000E+00  0.000E+00  0.000E+00  4.02407E+01  1.157E-01  2.000E+01  2.000E+04  8.790E-03
   1    9   29     2     2    4.9824E+04 -1.6790E+02   4.9992E+04  0.000E+00  0.000E+00  0.000E+00  3.99907E+01  1.157E-01  2.000E+01  2.000E+04 -8.395E-03
   1    9   28     2     3    4.9992E+04 -5.1635E+02   5.0508E+04  0.000E+00  0.000E+00  0.000E+00  3.97412E+01  1.162E-01  2.000E+01  2.000E+04 -2.582E-02
   1    9   27     2     4    5.0508E+04 -1.7235E+03   5.2232E+04  0.000E+00  0.000E+00  0.000E+00  3.94928E+01  1.178E-01  2.000E+01  2.000E+04 -8.618E-02
   1   10   26     2     5    5.2232E+04 -6.6667E+02   5.2899E+04  0.000E+00  0.000E+00  0.000E+00  3.92444E+01  1.194E-01  2.000E+01  2.000E+04 -3.333E-02
   1   11   25     2     6    5.2899E+04 -5.6637E+02   5.3465E+04  0.000E+00  0.000E+00  0.000E+00  3.89952E+01  1.202E-01  2.000E+01  2.000E+04 -2.832E-02
   1   12   24     2     7    5.3465E+04 -8.9497E+02   5.4360E+04  0.000E+00  0.000E+00  0.000E+00  3.87462E+01  1.212E-01  2.000E+01  2.000E+04 -4.475E-02
   1   13   23     2     8    5.4360E+04 -1.8221E+02   5.4542E+04  0.000E+00  0.000E+00  0.000E+00  3.84969E+01  1.219E-01  2.000E+01  2.000E+04 -9.110E-03
   1   14   22     2     9    5.4542E+04  1.9129E+03   5.2629E+04  0.000E+00  0.000E+00  0.000E+00  3.82458E+01  1.208E-01  2.000E+01  2.000E+04  9.565E-02
   1   14   22     3     1    1.6272E+05 -8.6256E+03   1.7135E+05  0.000E+00  0.000E+00  0.000E+00  3.77189E+01  1.633E-01  2.000E+01  2.000E+04 -4.313E-01
   1   15   23     3     2    1.7135E+05 -4.9686E+02   1.7185E+05  0.000E+00  0.000E+00  0.000E+00  3.68326E+01  1.660E-01  2.000E+01  2.000E+04 -2.484E-02
   1   15   24     3     3    1.7185E+05 -2.4086E+02   1.7209E+05  0.000E+00  0.000E+00  0.000E+00  3.59440E+01  1.662E-01  2.000E+01  2.000E+04 -1.204E-02
   1   15   25     3     4    1.7209E+05 -2.0721E+02   1.7229E+05  0.000E+00  0.000E+00  0.000E+00  3.50552E+01  1.663E-01  2.000E+01  2.000E+04 -1.036E-02
   1   15   26     3     5    1.7229E+05 -6.0857E+01   1.7235E+05  0.000E+00  0.000E+00  0.000E+00  3.41664E+01  1.664E-01  2.000E+01  2.000E+04 -3.043E-03
   1   16   27     3     6    1.7235E+05  1.5579E+02   1.7220E+05  0.000E+00  0.000E+00  0.000E+00  3.32775E+01  1.664E-01  2.000E+01  2.000E+04  7.789E-03
   1   17   28     3     7    1.7220E+05  2.5124E+03   1.6969E+05  0.000E+00  0.000E+00  0.000E+00  3.23878E+01  1.656E-01  2.000E+01  2.000E+04  1.256E-01
   1   18   29     3     8    1.6969E+05  1.9374E+03   1.6775E+05  0.000E+00  0.000E+00  0.000E+00  3.14976E+01  1.643E-01  2.000E+01  2.000E+04  9.687E-02
   1   18   30     3     9    1.6775E+05 -6.8056E+02   1.6843E+05  0.000E+00  0.000E+00  0.000E+00  3.06084E+01  1.639E-01  2.000E+01  2.000E+04 -3.403E-02



1
              HEAD IN LAYER   1 AT END OF TIME STEP   1 IN STRESS PERIOD   12
  ---------------------------------------------------------------------------

          1      2      3      4      5      6      7      8      9     10
         11     12     13     14     15     16     17     18     19     20
         21     22     23     24     25     26     27     28     29     30
 .........................................................................
   1  ****** ****** ****** ****** ****** ****** ****** ****** ****** ******
      ****** ****** ****** ****** ****** ****** ****** ****** ****** ******
      ****** ****** ****** ****** ****** ****** ****** ****** ****** ******
   2  ****** ****** ****** ****** ****** ****** ****** ****** ****** ******
      ****** ****** ****** ****** ****** ****** ****** ****** ****** ******
      ****** ****** ****** ****** ****** ****** ****** ****** ****** ******
   3  ****** ****** ****** ****** ****** ****** ****** ****** ****** ******
      ****** ****** ****** ****** ****** ****** ****** ****** ****** ******
      ****** ****** ****** ****** ****** ****** ****** ****** ****** ******
   4  ****** ****** ****** ****** ****** ****** ****** ****** ****** ******
      ****** ****** ****** ****** ****** ****** ****** ****** ****** ******
      ****** ****** ****** ****** ****** ****** ****** ****** ****** ******
   5  ****** ****** ****** ****** ****** ****** ****** ****** ****** ******
      ****** ****** ****** ****** ****** ****** ****** ****** ****** ******
      ****** ****** ****** ****** ****** ****** ****** ****** ****** ******
   6  ****** ****** ****** ****** ****** ****** ****** ****** ****** ******
      ****** ****** ****** ****** ****** ****** ****** ****** ****** ******
      ****** ****** ****** ****** ****** ****** ****** ****** ****** ******
   7  ****** ****** ****** ****** ****** ****** ****** ****** ****** ******
      ****** ****** ****** ****** ****** ****** ****** ****** ****** ******
      ****** ****** ****** ****** ****** ****** ****** ****** ****** ******
   8  ****** ****** ****** ****** ****** ****** ****** ****** ****** ******
      ****** ****** ****** ****** ****** ****** ****** ****** ****** ******
      ****** ****** ****** ****** ****** ****** ****** ****** ****** ******
   9  ****** ****** ****** ****** ****** ****** ****** ****** ****** ******
      ****** ****** ****** ****** ****** ****** ****** ****** ****** ******
      ****** ****** ****** ****** ****** ****** ****** ****** ****** ******
  10  ****** ****** ****** ****** ****** ****** ****** ****** ****** ******
      ****** ****** ****** ****** ****** ****** ****** ****** ****** ******
      ****** ****** ****** ****** ****** ****** ****** ****** ****** ******
  11  ****** ****** ****** ****** ****** ****** ****** ****** ****** ******
      ****** ****** ****** ****** ****** ****** ****** ****** ****** ******
      ****** ****** ****** ****** ****** ****** ****** ****** ****** ******
  12  ****** ****** ****** ****** ****** ****** ****** ****** ****** ******
      ****** ****** ****** ****** ****** ****** ****** ****** ****** ******
      ****** ****** ****** ****** ****** ****** ****** ****** ****** ******
  13  ****** ****** ****** ****** ****** ****** ****** ****** ****** ******
      ****** ****** ****** ****** ****** ****** ****** ****** ****** ******
      ****** ****** ****** ****** ****** ****** ****** ****** ****** ******
  14  ****** ****** ****** ****** ****** ****** ****** ****** ****** ******
      ****** ****** ****** ****** ****** ****** ****** ****** ****** ******
      ****** ****** ****** ****** ****** ****** ****** ****** ****** ******
  15  ****** ****** ****** ****** ****** ****** ****** ****** ****** ******
      ****** ****** ****** ****** ****** ****** ****** ****** ****** ******
      ****** ****** ****** ****** ****** ****** ****** ****** ****** ******
  16  ****** ****** ****** ****** ****** ****** ****** ****** ****** ******
      ****** ****** ****** ****** ****** ****** ****** ****** ****** ******
      ****** ****** ****** ****** ****** ****** ****** ****** ****** ******
  17  ****** ****** ****** ****** ****** ****** ****** ****** ****** ******
      ****** ****** ****** ****** ****** ****** ****** ****** ****** ******
      ****** ****** ****** ****** ****** ****** ****** ****** ****** ******
  18  ****** ****** ****** ****** ****** ****** ****** ****** ****** ******
      ****** ****** ****** ****** ****** ****** ****** ****** ****** ******
      ****** ****** ****** ****** ****** ****** ****** ****** ****** ******
  19  ****** ****** ****** ****** ****** ****** ****** ****** ****** ******
      ****** ****** ****** ****** ****** ****** ****** ****** ****** ******
      ****** ****** ****** ****** ****** ****** ****** ****** ****** ******
  20  ****** ****** ****** ****** ****** ****** ****** ****** ****** ******
      ****** ****** ****** ****** ****** ****** ****** ****** ****** ******
      ****** ****** ****** ****** ****** ****** ****** ****** ****** ******
  21  ****** ****** ****** ****** ****** ****** ****** ****** ****** ******
      ****** ****** ****** ****** ****** ****** ****** ****** ****** ******
      ****** ****** ****** ****** ****** ****** ****** ****** ****** ******
  22  ****** ****** ****** ****** ****** ****** ****** ****** ****** ******
      ****** ****** ****** ****** ****** ****** ****** ****** ****** ******
      ****** ****** ****** ****** ****** ****** ****** ****** ****** ******
  23  ****** ****** ****** ****** ****** ****** ****** ****** ****** ******
      ****** ****** ****** ****** ****** ****** ****** ****** ****** ******
      ****** ****** ****** ****** ****** ****** ****** ****** ****** ******
  24  ****** ****** ****** ****** ****** ****** ****** ****** ****** ******
      ****** ****** ****** ****** ****** ****** ****** ****** ****** ******
      ****** ****** ****** ****** ****** ****** ****** ****** ****** ******
  25  ****** ****** ****** ****** ****** ****** ****** ****** ****** ******
      ****** ****** ****** ****** ****** ****** ****** ****** ****** ******
      ****** ****** ****** ****** ****** ****** ****** ****** ****** ******

 HEAD WILL BE SAVED ON UNIT   51 AT END OF TIME STEP    1, STRESS PERIOD   12
1
  VOLUMETRIC BUDGET FOR ENTIRE MODEL AT END OF TIME STEP    1, STRESS PERIOD  12
  ------------------------------------------------------------------------------

     CUMULATIVE VOLUMES      L**3       RATES FOR THIS TIME STEP      L**3/T
     ------------------                 ------------------------

           IN:                                      IN:
           ---                                      ---
             STORAGE =    36658298.5942               STORAGE =          21.4418
       CONSTANT HEAD =    32439805.4064         CONSTANT HEAD =       34985.3199
               WELLS =           0.0000                 WELLS =           0.0000
            RECHARGE =    26413200.0000              RECHARGE =       27600.0000
      STREAM LEAKAGE =    11999088.7899        STREAM LEAKAGE =       12885.3822

            TOTAL IN =   107510392.7905              TOTAL IN =       75492.1439

          OUT:                                     OUT:
          ----                                     ----
             STORAGE =     2573057.2925               STORAGE =        2958.7689
       CONSTANT HEAD =           0.0000         CONSTANT HEAD =           0.0000
               WELLS =    45134575.2550                 WELLS =       41218.7902
            RECHARGE =           0.0000              RECHARGE =           0.0000
      STREAM LEAKAGE =    59802762.3643        STREAM LEAKAGE =       31314.5838

           TOTAL OUT =   107510394.9117             TOTAL OUT =       75492.1430

            IN - OUT =          -2.1212              IN - OUT =       9.4521E-04

 PERCENT DISCREPANCY =          -0.00     PERCENT DISCREPANCY =           0.00






         TIME SUMMARY AT END OF TIME STEP    1 IN STRESS PERIOD   12
                    SECONDS     MINUTES      HOURS       DAYS        YEARS
                    -----------------------------------------------------------
   TIME STEP LENGTH 7.86240E+06 1.31040E+05  2184.0      91.000     0.24914    
 STRESS PERIOD TIME 7.86240E+06 1.31040E+05  2184.0      91.000     0.24914    
         TOTAL TIME 9.46080E+07 1.57680E+06  26280.      1095.0      2.9979    
1

 Run end date and time (yyyy/mm/dd hh:mm:ss): 2019/06/07 22:42:49
 Elapsed run time:  0.152 Seconds

