                                  MODFLOW-2005     
      U.S. GEOLOGICAL SURVEY MODULAR FINITE-DIFFERENCE GROUND-WATER FLOW MODEL
                            VERSION 1.11.00 8/8/2013

 LIST FILE: supply2.lst
                         UNIT   10

 OPENING ..\data\supply.dis
 FILE TYPE:DIS   UNIT   11   STATUS:OLD    
 FORMAT:FORMATTED              ACCESS:SEQUENTIAL          

 OPENING ..\data\supply.ba6
 FILE TYPE:BAS6   UNIT   12   STATUS:OLD    
 FORMAT:FORMATTED              ACCESS:SEQUENTIAL          

 OPENING ..\data\supply_het.bc6
 FILE TYPE:BCF6   UNIT   13   STATUS:OLD    
 FORMAT:FORMATTED              ACCESS:SEQUENTIAL          

 OPENING ..\data\supply.rch
 FILE TYPE:RCH   UNIT   15   STATUS:OLD    
 FORMAT:FORMATTED              ACCESS:SEQUENTIAL          

 OPENING ..\data\supply2.sfr
 FILE TYPE:SFR   UNIT   16   STATUS:OLD    
 FORMAT:FORMATTED              ACCESS:SEQUENTIAL          

 OPENING ..\data\supply.oc
 FILE TYPE:OC   UNIT   17   STATUS:OLD    
 FORMAT:FORMATTED              ACCESS:SEQUENTIAL          

 OPENING ..\data\supply.pcg
 FILE TYPE:PCG   UNIT   18   STATUS:OLD    
 FORMAT:FORMATTED              ACCESS:SEQUENTIAL          

 OPENING supply2.wel
 FILE TYPE:WEL   UNIT   19   STATUS:OLD    
 FORMAT:FORMATTED              ACCESS:SEQUENTIAL          

 OPENING supply2sf.cbc
 FILE TYPE:DATA(BINARY)   UNIT   50   STATUS:UNKNOWN
 FORMAT:BINARY                 ACCESS:SEQUENTIAL          

 OPENING supply2hd.bhd
 FILE TYPE:DATA(BINARY)   UNIT   51   STATUS:UNKNOWN
 FORMAT:BINARY                 ACCESS:SEQUENTIAL          

 BAS -- BASIC PACKAGE, VERSION 7, 5/2/2005 INPUT READ FROM UNIT   12
 
 MODFLOW was compiled using uniform precision
 Precision of REAL and DOUBLE PRECISION variables:          15

 DISCRETIZATION INPUT DATA READ FROM UNIT   11
    1 LAYERS        25 ROWS        30 COLUMNS
   12 STRESS PERIOD(S) IN SIMULATION
 MODEL TIME UNIT IS DAYS
 MODEL LENGTH UNIT IS UNDEFINED
  Confining bed flag for each layer:
   0

                     DELR =   200.000    

                     DELC =   200.000    

 TOP ELEVATION OF LAYER 1 =  100.0000    

   MODEL LAYER BOTTOM EL. =   0.00000     FOR LAYER   1


 STRESS PERIOD     LENGTH       TIME STEPS     MULTIPLIER FOR DELT    SS FLAG
 ----------------------------------------------------------------------------
        1         92.00000          1                    1.500         TR
        2         91.00000          1                    1.500         TR
        3         91.00000          1                    1.500         TR
        4         91.00000          1                    1.500         TR
        5         92.00000          1                    1.500         TR
        6         91.00000          1                    1.500         TR
        7         91.00000          1                    1.500         TR
        8         91.00000          1                    1.500         TR
        9         92.00000          1                    1.500         TR
       10         91.00000          1                    1.500         TR
       11         91.00000          1                    1.500         TR
       12         91.00000          1                    1.500         TR

 TRANSIENT SIMULATION



 
 #MODOFC transient water supply sample problem                                   
 #                                                                               
 THE FREE FORMAT OPTION HAS BEEN SELECTED



                     BOUNDARY ARRAY FOR LAYER   1
 READING ON UNIT   12 WITH FORMAT: (20I4)              

 AQUIFER HEAD WILL BE SET TO   0.0000     AT ALL NO-FLOW NODES (IBOUND=0).



                       INITIAL HEAD FOR LAYER   1
 READING ON UNIT   12 WITH FORMAT: (10F13.0)           

 OUTPUT CONTROL IS SPECIFIED ONLY AT TIME STEPS FOR WHICH OUTPUT IS DESIRED
 COMPACT CELL-BY-CELL BUDGET FILES WILL BE WRITTEN
 HEAD PRINT FORMAT CODE IS  18    DRAWDOWN PRINT FORMAT CODE IS   0
 HEADS WILL BE SAVED ON UNIT   51    DRAWDOWNS WILL BE SAVED ON UNIT    0

 BCF -- BLOCK-CENTERED FLOW PACKAGE, VERSION 7, 5/2/2005
         INPUT READ FROM UNIT 13
 TRANSIENT SIMULATION
 HEAD AT CELLS THAT CONVERT TO DRY=   0.0000    
 WETTING CAPABILITY IS NOT ACTIVE
      LAYER  LAYER-TYPE CODE     INTERBLOCK T
      --------------------------------------------
         1            0          0 -- HARMONIC    

 COLUMN TO ROW ANISOTROPY =  1.000000    

     PRIMARY STORAGE COEF =  5.000000E-02 FOR LAYER   1



               TRANSMIS. ALONG ROWS FOR LAYER   1
 READING ON UNIT   13 WITH FORMAT: (FREE)              

 WEL -- WELL PACKAGE, VERSION 7, 5/2/2005 INPUT READ FROM UNIT   19
 # Well package input file written by MMProc
 No named parameters
 MAXIMUM OF      4 ACTIVE WELLS AT ONE TIME


     0 Well parameters

 RCH -- RECHARGE PACKAGE, VERSION 7, 5/2/2005 INPUT READ FROM UNIT   15
 No named parameters
 OPTION 1 -- RECHARGE TO TOP LAYER


     0 Recharge parameters

 SFR7 -- STREAMFLOW ROUTING PACKAGE, VERSION 1.0.7, 2013-01-15
         INPUT READ FROM UNIT  16
 #  Supply2 test problem for GWM-VI
 #  The eighth entry in the first data line is ISTCB2 -
 #    Setting this to a negative number indicates that
 #    streamflows out of the reach will be saved to a
 #    binary file.  The absolute value of ISTCB2 is the
 #    unit to which unformatted flows will be written.
 #
 No named parameters
 Segment information will not be 
 read by reach
 No named parameters
 No specifed inflow files


 NUMBER OF STREAM REACHES IS   40

 NUMBER OF STREAM SEGMENTS IS    3

 NUMBER OF STREAM PARAMETERS IS    0

 NUMBER OF STREAM SEGMENTS DEFINED USING PARAMETERS IS              0

 MAXIMUM ERROR FOR STREAM LEAKAGE RATES IS  1.00E-04

 CONSTANT FOR MANNINGS EQUATION IS  1.2839E+05





   STREAM NETWORK DESCRIPTION: 

   LAYER    ROW    COL   SEGMENT   REACH     LENGTH
                          NUMBER   NUMBER    IN CELL        
   --------------------------------------------------
      1     13      1       1        1    2.0000E+02
      1     13      2       1        2    2.0000E+02
      1     14      3       1        3    2.0000E+02
      1     15      4       1        4    2.0000E+02
      1     16      5       1        5    2.0000E+02
      1     16      6       1        6    2.0000E+02
      1     16      7       1        7    2.0000E+02
      1     16      8       1        8    2.0000E+02
      1     16      9       1        9    2.0000E+02
      1     16     10       1       10    2.0000E+02
      1     16     11       1       11    2.0000E+02
      1     16     12       1       12    2.0000E+02
      1     15     13       1       13    2.0000E+02
      1     14     14       1       14    2.0000E+02
      1     13     15       1       15    2.0000E+02
      1     12     16       1       16    2.0000E+02
      1     12     17       1       17    2.0000E+02
      1     12     18       1       18    2.0000E+02
      1     12     19       1       19    2.0000E+02
      1     13     20       1       20    2.0000E+02
      1     14     21       1       21    2.0000E+02
      1     14     22       1       22    2.0000E+02
      1      9     30       2        1    2.0000E+02
      1      9     29       2        2    2.0000E+02
      1      9     28       2        3    2.0000E+02
      1      9     27       2        4    2.0000E+02
      1     10     26       2        5    2.0000E+02
      1     11     25       2        6    2.0000E+02
      1     12     24       2        7    2.0000E+02
      1     13     23       2        8    2.0000E+02
      1     14     22       2        9    2.0000E+02
      1     14     22       3        1    2.0000E+02
      1     15     23       3        2    2.0000E+02
      1     15     24       3        3    2.0000E+02
      1     15     25       3        4    2.0000E+02
      1     15     26       3        5    2.0000E+02
      1     16     27       3        6    2.0000E+02
      1     17     28       3        7    2.0000E+02
      1     18     29       3        8    2.0000E+02
      1     18     30       3        9    2.0000E+02




 PCG -- CONJUGATE-GRADIENT SOLUTION PACKAGE, VERSION 7, 5/2/2005
 MAXIMUM OF    500 CALLS OF SOLUTION ROUTINE
 MAXIMUM OF      5 INTERNAL ITERATIONS PER CALL TO SOLUTION ROUTINE
 MATRIX PRECONDITIONING TYPE :    1



                                    SOLUTION BY THE CONJUGATE-GRADIENT METHOD
                                   -------------------------------------------
                    MAXIMUM NUMBER OF CALLS TO PCG ROUTINE =      500
                        MAXIMUM ITERATIONS PER CALL TO PCG =        5
                               MATRIX PRECONDITIONING TYPE =        1
        RELAXATION FACTOR (ONLY USED WITH PRECOND. TYPE 1) =    0.10000E+01
 PARAMETER OF POLYNOMIAL PRECOND. = 2 (2) OR IS CALCULATED :        0
                         HEAD CHANGE CRITERION FOR CLOSURE =    0.10000E-05
                     RESIDUAL CHANGE CRITERION FOR CLOSURE =    0.10000E+01
            PCG HEAD AND RESIDUAL CHANGE PRINTOUT INTERVAL =        1
     PRINTING FROM SOLVER IS LIMITED(1) OR SUPPRESSED (>1) =        1
                            STEADY-STATE DAMPING PARAMETER =    0.10000E+01
                               TRANSIENT DAMPING PARAMETER =    0.10000E+01
1
                            STRESS PERIOD NO.    1, LENGTH =   92.00000    
                            -----------------------------------------------

                              NUMBER OF TIME STEPS =     1

                               MULTIPLIER FOR DELT =     1.500

                            INITIAL TIME STEP SIZE =   92.00000    

 WELL NO.  LAYER   ROW   COL   STRESS RATE         
 --------------------------------------------------
      1      1     16     21      -8812.    
      2      1     20     20      -6819.    
      3      1      4     15      -7093.    
      4      1     21     14     -0.1263E+05

      4 WELLS

                 RECHARGE =  5.000000E-04



 CLASSIFICATION & COUNT OF STREAM SEGMENTS BASED ON SOURCE OF INFLOW:

                HEADWATER     DIVERSION     RECEIVES TRIBUTARY FLOW
                ---------     ---------     -----------------------
                     2              0               1



                    INPUT DATA FOR EACH STREAM SEGMENT
 ---------------------------------------------------------------------------------------------

 SEGMENT    SEG.     INFLOW   OVERLAND   STREAM    STREAM   ICALC  OUTFLOW  DIVERSION PRIORITY
    NO.    LENGTH     RATE     RUNOFF      ET       PPT.    METH.  TO SEG.  FROM SEG.    NO.

      1  4.400E+03 1.000E+05 0.000E+00 0.000E+00 0.000E+00    1        3        0        0
      2  1.800E+03 5.000E+04 0.000E+00 0.000E+00 0.000E+00    1        3        0        0
      3  1.800E+03 0.000E+00 0.000E+00 0.000E+00 0.000E+00    1        0        0        0


         STREAMBED PROPERTIES AND STREAM DIMENSIONS

 SEGMENT     BED HYD. COND.      BED THICKNESS     ELEV.-TOP OF BED     WIDTH OF STREAM     DEPTH OF STREAM    STREAM ROUGHNESS
    No.     UPPER     LOWER     UPPER     LOWER     UPPER     LOWER     UPPER     LOWER     UPPER     LOWER   CHANNEL      BANK

     1  5.000E+00 5.000E+00 1.000E+00 1.000E+00 4.850E+01 3.800E+01 2.000E+01 2.000E+01                     5.000E-02
     2  5.000E+00 5.000E+00 1.000E+00 1.000E+00 4.025E+01 3.800E+01 2.000E+01 2.000E+01                     5.000E-02
     3  5.000E+00 5.000E+00 1.000E+00 1.000E+00 3.800E+01 3.000E+01 2.000E+01 2.000E+01                     5.000E-02



 
 SOLVING FOR HEAD 


     9 CALLS TO PCG ROUTINE FOR TIME STEP   1 IN STRESS PERIOD    1
    36 TOTAL ITERATIONS

 OUTPUT CONTROL FOR STRESS PERIOD    1   TIME STEP    1
    SAVE BUDGET
    SAVE HEAD FOR ALL LAYERS
    PRINT HEAD FOR ALL LAYERS
 UBDSV2 SAVING "STREAMFLOW OUT  " ON UNIT  50 AT TIME STEP  1, STRESS PERIOD   1



 STREAM LISTING     PERIOD      1   STEP        1

 LAYER ROW COL. STREAM  RCH.  FLOW INTO     FLOW TO   FLOW OUT OF   OVRLND.     DIRECT     STREAM       STREAM     STREAM     STREAM   STREAMBED  STREAMBED
                SEG.NO.  NO.  STRM. RCH.    AQUIFER    STRM. RCH.    RUNOFF     PRECIP       ET          HEAD       DEPTH      WIDTH   CONDCTNC.   GRADIENT

   1   13    1     1     1    1.0000E+05 -6.0963E+03   1.0610E+05  0.000E+00  0.000E+00  0.000E+00  4.84086E+01  1.473E-01  2.000E+01  2.000E+04 -3.048E-01
   1   13    2     1     2    1.0610E+05 -7.5661E+03   1.1366E+05  0.000E+00  0.000E+00  0.000E+00  4.79372E+01  1.531E-01  2.000E+01  2.000E+04 -3.783E-01
   1   14    3     1     3    1.1366E+05 -2.1931E+03   1.1586E+05  0.000E+00  0.000E+00  0.000E+00  4.74639E+01  1.571E-01  2.000E+01  2.000E+04 -1.097E-01
   1   15    4     1     4    1.1586E+05 -2.2595E+03   1.1811E+05  0.000E+00  0.000E+00  0.000E+00  4.69885E+01  1.589E-01  2.000E+01  2.000E+04 -1.130E-01
   1   16    5     1     5    1.1811E+05 -7.0633E+03   1.2518E+05  0.000E+00  0.000E+00  0.000E+00  4.65150E+01  1.627E-01  2.000E+01  2.000E+04 -3.532E-01
   1   16    6     1     6    1.2518E+05 -4.1987E+03   1.2938E+05  0.000E+00  0.000E+00  0.000E+00  4.60422E+01  1.672E-01  2.000E+01  2.000E+04 -2.099E-01
   1   16    7     1     7    1.2938E+05 -3.9993E+03   1.3338E+05  0.000E+00  0.000E+00  0.000E+00  4.55681E+01  1.704E-01  2.000E+01  2.000E+04 -2.000E-01
   1   16    8     1     8    1.3338E+05 -3.9072E+03   1.3728E+05  0.000E+00  0.000E+00  0.000E+00  4.50939E+01  1.734E-01  2.000E+01  2.000E+04 -1.954E-01
   1   16    9     1     9    1.3728E+05 -3.8250E+03   1.4111E+05  0.000E+00  0.000E+00  0.000E+00  4.46196E+01  1.764E-01  2.000E+01  2.000E+04 -1.913E-01
   1   16   10     1    10    1.4111E+05 -3.7240E+03   1.4483E+05  0.000E+00  0.000E+00  0.000E+00  4.41452E+01  1.793E-01  2.000E+01  2.000E+04 -1.862E-01
   1   16   11     1    11    1.4483E+05 -3.6157E+03   1.4845E+05  0.000E+00  0.000E+00  0.000E+00  4.36706E+01  1.820E-01  2.000E+01  2.000E+04 -1.808E-01
   1   16   12     1    12    1.4845E+05 -5.9181E+03   1.5437E+05  0.000E+00  0.000E+00  0.000E+00  4.31969E+01  1.855E-01  2.000E+01  2.000E+04 -2.959E-01
   1   15   13     1    13    1.5437E+05 -6.5384E+03   1.6090E+05  0.000E+00  0.000E+00  0.000E+00  4.27242E+01  1.901E-01  2.000E+01  2.000E+04 -3.269E-01
   1   14   14     1    14    1.6090E+05 -7.1841E+03   1.6809E+05  0.000E+00  0.000E+00  0.000E+00  4.22518E+01  1.950E-01  2.000E+01  2.000E+04 -3.592E-01
   1   13   15     1    15    1.6809E+05 -7.6425E+03   1.7573E+05  0.000E+00  0.000E+00  0.000E+00  4.17798E+01  2.002E-01  2.000E+01  2.000E+04 -3.821E-01
   1   12   16     1    16    1.7573E+05 -8.4549E+03   1.8419E+05  0.000E+00  0.000E+00  0.000E+00  4.13081E+01  2.058E-01  2.000E+01  2.000E+04 -4.227E-01
   1   12   17     1    17    1.8419E+05 -5.9161E+03   1.9010E+05  0.000E+00  0.000E+00  0.000E+00  4.08357E+01  2.107E-01  2.000E+01  2.000E+04 -2.958E-01
   1   12   18     1    18    1.9010E+05 -5.7492E+03   1.9585E+05  0.000E+00  0.000E+00  0.000E+00  4.03623E+01  2.146E-01  2.000E+01  2.000E+04 -2.875E-01
   1   12   19     1    19    1.9585E+05 -7.3665E+03   2.0322E+05  0.000E+00  0.000E+00  0.000E+00  3.98894E+01  2.189E-01  2.000E+01  2.000E+04 -3.683E-01
   1   13   20     1    20    2.0322E+05 -5.9517E+03   2.0917E+05  0.000E+00  0.000E+00  0.000E+00  3.94165E+01  2.233E-01  2.000E+01  2.000E+04 -2.976E-01
   1   14   21     1    21    2.0917E+05 -3.8871E+03   2.1306E+05  0.000E+00  0.000E+00  0.000E+00  3.89424E+01  2.265E-01  2.000E+01  2.000E+04 -1.944E-01
   1   14   22     1    22    2.1306E+05  4.1507E+03   2.0891E+05  0.000E+00  0.000E+00  0.000E+00  3.84650E+01  2.264E-01  2.000E+01  2.000E+04  2.075E-01
   1    9   30     2     1    5.0000E+04 -4.8482E+03   5.4848E+04  0.000E+00  0.000E+00  0.000E+00  4.02442E+01  1.192E-01  2.000E+01  2.000E+04 -2.424E-01
   1    9   29     2     2    5.4848E+04 -5.1424E+03   5.9991E+04  0.000E+00  0.000E+00  0.000E+00  4.00009E+01  1.259E-01  2.000E+01  2.000E+04 -2.571E-01
   1    9   28     2     3    5.9991E+04 -5.4240E+03   6.5415E+04  0.000E+00  0.000E+00  0.000E+00  3.97577E+01  1.327E-01  2.000E+01  2.000E+04 -2.712E-01
   1    9   27     2     4    6.5415E+04 -8.2593E+03   7.3674E+04  0.000E+00  0.000E+00  0.000E+00  3.95162E+01  1.412E-01  2.000E+01  2.000E+04 -4.130E-01
   1   10   26     2     5    7.3674E+04 -7.2991E+03   8.0973E+04  0.000E+00  0.000E+00  0.000E+00  3.92755E+01  1.505E-01  2.000E+01  2.000E+04 -3.650E-01
   1   11   25     2     6    8.0973E+04 -6.7541E+03   8.7727E+04  0.000E+00  0.000E+00  0.000E+00  3.90336E+01  1.586E-01  2.000E+01  2.000E+04 -3.377E-01
   1   12   24     2     7    8.7727E+04 -6.2634E+03   9.3990E+04  0.000E+00  0.000E+00  0.000E+00  3.87908E+01  1.658E-01  2.000E+01  2.000E+04 -3.132E-01
   1   13   23     2     8    9.3990E+04 -1.6434E+03   9.5634E+04  0.000E+00  0.000E+00  0.000E+00  3.85451E+01  1.701E-01  2.000E+01  2.000E+04 -8.217E-02
   1   14   22     2     9    9.5634E+04  7.6142E+02   9.4872E+04  0.000E+00  0.000E+00  0.000E+00  3.82956E+01  1.706E-01  2.000E+01  2.000E+04  3.807E-02
   1   14   22     3     1    3.0378E+05 -9.3201E+03   3.1310E+05  0.000E+00  0.000E+00  0.000E+00  3.77915E+01  2.359E-01  2.000E+01  2.000E+04 -4.660E-01
   1   15   23     3     2    3.1310E+05 -1.5401E+03   3.1464E+05  0.000E+00  0.000E+00  0.000E+00  3.69051E+01  2.384E-01  2.000E+01  2.000E+04 -7.701E-02
   1   15   24     3     3    3.1464E+05 -1.4675E+03   3.1611E+05  0.000E+00  0.000E+00  0.000E+00  3.60169E+01  2.391E-01  2.000E+01  2.000E+04 -7.337E-02
   1   15   25     3     4    3.1611E+05 -1.5531E+03   3.1766E+05  0.000E+00  0.000E+00  0.000E+00  3.51287E+01  2.398E-01  2.000E+01  2.000E+04 -7.766E-02
   1   15   26     3     5    3.1766E+05 -1.8721E+03   3.1953E+05  0.000E+00  0.000E+00  0.000E+00  3.42406E+01  2.406E-01  2.000E+01  2.000E+04 -9.361E-02
   1   16   27     3     6    3.1953E+05 -2.1463E+03   3.2168E+05  0.000E+00  0.000E+00  0.000E+00  3.33526E+01  2.415E-01  2.000E+01  2.000E+04 -1.073E-01
   1   17   28     3     7    3.2168E+05 -6.5027E+03   3.2818E+05  0.000E+00  0.000E+00  0.000E+00  3.24657E+01  2.434E-01  2.000E+01  2.000E+04 -3.251E-01
   1   18   29     3     8    3.2818E+05 -7.8129E+03   3.3599E+05  0.000E+00  0.000E+00  0.000E+00  3.15800E+01  2.466E-01  2.000E+01  2.000E+04 -3.906E-01
   1   18   30     3     9    3.3599E+05 -7.0711E+03   3.4306E+05  0.000E+00  0.000E+00  0.000E+00  3.06944E+01  2.499E-01  2.000E+01  2.000E+04 -3.536E-01



1
              HEAD IN LAYER   1 AT END OF TIME STEP   1 IN STRESS PERIOD    1
  ---------------------------------------------------------------------------

          1      2      3      4      5      6      7      8      9     10
         11     12     13     14     15     16     17     18     19     20
         21     22     23     24     25     26     27     28     29     30
 .........................................................................
   1  ****** ****** ****** ****** ****** ****** ****** ****** ****** ******
      ****** ****** ****** ****** ****** ****** ****** ****** ****** ******
      ****** ****** ****** ****** ****** ****** ****** ****** ****** ******
   2  ****** ****** ****** ****** ****** ****** ****** ****** ****** ******
      ****** ****** ****** ****** ****** ****** ****** ****** ****** ******
      ****** ****** ****** ****** ****** ****** ****** ****** ****** ******
   3  ****** ****** ****** ****** ****** ****** ****** ****** ****** ******
      ****** ****** ****** ****** ****** ****** ****** ****** ****** ******
      ****** ****** ****** ****** ****** ****** ****** ****** ****** ******
   4  ****** ****** ****** ****** ****** ****** ****** ****** ****** ******
      ****** ****** ****** ****** ****** ****** ****** ****** ****** ******
      ****** ****** ****** ****** ****** ****** ****** ****** ****** ******
   5  ****** ****** ****** ****** ****** ****** ****** ****** ****** ******
      ****** ****** ****** ****** ****** ****** ****** ****** ****** ******
      ****** ****** ****** ****** ****** ****** ****** ****** ****** ******
   6  ****** ****** ****** ****** ****** ****** ****** ****** ****** ******
      ****** ****** ****** ****** ****** ****** ****** ****** ****** ******
      ****** ****** ****** ****** ****** ****** ****** ****** ****** ******
   7  ****** ****** ****** ****** ****** ****** ****** ****** ****** ******
      ****** ****** ****** ****** ****** ****** ****** ****** ****** ******
      ****** ****** ****** ****** ****** ****** ****** ****** ****** ******
   8  ****** ****** ****** ****** ****** ****** ****** ****** ****** ******
      ****** ****** ****** ****** ****** ****** ****** ****** ****** ******
      ****** ****** ****** ****** ****** ****** ****** ****** ****** ******
   9  ****** ****** ****** ****** ****** ****** ****** ****** ****** ******
      ****** ****** ****** ****** ****** ****** ****** ****** ****** ******
      ****** ****** ****** ****** ****** ****** ****** ****** ****** ******
  10  ****** ****** ****** ****** ****** ****** ****** ****** ****** ******
      ****** ****** ****** ****** ****** ****** ****** ****** ****** ******
      ****** ****** ****** ****** ****** ****** ****** ****** ****** ******
  11  ****** ****** ****** ****** ****** ****** ****** ****** ****** ******
      ****** ****** ****** ****** ****** ****** ****** ****** ****** ******
      ****** ****** ****** ****** ****** ****** ****** ****** ****** ******
  12  ****** ****** ****** ****** ****** ****** ****** ****** ****** ******
      ****** ****** ****** ****** ****** ****** ****** ****** ****** ******
      ****** ****** ****** ****** ****** ****** ****** ****** ****** ******
  13  ****** ****** ****** ****** ****** ****** ****** ****** ****** ******
      ****** ****** ****** ****** ****** ****** ****** ****** ****** ******
      ****** ****** ****** ****** ****** ****** ****** ****** ****** ******
  14  ****** ****** ****** ****** ****** ****** ****** ****** ****** ******
      ****** ****** ****** ****** ****** ****** ****** ****** ****** ******
      ****** ****** ****** ****** ****** ****** ****** ****** ****** ******
  15  ****** ****** ****** ****** ****** ****** ****** ****** ****** ******
      ****** ****** ****** ****** ****** ****** ****** ****** ****** ******
      ****** ****** ****** ****** ****** ****** ****** ****** ****** ******
  16  ****** ****** ****** ****** ****** ****** ****** ****** ****** ******
      ****** ****** ****** ****** ****** ****** ****** ****** ****** ******
      ****** ****** ****** ****** ****** ****** ****** ****** ****** ******
  17  ****** ****** ****** ****** ****** ****** ****** ****** ****** ******
      ****** ****** ****** ****** ****** ****** ****** ****** ****** ******
      ****** ****** ****** ****** ****** ****** ****** ****** ****** ******
  18  ****** ****** ****** ****** ****** ****** ****** ****** ****** ******
      ****** ****** ****** ****** ****** ****** ****** ****** ****** ******
      ****** ****** ****** ****** ****** ****** ****** ****** ****** ******
  19  ****** ****** ****** ****** ****** ****** ****** ****** ****** ******
      ****** ****** ****** ****** ****** ****** ****** ****** ****** ******
      ****** ****** ****** ****** ****** ****** ****** ****** ****** ******
  20  ****** ****** ****** ****** ****** ****** ****** ****** ****** ******
      ****** ****** ****** ****** ****** ****** ****** ****** ****** ******
      ****** ****** ****** ****** ****** ****** ****** ****** ****** ******
  21  ****** ****** ****** ****** ****** ****** ****** ****** ****** ******
      ****** ****** ****** ****** ****** ****** ****** ****** ****** ******
      ****** ****** ****** ****** ****** ****** ****** ****** ****** ******
  22  ****** ****** ****** ****** ****** ****** ****** ****** ****** ******
      ****** ****** ****** ****** ****** ****** ****** ****** ****** ******
      ****** ****** ****** ****** ****** ****** ****** ****** ****** ******
  23  ****** ****** ****** ****** ****** ****** ****** ****** ****** ******
      ****** ****** ****** ****** ****** ****** ****** ****** ****** ******
      ****** ****** ****** ****** ****** ****** ****** ****** ****** ******
  24  ****** ****** ****** ****** ****** ****** ****** ****** ****** ******
      ****** ****** ****** ****** ****** ****** ****** ****** ****** ******
      ****** ****** ****** ****** ****** ****** ****** ****** ****** ******
  25  ****** ****** ****** ****** ****** ****** ****** ****** ****** ******
      ****** ****** ****** ****** ****** ****** ****** ****** ****** ******
      ****** ****** ****** ****** ****** ****** ****** ****** ****** ******

 HEAD WILL BE SAVED ON UNIT   51 AT END OF TIME STEP    1, STRESS PERIOD    1
1
  VOLUMETRIC BUDGET FOR ENTIRE MODEL AT END OF TIME STEP    1, STRESS PERIOD   1
  ------------------------------------------------------------------------------

     CUMULATIVE VOLUMES      L**3       RATES FOR THIS TIME STEP      L**3/T
     ------------------                 ------------------------

           IN:                                      IN:
           ---                                      ---
             STORAGE =    18478544.0359               STORAGE =      200853.7395
       CONSTANT HEAD =     1266483.7771         CONSTANT HEAD =       13766.1280
               WELLS =           0.0000                 WELLS =           0.0000
            RECHARGE =     1269600.0000              RECHARGE =       13800.0000
      STREAM LEAKAGE =      451915.7010        STREAM LEAKAGE =        4912.1272

            TOTAL IN =    21466543.5140              TOTAL IN =      233331.9947

          OUT:                                     OUT:
          ----                                     ----
             STORAGE =           0.0000               STORAGE =           0.0000
       CONSTANT HEAD =           0.0000         CONSTANT HEAD =           0.0000
               WELLS =     3252691.5881                 WELLS =       35355.3433
            RECHARGE =           0.0000              RECHARGE =           0.0000
      STREAM LEAKAGE =    18213852.2103        STREAM LEAKAGE =      197976.6545

           TOTAL OUT =    21466543.7984             TOTAL OUT =      233331.9978

            IN - OUT =          -0.2844              IN - OUT =      -3.0910E-03

 PERCENT DISCREPANCY =          -0.00     PERCENT DISCREPANCY =          -0.00






         TIME SUMMARY AT END OF TIME STEP    1 IN STRESS PERIOD    1
                    SECONDS     MINUTES      HOURS       DAYS        YEARS
                    -----------------------------------------------------------
   TIME STEP LENGTH 7.94880E+06 1.32480E+05  2208.0      92.000     0.25188    
 STRESS PERIOD TIME 7.94880E+06 1.32480E+05  2208.0      92.000     0.25188    
         TOTAL TIME 7.94880E+06 1.32480E+05  2208.0      92.000     0.25188    
1
1
                            STRESS PERIOD NO.    2, LENGTH =   91.00000    
                            -----------------------------------------------

                              NUMBER OF TIME STEPS =     1

                               MULTIPLIER FOR DELT =     1.500

                            INITIAL TIME STEP SIZE =   91.00000    

 WELL NO.  LAYER   ROW   COL   STRESS RATE         
 --------------------------------------------------
      1      1     16     21      -8812.    
      2      1     20     20      -6819.    
      3      1      4     15      -7093.    
      4      1     21     14     -0.1263E+05

      4 WELLS

                 RECHARGE =  2.000000E-03

 REUSING STREAM SEGMENT DATA FROM LAST STRESS PERIOD
 
 SOLVING FOR HEAD 


     7 CALLS TO PCG ROUTINE FOR TIME STEP   1 IN STRESS PERIOD    2
    27 TOTAL ITERATIONS

 OUTPUT CONTROL FOR STRESS PERIOD    2   TIME STEP    1
    SAVE BUDGET
    SAVE HEAD FOR ALL LAYERS
    PRINT HEAD FOR ALL LAYERS
 UBDSV2 SAVING "STREAMFLOW OUT  " ON UNIT  50 AT TIME STEP  1, STRESS PERIOD   2



 STREAM LISTING     PERIOD      2   STEP        1

 LAYER ROW COL. STREAM  RCH.  FLOW INTO     FLOW TO   FLOW OUT OF   OVRLND.     DIRECT     STREAM       STREAM     STREAM     STREAM   STREAMBED  STREAMBED
                SEG.NO.  NO.  STRM. RCH.    AQUIFER    STRM. RCH.    RUNOFF     PRECIP       ET          HEAD       DEPTH      WIDTH   CONDCTNC.   GRADIENT

   1   13    1     1     1    1.0000E+05 -3.9430E+03   1.0394E+05  0.000E+00  0.000E+00  0.000E+00  4.84077E+01  1.464E-01  2.000E+01  2.000E+04 -1.972E-01
   1   13    2     1     2    1.0394E+05 -5.2052E+03   1.0915E+05  0.000E+00  0.000E+00  0.000E+00  4.79344E+01  1.503E-01  2.000E+01  2.000E+04 -2.603E-01
   1   14    3     1     3    1.0915E+05 -1.1021E+03   1.1025E+05  0.000E+00  0.000E+00  0.000E+00  4.74597E+01  1.529E-01  2.000E+01  2.000E+04 -5.510E-02
   1   15    4     1     4    1.1025E+05 -1.1198E+03   1.1137E+05  0.000E+00  0.000E+00  0.000E+00  4.69834E+01  1.538E-01  2.000E+01  2.000E+04 -5.599E-02
   1   16    5     1     5    1.1137E+05 -4.0051E+03   1.1538E+05  0.000E+00  0.000E+00  0.000E+00  4.65082E+01  1.560E-01  2.000E+01  2.000E+04 -2.003E-01
   1   16    6     1     6    1.1538E+05 -2.3096E+03   1.1768E+05  0.000E+00  0.000E+00  0.000E+00  4.60336E+01  1.586E-01  2.000E+01  2.000E+04 -1.155E-01
   1   16    7     1     7    1.1768E+05 -2.1627E+03   1.1985E+05  0.000E+00  0.000E+00  0.000E+00  4.55581E+01  1.604E-01  2.000E+01  2.000E+04 -1.081E-01
   1   16    8     1     8    1.1985E+05 -2.0549E+03   1.2190E+05  0.000E+00  0.000E+00  0.000E+00  4.50825E+01  1.621E-01  2.000E+01  2.000E+04 -1.027E-01
   1   16    9     1     9    1.2190E+05 -1.9269E+03   1.2383E+05  0.000E+00  0.000E+00  0.000E+00  4.46069E+01  1.637E-01  2.000E+01  2.000E+04 -9.634E-02
   1   16   10     1    10    1.2383E+05 -1.7582E+03   1.2559E+05  0.000E+00  0.000E+00  0.000E+00  4.41311E+01  1.651E-01  2.000E+01  2.000E+04 -8.791E-02
   1   16   11     1    11    1.2559E+05 -1.5547E+03   1.2714E+05  0.000E+00  0.000E+00  0.000E+00  4.36551E+01  1.665E-01  2.000E+01  2.000E+04 -7.774E-02
   1   16   12     1    12    1.2714E+05 -2.4487E+03   1.2959E+05  0.000E+00  0.000E+00  0.000E+00  4.31794E+01  1.680E-01  2.000E+01  2.000E+04 -1.224E-01
   1   15   13     1    13    1.2959E+05 -2.8663E+03   1.3246E+05  0.000E+00  0.000E+00  0.000E+00  4.27042E+01  1.701E-01  2.000E+01  2.000E+04 -1.433E-01
   1   14   14     1    14    1.3246E+05 -3.4649E+03   1.3592E+05  0.000E+00  0.000E+00  0.000E+00  4.22294E+01  1.726E-01  2.000E+01  2.000E+04 -1.732E-01
   1   13   15     1    15    1.3592E+05 -3.9972E+03   1.3992E+05  0.000E+00  0.000E+00  0.000E+00  4.17550E+01  1.754E-01  2.000E+01  2.000E+04 -1.999E-01
   1   12   16     1    16    1.3992E+05 -5.1023E+03   1.4502E+05  0.000E+00  0.000E+00  0.000E+00  4.12812E+01  1.789E-01  2.000E+01  2.000E+04 -2.551E-01
   1   12   17     1    17    1.4502E+05 -3.2263E+03   1.4825E+05  0.000E+00  0.000E+00  0.000E+00  4.08070E+01  1.820E-01  2.000E+01  2.000E+04 -1.613E-01
   1   12   18     1    18    1.4825E+05 -3.0600E+03   1.5131E+05  0.000E+00  0.000E+00  0.000E+00  4.03321E+01  1.843E-01  2.000E+01  2.000E+04 -1.530E-01
   1   12   19     1    19    1.5131E+05 -4.0924E+03   1.5540E+05  0.000E+00  0.000E+00  0.000E+00  3.98574E+01  1.870E-01  2.000E+01  2.000E+04 -2.046E-01
   1   13   20     1    20    1.5540E+05 -2.5155E+03   1.5792E+05  0.000E+00  0.000E+00  0.000E+00  3.93825E+01  1.894E-01  2.000E+01  2.000E+04 -1.258E-01
   1   14   21     1    21    1.5792E+05 -5.2331E+02   1.5844E+05  0.000E+00  0.000E+00  0.000E+00  3.89064E+01  1.905E-01  2.000E+01  2.000E+04 -2.617E-02
   1   14   22     1    22    1.5844E+05  5.0148E+03   1.5342E+05  0.000E+00  0.000E+00  0.000E+00  3.84275E+01  1.888E-01  2.000E+01  2.000E+04  2.507E-01
   1    9   30     2     1    5.0000E+04 -2.1325E+03   5.2132E+04  0.000E+00  0.000E+00  0.000E+00  4.02423E+01  1.173E-01  2.000E+01  2.000E+04 -1.066E-01
   1    9   29     2     2    5.2132E+04 -2.4398E+03   5.4572E+04  0.000E+00  0.000E+00  0.000E+00  3.99955E+01  1.205E-01  2.000E+01  2.000E+04 -1.220E-01
   1    9   28     2     3    5.4572E+04 -2.7378E+03   5.7310E+04  0.000E+00  0.000E+00  0.000E+00  3.97489E+01  1.239E-01  2.000E+01  2.000E+04 -1.369E-01
   1    9   27     2     4    5.7310E+04 -4.7968E+03   6.2107E+04  0.000E+00  0.000E+00  0.000E+00  3.95039E+01  1.289E-01  2.000E+01  2.000E+04 -2.398E-01
   1   10   26     2     5    6.2107E+04 -3.6993E+03   6.5806E+04  0.000E+00  0.000E+00  0.000E+00  3.92593E+01  1.343E-01  2.000E+01  2.000E+04 -1.850E-01
   1   11   25     2     6    6.5806E+04 -3.3104E+03   6.9117E+04  0.000E+00  0.000E+00  0.000E+00  3.90137E+01  1.387E-01  2.000E+01  2.000E+04 -1.655E-01
   1   12   24     2     7    6.9117E+04 -3.1730E+03   7.2290E+04  0.000E+00  0.000E+00  0.000E+00  3.87676E+01  1.426E-01  2.000E+01  2.000E+04 -1.586E-01
   1   13   23     2     8    7.2290E+04 -5.9949E+02   7.2889E+04  0.000E+00  0.000E+00  0.000E+00  3.85199E+01  1.449E-01  2.000E+01  2.000E+04 -2.997E-02
   1   14   22     2     9    7.2889E+04  1.8486E+03   7.1041E+04  0.000E+00  0.000E+00  0.000E+00  3.82692E+01  1.442E-01  2.000E+01  2.000E+04  9.243E-02
   1   14   22     3     1    2.2446E+05 -8.4799E+03   2.3294E+05  0.000E+00  0.000E+00  0.000E+00  3.77527E+01  1.972E-01  2.000E+01  2.000E+04 -4.240E-01
   1   15   23     3     2    2.3294E+05 -4.5667E+02   2.3340E+05  0.000E+00  0.000E+00  0.000E+00  3.68662E+01  1.995E-01  2.000E+01  2.000E+04 -2.283E-02
   1   15   24     3     3    2.3340E+05 -5.5810E+02   2.3396E+05  0.000E+00  0.000E+00  0.000E+00  3.59775E+01  1.997E-01  2.000E+01  2.000E+04 -2.790E-02
   1   15   25     3     4    2.3396E+05 -6.1877E+02   2.3458E+05  0.000E+00  0.000E+00  0.000E+00  3.50889E+01  2.000E-01  2.000E+01  2.000E+04 -3.094E-02
   1   15   26     3     5    2.3458E+05 -7.4918E+02   2.3533E+05  0.000E+00  0.000E+00  0.000E+00  3.42004E+01  2.004E-01  2.000E+01  2.000E+04 -3.746E-02
   1   16   27     3     6    2.3533E+05 -8.5732E+02   2.3618E+05  0.000E+00  0.000E+00  0.000E+00  3.33119E+01  2.008E-01  2.000E+01  2.000E+04 -4.287E-02
   1   17   28     3     7    2.3618E+05 -3.0901E+03   2.3927E+05  0.000E+00  0.000E+00  0.000E+00  3.24240E+01  2.018E-01  2.000E+01  2.000E+04 -1.545E-01
   1   18   29     3     8    2.3927E+05 -4.6679E+03   2.4394E+05  0.000E+00  0.000E+00  0.000E+00  3.15371E+01  2.038E-01  2.000E+01  2.000E+04 -2.334E-01
   1   18   30     3     9    2.4394E+05 -4.4603E+03   2.4840E+05  0.000E+00  0.000E+00  0.000E+00  3.06505E+01  2.061E-01  2.000E+01  2.000E+04 -2.230E-01



1
              HEAD IN LAYER   1 AT END OF TIME STEP   1 IN STRESS PERIOD    2
  ---------------------------------------------------------------------------

          1      2      3      4      5      6      7      8      9     10
         11     12     13     14     15     16     17     18     19     20
         21     22     23     24     25     26     27     28     29     30
 .........................................................................
   1  ****** ****** ****** ****** ****** ****** ****** ****** ****** ******
      ****** ****** ****** ****** ****** ****** ****** ****** ****** ******
      ****** ****** ****** ****** ****** ****** ****** ****** ****** ******
   2  ****** ****** ****** ****** ****** ****** ****** ****** ****** ******
      ****** ****** ****** ****** ****** ****** ****** ****** ****** ******
      ****** ****** ****** ****** ****** ****** ****** ****** ****** ******
   3  ****** ****** ****** ****** ****** ****** ****** ****** ****** ******
      ****** ****** ****** ****** ****** ****** ****** ****** ****** ******
      ****** ****** ****** ****** ****** ****** ****** ****** ****** ******
   4  ****** ****** ****** ****** ****** ****** ****** ****** ****** ******
      ****** ****** ****** ****** ****** ****** ****** ****** ****** ******
      ****** ****** ****** ****** ****** ****** ****** ****** ****** ******
   5  ****** ****** ****** ****** ****** ****** ****** ****** ****** ******
      ****** ****** ****** ****** ****** ****** ****** ****** ****** ******
      ****** ****** ****** ****** ****** ****** ****** ****** ****** ******
   6  ****** ****** ****** ****** ****** ****** ****** ****** ****** ******
      ****** ****** ****** ****** ****** ****** ****** ****** ****** ******
      ****** ****** ****** ****** ****** ****** ****** ****** ****** ******
   7  ****** ****** ****** ****** ****** ****** ****** ****** ****** ******
      ****** ****** ****** ****** ****** ****** ****** ****** ****** ******
      ****** ****** ****** ****** ****** ****** ****** ****** ****** ******
   8  ****** ****** ****** ****** ****** ****** ****** ****** ****** ******
      ****** ****** ****** ****** ****** ****** ****** ****** ****** ******
      ****** ****** ****** ****** ****** ****** ****** ****** ****** ******
   9  ****** ****** ****** ****** ****** ****** ****** ****** ****** ******
      ****** ****** ****** ****** ****** ****** ****** ****** ****** ******
      ****** ****** ****** ****** ****** ****** ****** ****** ****** ******
  10  ****** ****** ****** ****** ****** ****** ****** ****** ****** ******
      ****** ****** ****** ****** ****** ****** ****** ****** ****** ******
      ****** ****** ****** ****** ****** ****** ****** ****** ****** ******
  11  ****** ****** ****** ****** ****** ****** ****** ****** ****** ******
      ****** ****** ****** ****** ****** ****** ****** ****** ****** ******
      ****** ****** ****** ****** ****** ****** ****** ****** ****** ******
  12  ****** ****** ****** ****** ****** ****** ****** ****** ****** ******
      ****** ****** ****** ****** ****** ****** ****** ****** ****** ******
      ****** ****** ****** ****** ****** ****** ****** ****** ****** ******
  13  ****** ****** ****** ****** ****** ****** ****** ****** ****** ******
      ****** ****** ****** ****** ****** ****** ****** ****** ****** ******
      ****** ****** ****** ****** ****** ****** ****** ****** ****** ******
  14  ****** ****** ****** ****** ****** ****** ****** ****** ****** ******
      ****** ****** ****** ****** ****** ****** ****** ****** ****** ******
      ****** ****** ****** ****** ****** ****** ****** ****** ****** ******
  15  ****** ****** ****** ****** ****** ****** ****** ****** ****** ******
      ****** ****** ****** ****** ****** ****** ****** ****** ****** ******
      ****** ****** ****** ****** ****** ****** ****** ****** ****** ******
  16  ****** ****** ****** ****** ****** ****** ****** ****** ****** ******
      ****** ****** ****** ****** ****** ****** ****** ****** ****** ******
      ****** ****** ****** ****** ****** ****** ****** ****** ****** ******
  17  ****** ****** ****** ****** ****** ****** ****** ****** ****** ******
      ****** ****** ****** ****** ****** ****** ****** ****** ****** ******
      ****** ****** ****** ****** ****** ****** ****** ****** ****** ******
  18  ****** ****** ****** ****** ****** ****** ****** ****** ****** ******
      ****** ****** ****** ****** ****** ****** ****** ****** ****** ******
      ****** ****** ****** ****** ****** ****** ****** ****** ****** ******
  19  ****** ****** ****** ****** ****** ****** ****** ****** ****** ******
      ****** ****** ****** ****** ****** ****** ****** ****** ****** ******
      ****** ****** ****** ****** ****** ****** ****** ****** ****** ******
  20  ****** ****** ****** ****** ****** ****** ****** ****** ****** ******
      ****** ****** ****** ****** ****** ****** ****** ****** ****** ******
      ****** ****** ****** ****** ****** ****** ****** ****** ****** ******
  21  ****** ****** ****** ****** ****** ****** ****** ****** ****** ******
      ****** ****** ****** ****** ****** ****** ****** ****** ****** ******
      ****** ****** ****** ****** ****** ****** ****** ****** ****** ******
  22  ****** ****** ****** ****** ****** ****** ****** ****** ****** ******
      ****** ****** ****** ****** ****** ****** ****** ****** ****** ******
      ****** ****** ****** ****** ****** ****** ****** ****** ****** ******
  23  ****** ****** ****** ****** ****** ****** ****** ****** ****** ******
      ****** ****** ****** ****** ****** ****** ****** ****** ****** ******
      ****** ****** ****** ****** ****** ****** ****** ****** ****** ******
  24  ****** ****** ****** ****** ****** ****** ****** ****** ****** ******
      ****** ****** ****** ****** ****** ****** ****** ****** ****** ******
      ****** ****** ****** ****** ****** ****** ****** ****** ****** ******
  25  ****** ****** ****** ****** ****** ****** ****** ****** ****** ******
      ****** ****** ****** ****** ****** ****** ****** ****** ****** ******
      ****** ****** ****** ****** ****** ****** ****** ****** ****** ******

 HEAD WILL BE SAVED ON UNIT   51 AT END OF TIME STEP    1, STRESS PERIOD    2
1
  VOLUMETRIC BUDGET FOR ENTIRE MODEL AT END OF TIME STEP    1, STRESS PERIOD   2
  ------------------------------------------------------------------------------

     CUMULATIVE VOLUMES      L**3       RATES FOR THIS TIME STEP      L**3/T
     ------------------                 ------------------------

           IN:                                      IN:
           ---                                      ---
             STORAGE =    23874217.2919               STORAGE =       59293.1127
       CONSTANT HEAD =     3019606.4637         CONSTANT HEAD =       19265.0845
               WELLS =           0.0000                 WELLS =           0.0000
            RECHARGE =     6292800.0000              RECHARGE =       55200.0000
      STREAM LEAKAGE =     1076485.1365        STREAM LEAKAGE =        6863.4004

            TOTAL IN =    34263108.8921              TOTAL IN =      140621.5976

          OUT:                                     OUT:
          ----                                     ----
             STORAGE =           0.0000               STORAGE =           0.0000
       CONSTANT HEAD =           0.0000         CONSTANT HEAD =           0.0000
               WELLS =     6470027.8328                 WELLS =       35355.3433
            RECHARGE =           0.0000              RECHARGE =           0.0000
      STREAM LEAKAGE =    27793082.2934        STREAM LEAKAGE =      105266.2646

           TOTAL OUT =    34263110.1261             TOTAL OUT =      140621.6080

            IN - OUT =          -1.2341              IN - OUT =      -1.0436E-02

 PERCENT DISCREPANCY =          -0.00     PERCENT DISCREPANCY =          -0.00






         TIME SUMMARY AT END OF TIME STEP    1 IN STRESS PERIOD    2
                    SECONDS     MINUTES      HOURS       DAYS        YEARS
                    -----------------------------------------------------------
   TIME STEP LENGTH 7.86240E+06 1.31040E+05  2184.0      91.000     0.24914    
 STRESS PERIOD TIME 7.86240E+06 1.31040E+05  2184.0      91.000     0.24914    
         TOTAL TIME 1.58112E+07 2.63520E+05  4392.0      183.00     0.50103    
1
1
                            STRESS PERIOD NO.    3, LENGTH =   91.00000    
                            -----------------------------------------------

                              NUMBER OF TIME STEPS =     1

                               MULTIPLIER FOR DELT =     1.500

                            INITIAL TIME STEP SIZE =   91.00000    

 WELL NO.  LAYER   ROW   COL   STRESS RATE         
 --------------------------------------------------
      1      1     16     21      -8812.    
      2      1     20     20      -6819.    
      3      1      4     15      -7093.    
      4      1     21     14     -0.1263E+05

      4 WELLS

                 RECHARGE =   0.00000    

 REUSING STREAM SEGMENT DATA FROM LAST STRESS PERIOD
 
 SOLVING FOR HEAD 


     7 CALLS TO PCG ROUTINE FOR TIME STEP   1 IN STRESS PERIOD    3
    27 TOTAL ITERATIONS

 OUTPUT CONTROL FOR STRESS PERIOD    3   TIME STEP    1
    SAVE BUDGET
    SAVE HEAD FOR ALL LAYERS
    PRINT HEAD FOR ALL LAYERS
 UBDSV2 SAVING "STREAMFLOW OUT  " ON UNIT  50 AT TIME STEP  1, STRESS PERIOD   3



 STREAM LISTING     PERIOD      3   STEP        1

 LAYER ROW COL. STREAM  RCH.  FLOW INTO     FLOW TO   FLOW OUT OF   OVRLND.     DIRECT     STREAM       STREAM     STREAM     STREAM   STREAMBED  STREAMBED
                SEG.NO.  NO.  STRM. RCH.    AQUIFER    STRM. RCH.    RUNOFF     PRECIP       ET          HEAD       DEPTH      WIDTH   CONDCTNC.   GRADIENT

   1   13    1     1     1    1.0000E+05 -2.6601E+03   1.0266E+05  0.000E+00  0.000E+00  0.000E+00  4.84072E+01  1.458E-01  2.000E+01  2.000E+04 -1.330E-01
   1   13    2     1     2    1.0266E+05 -3.7683E+03   1.0643E+05  0.000E+00  0.000E+00  0.000E+00  4.79327E+01  1.486E-01  2.000E+01  2.000E+04 -1.884E-01
   1   14    3     1     3    1.0643E+05 -6.3402E+02   1.0706E+05  0.000E+00  0.000E+00  0.000E+00  4.74572E+01  1.504E-01  2.000E+01  2.000E+04 -3.170E-02
   1   15    4     1     4    1.0706E+05 -6.0403E+02   1.0767E+05  0.000E+00  0.000E+00  0.000E+00  4.69805E+01  1.510E-01  2.000E+01  2.000E+04 -3.020E-02
   1   16    5     1     5    1.0767E+05 -2.1197E+03   1.0979E+05  0.000E+00  0.000E+00  0.000E+00  4.65044E+01  1.521E-01  2.000E+01  2.000E+04 -1.060E-01
   1   16    6     1     6    1.0979E+05 -1.2471E+03   1.1103E+05  0.000E+00  0.000E+00  0.000E+00  4.60285E+01  1.535E-01  2.000E+01  2.000E+04 -6.236E-02
   1   16    7     1     7    1.1103E+05 -1.1514E+03   1.1218E+05  0.000E+00  0.000E+00  0.000E+00  4.55522E+01  1.545E-01  2.000E+01  2.000E+04 -5.757E-02
   1   16    8     1     8    1.1218E+05 -1.0503E+03   1.1323E+05  0.000E+00  0.000E+00  0.000E+00  4.50759E+01  1.554E-01  2.000E+01  2.000E+04 -5.251E-02
   1   16    9     1     9    1.1323E+05 -9.1196E+02   1.1415E+05  0.000E+00  0.000E+00  0.000E+00  4.45994E+01  1.562E-01  2.000E+01  2.000E+04 -4.560E-02
   1   16   10     1    10    1.1415E+05 -7.2488E+02   1.1487E+05  0.000E+00  0.000E+00  0.000E+00  4.41228E+01  1.569E-01  2.000E+01  2.000E+04 -3.624E-02
   1   16   11     1    11    1.1487E+05 -4.8838E+02   1.1536E+05  0.000E+00  0.000E+00  0.000E+00  4.36460E+01  1.574E-01  2.000E+01  2.000E+04 -2.442E-02
   1   16   12     1    12    1.1536E+05 -5.5696E+02   1.1592E+05  0.000E+00  0.000E+00  0.000E+00  4.31692E+01  1.578E-01  2.000E+01  2.000E+04 -2.785E-02
   1   15   13     1    13    1.1592E+05 -9.9721E+02   1.1691E+05  0.000E+00  0.000E+00  0.000E+00  4.26926E+01  1.585E-01  2.000E+01  2.000E+04 -4.986E-02
   1   14   14     1    14    1.1691E+05 -1.5777E+03   1.1849E+05  0.000E+00  0.000E+00  0.000E+00  4.22163E+01  1.595E-01  2.000E+01  2.000E+04 -7.888E-02
   1   13   15     1    15    1.1849E+05 -2.1366E+03   1.2063E+05  0.000E+00  0.000E+00  0.000E+00  4.17406E+01  1.610E-01  2.000E+01  2.000E+04 -1.068E-01
   1   12   16     1    16    1.2063E+05 -3.2274E+03   1.2386E+05  0.000E+00  0.000E+00  0.000E+00  4.12654E+01  1.632E-01  2.000E+01  2.000E+04 -1.614E-01
   1   12   17     1    17    1.2386E+05 -1.8512E+03   1.2571E+05  0.000E+00  0.000E+00  0.000E+00  4.07902E+01  1.652E-01  2.000E+01  2.000E+04 -9.256E-02
   1   12   18     1    18    1.2571E+05 -1.7073E+03   1.2741E+05  0.000E+00  0.000E+00  0.000E+00  4.03143E+01  1.666E-01  2.000E+01  2.000E+04 -8.536E-02
   1   12   19     1    19    1.2741E+05 -2.4298E+03   1.2984E+05  0.000E+00  0.000E+00  0.000E+00  3.98387E+01  1.682E-01  2.000E+01  2.000E+04 -1.215E-01
   1   13   20     1    20    1.2984E+05 -9.1514E+02   1.3076E+05  0.000E+00  0.000E+00  0.000E+00  3.93627E+01  1.695E-01  2.000E+01  2.000E+04 -4.576E-02
   1   14   21     1    21    1.3076E+05  1.2143E+03   1.2955E+05  0.000E+00  0.000E+00  0.000E+00  3.88853E+01  1.694E-01  2.000E+01  2.000E+04  6.071E-02
   1   14   22     1    22    1.2955E+05  5.4064E+03   1.2414E+05  0.000E+00  0.000E+00  0.000E+00  3.84055E+01  1.668E-01  2.000E+01  2.000E+04  2.703E-01
   1    9   30     2     1    5.0000E+04 -9.3416E+02   5.0934E+04  0.000E+00  0.000E+00  0.000E+00  4.02415E+01  1.165E-01  2.000E+01  2.000E+04 -4.671E-02
   1    9   29     2     2    5.0934E+04 -1.2428E+03   5.2177E+04  0.000E+00  0.000E+00  0.000E+00  3.99930E+01  1.180E-01  2.000E+01  2.000E+04 -6.214E-02
   1    9   28     2     3    5.2177E+04 -1.5265E+03   5.3703E+04  0.000E+00  0.000E+00  0.000E+00  3.97449E+01  1.199E-01  2.000E+01  2.000E+04 -7.632E-02
   1    9   27     2     4    5.3703E+04 -3.0485E+03   5.6752E+04  0.000E+00  0.000E+00  0.000E+00  3.94980E+01  1.230E-01  2.000E+01  2.000E+04 -1.524E-01
   1   10   26     2     5    5.6752E+04 -2.0664E+03   5.8818E+04  0.000E+00  0.000E+00  0.000E+00  3.92514E+01  1.264E-01  2.000E+01  2.000E+04 -1.033E-01
   1   11   25     2     6    5.8818E+04 -1.7879E+03   6.0606E+04  0.000E+00  0.000E+00  0.000E+00  3.90039E+01  1.289E-01  2.000E+01  2.000E+04 -8.939E-02
   1   12   24     2     7    6.0606E+04 -1.8090E+03   6.2415E+04  0.000E+00  0.000E+00  0.000E+00  3.87562E+01  1.312E-01  2.000E+01  2.000E+04 -9.045E-02
   1   13   23     2     8    6.2415E+04 -2.6159E+02   6.2677E+04  0.000E+00  0.000E+00  0.000E+00  3.85075E+01  1.325E-01  2.000E+01  2.000E+04 -1.308E-02
   1   14   22     2     9    6.2677E+04  2.4199E+03   6.0257E+04  0.000E+00  0.000E+00  0.000E+00  3.82561E+01  1.311E-01  2.000E+01  2.000E+04  1.210E-01
   1   14   22     3     1    1.8440E+05 -8.0809E+03   1.9248E+05  0.000E+00  0.000E+00  0.000E+00  3.77311E+01  1.755E-01  2.000E+01  2.000E+04 -4.040E-01
   1   15   23     3     2    1.9248E+05 -3.4700E+00   1.9248E+05  0.000E+00  0.000E+00  0.000E+00  3.68445E+01  1.778E-01  2.000E+01  2.000E+04 -1.735E-04
   1   15   24     3     3    1.9248E+05 -2.1077E+02   1.9269E+05  0.000E+00  0.000E+00  0.000E+00  3.59556E+01  1.779E-01  2.000E+01  2.000E+04 -1.054E-02
   1   15   25     3     4    1.9269E+05 -2.6239E+02   1.9295E+05  0.000E+00  0.000E+00  0.000E+00  3.50669E+01  1.780E-01  2.000E+01  2.000E+04 -1.312E-02
   1   15   26     3     5    1.9295E+05 -3.3578E+02   1.9329E+05  0.000E+00  0.000E+00  0.000E+00  3.41782E+01  1.782E-01  2.000E+01  2.000E+04 -1.679E-02
   1   16   27     3     6    1.9329E+05 -3.7431E+02   1.9366E+05  0.000E+00  0.000E+00  0.000E+00  3.32895E+01  1.784E-01  2.000E+01  2.000E+04 -1.872E-02
   1   17   28     3     7    1.9366E+05 -1.6118E+03   1.9528E+05  0.000E+00  0.000E+00  0.000E+00  3.24011E+01  1.789E-01  2.000E+01  2.000E+04 -8.059E-02
   1   18   29     3     8    1.9528E+05 -3.0026E+03   1.9828E+05  0.000E+00  0.000E+00  0.000E+00  3.15135E+01  1.802E-01  2.000E+01  2.000E+04 -1.501E-01
   1   18   30     3     9    1.9828E+05 -3.2360E+03   2.0151E+05  0.000E+00  0.000E+00  0.000E+00  3.06263E+01  1.819E-01  2.000E+01  2.000E+04 -1.618E-01



1
              HEAD IN LAYER   1 AT END OF TIME STEP   1 IN STRESS PERIOD    3
  ---------------------------------------------------------------------------

          1      2      3      4      5      6      7      8      9     10
         11     12     13     14     15     16     17     18     19     20
         21     22     23     24     25     26     27     28     29     30
 .........................................................................
   1  ****** ****** ****** ****** ****** ****** ****** ****** ****** ******
      ****** ****** ****** ****** ****** ****** ****** ****** ****** ******
      ****** ****** ****** ****** ****** ****** ****** ****** ****** ******
   2  ****** ****** ****** ****** ****** ****** ****** ****** ****** ******
      ****** ****** ****** ****** ****** ****** ****** ****** ****** ******
      ****** ****** ****** ****** ****** ****** ****** ****** ****** ******
   3  ****** ****** ****** ****** ****** ****** ****** ****** ****** ******
      ****** ****** ****** ****** ****** ****** ****** ****** ****** ******
      ****** ****** ****** ****** ****** ****** ****** ****** ****** ******
   4  ****** ****** ****** ****** ****** ****** ****** ****** ****** ******
      ****** ****** ****** ****** ****** ****** ****** ****** ****** ******
      ****** ****** ****** ****** ****** ****** ****** ****** ****** ******
   5  ****** ****** ****** ****** ****** ****** ****** ****** ****** ******
      ****** ****** ****** ****** ****** ****** ****** ****** ****** ******
      ****** ****** ****** ****** ****** ****** ****** ****** ****** ******
   6  ****** ****** ****** ****** ****** ****** ****** ****** ****** ******
      ****** ****** ****** ****** ****** ****** ****** ****** ****** ******
      ****** ****** ****** ****** ****** ****** ****** ****** ****** ******
   7  ****** ****** ****** ****** ****** ****** ****** ****** ****** ******
      ****** ****** ****** ****** ****** ****** ****** ****** ****** ******
      ****** ****** ****** ****** ****** ****** ****** ****** ****** ******
   8  ****** ****** ****** ****** ****** ****** ****** ****** ****** ******
      ****** ****** ****** ****** ****** ****** ****** ****** ****** ******
      ****** ****** ****** ****** ****** ****** ****** ****** ****** ******
   9  ****** ****** ****** ****** ****** ****** ****** ****** ****** ******
      ****** ****** ****** ****** ****** ****** ****** ****** ****** ******
      ****** ****** ****** ****** ****** ****** ****** ****** ****** ******
  10  ****** ****** ****** ****** ****** ****** ****** ****** ****** ******
      ****** ****** ****** ****** ****** ****** ****** ****** ****** ******
      ****** ****** ****** ****** ****** ****** ****** ****** ****** ******
  11  ****** ****** ****** ****** ****** ****** ****** ****** ****** ******
      ****** ****** ****** ****** ****** ****** ****** ****** ****** ******
      ****** ****** ****** ****** ****** ****** ****** ****** ****** ******
  12  ****** ****** ****** ****** ****** ****** ****** ****** ****** ******
      ****** ****** ****** ****** ****** ****** ****** ****** ****** ******
      ****** ****** ****** ****** ****** ****** ****** ****** ****** ******
  13  ****** ****** ****** ****** ****** ****** ****** ****** ****** ******
      ****** ****** ****** ****** ****** ****** ****** ****** ****** ******
      ****** ****** ****** ****** ****** ****** ****** ****** ****** ******
  14  ****** ****** ****** ****** ****** ****** ****** ****** ****** ******
      ****** ****** ****** ****** ****** ****** ****** ****** ****** ******
      ****** ****** ****** ****** ****** ****** ****** ****** ****** ******
  15  ****** ****** ****** ****** ****** ****** ****** ****** ****** ******
      ****** ****** ****** ****** ****** ****** ****** ****** ****** ******
      ****** ****** ****** ****** ****** ****** ****** ****** ****** ******
  16  ****** ****** ****** ****** ****** ****** ****** ****** ****** ******
      ****** ****** ****** ****** ****** ****** ****** ****** ****** ******
      ****** ****** ****** ****** ****** ****** ****** ****** ****** ******
  17  ****** ****** ****** ****** ****** ****** ****** ****** ****** ******
      ****** ****** ****** ****** ****** ****** ****** ****** ****** ******
      ****** ****** ****** ****** ****** ****** ****** ****** ****** ******
  18  ****** ****** ****** ****** ****** ****** ****** ****** ****** ******
      ****** ****** ****** ****** ****** ****** ****** ****** ****** ******
      ****** ****** ****** ****** ****** ****** ****** ****** ****** ******
  19  ****** ****** ****** ****** ****** ****** ****** ****** ****** ******
      ****** ****** ****** ****** ****** ****** ****** ****** ****** ******
      ****** ****** ****** ****** ****** ****** ****** ****** ****** ******
  20  ****** ****** ****** ****** ****** ****** ****** ****** ****** ******
      ****** ****** ****** ****** ****** ****** ****** ****** ****** ******
      ****** ****** ****** ****** ****** ****** ****** ****** ****** ******
  21  ****** ****** ****** ****** ****** ****** ****** ****** ****** ******
      ****** ****** ****** ****** ****** ****** ****** ****** ****** ******
      ****** ****** ****** ****** ****** ****** ****** ****** ****** ******
  22  ****** ****** ****** ****** ****** ****** ****** ****** ****** ******
      ****** ****** ****** ****** ****** ****** ****** ****** ****** ******
      ****** ****** ****** ****** ****** ****** ****** ****** ****** ******
  23  ****** ****** ****** ****** ****** ****** ****** ****** ****** ******
      ****** ****** ****** ****** ****** ****** ****** ****** ****** ******
      ****** ****** ****** ****** ****** ****** ****** ****** ****** ******
  24  ****** ****** ****** ****** ****** ****** ****** ****** ****** ******
      ****** ****** ****** ****** ****** ****** ****** ****** ****** ******
      ****** ****** ****** ****** ****** ****** ****** ****** ****** ******
  25  ****** ****** ****** ****** ****** ****** ****** ****** ****** ******
      ****** ****** ****** ****** ****** ****** ****** ****** ****** ******
      ****** ****** ****** ****** ****** ****** ****** ****** ****** ******

 HEAD WILL BE SAVED ON UNIT   51 AT END OF TIME STEP    1, STRESS PERIOD    3
1
  VOLUMETRIC BUDGET FOR ENTIRE MODEL AT END OF TIME STEP    1, STRESS PERIOD   3
  ------------------------------------------------------------------------------

     CUMULATIVE VOLUMES      L**3       RATES FOR THIS TIME STEP      L**3/T
     ------------------                 ------------------------

           IN:                                      IN:
           ---                                      ---
             STORAGE =    29190810.1176               STORAGE =       58424.0970
       CONSTANT HEAD =     5608101.4723         CONSTANT HEAD =       28445.0001
               WELLS =           0.0000                 WELLS =           0.0000
            RECHARGE =     6292800.0000              RECHARGE =           0.0000
      STREAM LEAKAGE =     1899171.4882        STREAM LEAKAGE =        9040.5094

            TOTAL IN =    42990883.0781              TOTAL IN =       95909.6064

          OUT:                                     OUT:
          ----                                     ----
             STORAGE =           0.0000               STORAGE =           0.0000
       CONSTANT HEAD =           0.0000         CONSTANT HEAD =           0.0000
               WELLS =     9687364.0775                 WELLS =       35355.3433
            RECHARGE =           0.0000              RECHARGE =           0.0000
      STREAM LEAKAGE =    33303520.9377        STREAM LEAKAGE =       60554.2708

           TOTAL OUT =    42990885.0152             TOTAL OUT =       95909.6142

            IN - OUT =          -1.9371              IN - OUT =      -7.7257E-03

 PERCENT DISCREPANCY =          -0.00     PERCENT DISCREPANCY =          -0.00






         TIME SUMMARY AT END OF TIME STEP    1 IN STRESS PERIOD    3
                    SECONDS     MINUTES      HOURS       DAYS        YEARS
                    -----------------------------------------------------------
   TIME STEP LENGTH 7.86240E+06 1.31040E+05  2184.0      91.000     0.24914    
 STRESS PERIOD TIME 7.86240E+06 1.31040E+05  2184.0      91.000     0.24914    
         TOTAL TIME 2.36736E+07 3.94560E+05  6576.0      274.00     0.75017    
1
1
                            STRESS PERIOD NO.    4, LENGTH =   91.00000    
                            -----------------------------------------------

                              NUMBER OF TIME STEPS =     1

                               MULTIPLIER FOR DELT =     1.500

                            INITIAL TIME STEP SIZE =   91.00000    

 WELL NO.  LAYER   ROW   COL   STRESS RATE         
 --------------------------------------------------
      1      1     16     21      -8812.    
      2      1     20     20      -6819.    
      3      1      4     15      -7093.    
      4      1     21     14     -0.1263E+05

      4 WELLS

                 RECHARGE =  1.000000E-03

 REUSING STREAM SEGMENT DATA FROM LAST STRESS PERIOD
 
 SOLVING FOR HEAD 


     6 CALLS TO PCG ROUTINE FOR TIME STEP   1 IN STRESS PERIOD    4
    23 TOTAL ITERATIONS

 OUTPUT CONTROL FOR STRESS PERIOD    4   TIME STEP    1
    SAVE BUDGET
    SAVE HEAD FOR ALL LAYERS
    PRINT HEAD FOR ALL LAYERS
 UBDSV2 SAVING "STREAMFLOW OUT  " ON UNIT  50 AT TIME STEP  1, STRESS PERIOD   4



 STREAM LISTING     PERIOD      4   STEP        1

 LAYER ROW COL. STREAM  RCH.  FLOW INTO     FLOW TO   FLOW OUT OF   OVRLND.     DIRECT     STREAM       STREAM     STREAM     STREAM   STREAMBED  STREAMBED
                SEG.NO.  NO.  STRM. RCH.    AQUIFER    STRM. RCH.    RUNOFF     PRECIP       ET          HEAD       DEPTH      WIDTH   CONDCTNC.   GRADIENT

   1   13    1     1     1    1.0000E+05 -2.4003E+03   1.0240E+05  0.000E+00  0.000E+00  0.000E+00  4.84071E+01  1.457E-01  2.000E+01  2.000E+04 -1.200E-01
   1   13    2     1     2    1.0240E+05 -3.4697E+03   1.0587E+05  0.000E+00  0.000E+00  0.000E+00  4.79323E+01  1.482E-01  2.000E+01  2.000E+04 -1.735E-01
   1   14    3     1     3    1.0587E+05 -6.0028E+02   1.0647E+05  0.000E+00  0.000E+00  0.000E+00  4.74568E+01  1.499E-01  2.000E+01  2.000E+04 -3.001E-02
   1   15    4     1     4    1.0647E+05 -5.5847E+02   1.0703E+05  0.000E+00  0.000E+00  0.000E+00  4.69800E+01  1.504E-01  2.000E+01  2.000E+04 -2.792E-02
   1   16    5     1     5    1.0703E+05 -1.7623E+03   1.0879E+05  0.000E+00  0.000E+00  0.000E+00  4.65037E+01  1.514E-01  2.000E+01  2.000E+04 -8.811E-02
   1   16    6     1     6    1.0879E+05 -1.0648E+03   1.0986E+05  0.000E+00  0.000E+00  0.000E+00  4.60276E+01  1.526E-01  2.000E+01  2.000E+04 -5.324E-02
   1   16    7     1     7    1.0986E+05 -9.7827E+02   1.1083E+05  0.000E+00  0.000E+00  0.000E+00  4.55512E+01  1.535E-01  2.000E+01  2.000E+04 -4.891E-02
   1   16    8     1     8    1.1083E+05 -8.7712E+02   1.1171E+05  0.000E+00  0.000E+00  0.000E+00  4.50747E+01  1.542E-01  2.000E+01  2.000E+04 -4.386E-02
   1   16    9     1     9    1.1171E+05 -7.3587E+02   1.1245E+05  0.000E+00  0.000E+00  0.000E+00  4.45981E+01  1.549E-01  2.000E+01  2.000E+04 -3.679E-02
   1   16   10     1    10    1.1245E+05 -5.4475E+02   1.1299E+05  0.000E+00  0.000E+00  0.000E+00  4.41213E+01  1.554E-01  2.000E+01  2.000E+04 -2.724E-02
   1   16   11     1    11    1.1299E+05 -2.9699E+02   1.1329E+05  0.000E+00  0.000E+00  0.000E+00  4.36444E+01  1.558E-01  2.000E+01  2.000E+04 -1.485E-02
   1   16   12     1    12    1.1329E+05 -1.6243E+02   1.1345E+05  0.000E+00  0.000E+00  0.000E+00  4.31673E+01  1.560E-01  2.000E+01  2.000E+04 -8.122E-03
   1   15   13     1    13    1.1345E+05 -6.5005E+02   1.1410E+05  0.000E+00  0.000E+00  0.000E+00  4.26904E+01  1.563E-01  2.000E+01  2.000E+04 -3.250E-02
   1   14   14     1    14    1.1410E+05 -1.2215E+03   1.1532E+05  0.000E+00  0.000E+00  0.000E+00  4.22139E+01  1.571E-01  2.000E+01  2.000E+04 -6.108E-02
   1   13   15     1    15    1.1532E+05 -1.7703E+03   1.1709E+05  0.000E+00  0.000E+00  0.000E+00  4.17378E+01  1.583E-01  2.000E+01  2.000E+04 -8.852E-02
   1   12   16     1    16    1.1709E+05 -2.7879E+03   1.1988E+05  0.000E+00  0.000E+00  0.000E+00  4.12624E+01  1.602E-01  2.000E+01  2.000E+04 -1.394E-01
   1   12   17     1    17    1.1988E+05 -1.5740E+03   1.2146E+05  0.000E+00  0.000E+00  0.000E+00  4.07869E+01  1.619E-01  2.000E+01  2.000E+04 -7.870E-02
   1   12   18     1    18    1.2146E+05 -1.4483E+03   1.2290E+05  0.000E+00  0.000E+00  0.000E+00  4.03109E+01  1.631E-01  2.000E+01  2.000E+04 -7.242E-02
   1   12   19     1    19    1.2290E+05 -2.1241E+03   1.2503E+05  0.000E+00  0.000E+00  0.000E+00  3.98350E+01  1.646E-01  2.000E+01  2.000E+04 -1.062E-01
   1   13   20     1    20    1.2503E+05 -6.7424E+02   1.2570E+05  0.000E+00  0.000E+00  0.000E+00  3.93588E+01  1.657E-01  2.000E+01  2.000E+04 -3.371E-02
   1   14   21     1    21    1.2570E+05  1.5677E+03   1.2413E+05  0.000E+00  0.000E+00  0.000E+00  3.88812E+01  1.653E-01  2.000E+01  2.000E+04  7.839E-02
   1   14   22     1    22    1.2413E+05  5.4596E+03   1.1867E+05  0.000E+00  0.000E+00  0.000E+00  3.84011E+01  1.625E-01  2.000E+01  2.000E+04  2.730E-01
   1    9   30     2     1    5.0000E+04 -8.4640E+02   5.0846E+04  0.000E+00  0.000E+00  0.000E+00  4.02415E+01  1.165E-01  2.000E+01  2.000E+04 -4.232E-02
   1    9   29     2     2    5.0846E+04 -1.1477E+03   5.1994E+04  0.000E+00  0.000E+00  0.000E+00  3.99928E+01  1.178E-01  2.000E+01  2.000E+04 -5.738E-02
   1    9   28     2     3    5.1994E+04 -1.4103E+03   5.3404E+04  0.000E+00  0.000E+00  0.000E+00  3.97446E+01  1.196E-01  2.000E+01  2.000E+04 -7.052E-02
   1    9   27     2     4    5.3404E+04 -2.7780E+03   5.6182E+04  0.000E+00  0.000E+00  0.000E+00  3.94974E+01  1.224E-01  2.000E+01  2.000E+04 -1.389E-01
   1   10   26     2     5    5.6182E+04 -1.9063E+03   5.8089E+04  0.000E+00  0.000E+00  0.000E+00  3.92505E+01  1.255E-01  2.000E+01  2.000E+04 -9.532E-02
   1   11   25     2     6    5.8089E+04 -1.6672E+03   5.9756E+04  0.000E+00  0.000E+00  0.000E+00  3.90029E+01  1.279E-01  2.000E+01  2.000E+04 -8.336E-02
   1   12   24     2     7    5.9756E+04 -1.7043E+03   6.1460E+04  0.000E+00  0.000E+00  0.000E+00  3.87550E+01  1.300E-01  2.000E+01  2.000E+04 -8.522E-02
   1   13   23     2     8    6.1460E+04 -2.8583E+02   6.1746E+04  0.000E+00  0.000E+00  0.000E+00  3.85063E+01  1.313E-01  2.000E+01  2.000E+04 -1.429E-02
   1   14   22     2     9    6.1746E+04  2.5344E+03   5.9212E+04  0.000E+00  0.000E+00  0.000E+00  3.82549E+01  1.299E-01  2.000E+01  2.000E+04  1.267E-01
   1   14   22     3     1    1.7789E+05 -8.0148E+03   1.8590E+05  0.000E+00  0.000E+00  0.000E+00  3.77274E+01  1.719E-01  2.000E+01  2.000E+04 -4.007E-01
   1   15   23     3     2    1.8590E+05  4.9622E+01   1.8585E+05  0.000E+00  0.000E+00  0.000E+00  3.68408E+01  1.741E-01  2.000E+01  2.000E+04  2.481E-03
   1   15   24     3     3    1.8585E+05 -1.9630E+02   1.8605E+05  0.000E+00  0.000E+00  0.000E+00  3.59519E+01  1.742E-01  2.000E+01  2.000E+04 -9.815E-03
   1   15   25     3     4    1.8605E+05 -2.5094E+02   1.8630E+05  0.000E+00  0.000E+00  0.000E+00  3.50632E+01  1.743E-01  2.000E+01  2.000E+04 -1.255E-02
   1   15   26     3     5    1.8630E+05 -3.3854E+02   1.8664E+05  0.000E+00  0.000E+00  0.000E+00  3.41744E+01  1.744E-01  2.000E+01  2.000E+04 -1.693E-02
   1   16   27     3     6    1.8664E+05 -3.6306E+02   1.8700E+05  0.000E+00  0.000E+00  0.000E+00  3.32858E+01  1.746E-01  2.000E+01  2.000E+04 -1.815E-02
   1   17   28     3     7    1.8700E+05 -1.5060E+03   1.8851E+05  0.000E+00  0.000E+00  0.000E+00  3.23974E+01  1.752E-01  2.000E+01  2.000E+04 -7.530E-02
   1   18   29     3     8    1.8851E+05 -2.6926E+03   1.9120E+05  0.000E+00  0.000E+00  0.000E+00  3.15097E+01  1.763E-01  2.000E+01  2.000E+04 -1.346E-01
   1   18   30     3     9    1.9120E+05 -3.0728E+03   1.9427E+05  0.000E+00  0.000E+00  0.000E+00  3.06224E+01  1.779E-01  2.000E+01  2.000E+04 -1.536E-01



1
              HEAD IN LAYER   1 AT END OF TIME STEP   1 IN STRESS PERIOD    4
  ---------------------------------------------------------------------------

          1      2      3      4      5      6      7      8      9     10
         11     12     13     14     15     16     17     18     19     20
         21     22     23     24     25     26     27     28     29     30
 .........................................................................
   1  ****** ****** ****** ****** ****** ****** ****** ****** ****** ******
      ****** ****** ****** ****** ****** ****** ****** ****** ****** ******
      ****** ****** ****** ****** ****** ****** ****** ****** ****** ******
   2  ****** ****** ****** ****** ****** ****** ****** ****** ****** ******
      ****** ****** ****** ****** ****** ****** ****** ****** ****** ******
      ****** ****** ****** ****** ****** ****** ****** ****** ****** ******
   3  ****** ****** ****** ****** ****** ****** ****** ****** ****** ******
      ****** ****** ****** ****** ****** ****** ****** ****** ****** ******
      ****** ****** ****** ****** ****** ****** ****** ****** ****** ******
   4  ****** ****** ****** ****** ****** ****** ****** ****** ****** ******
      ****** ****** ****** ****** ****** ****** ****** ****** ****** ******
      ****** ****** ****** ****** ****** ****** ****** ****** ****** ******
   5  ****** ****** ****** ****** ****** ****** ****** ****** ****** ******
      ****** ****** ****** ****** ****** ****** ****** ****** ****** ******
      ****** ****** ****** ****** ****** ****** ****** ****** ****** ******
   6  ****** ****** ****** ****** ****** ****** ****** ****** ****** ******
      ****** ****** ****** ****** ****** ****** ****** ****** ****** ******
      ****** ****** ****** ****** ****** ****** ****** ****** ****** ******
   7  ****** ****** ****** ****** ****** ****** ****** ****** ****** ******
      ****** ****** ****** ****** ****** ****** ****** ****** ****** ******
      ****** ****** ****** ****** ****** ****** ****** ****** ****** ******
   8  ****** ****** ****** ****** ****** ****** ****** ****** ****** ******
      ****** ****** ****** ****** ****** ****** ****** ****** ****** ******
      ****** ****** ****** ****** ****** ****** ****** ****** ****** ******
   9  ****** ****** ****** ****** ****** ****** ****** ****** ****** ******
      ****** ****** ****** ****** ****** ****** ****** ****** ****** ******
      ****** ****** ****** ****** ****** ****** ****** ****** ****** ******
  10  ****** ****** ****** ****** ****** ****** ****** ****** ****** ******
      ****** ****** ****** ****** ****** ****** ****** ****** ****** ******
      ****** ****** ****** ****** ****** ****** ****** ****** ****** ******
  11  ****** ****** ****** ****** ****** ****** ****** ****** ****** ******
      ****** ****** ****** ****** ****** ****** ****** ****** ****** ******
      ****** ****** ****** ****** ****** ****** ****** ****** ****** ******
  12  ****** ****** ****** ****** ****** ****** ****** ****** ****** ******
      ****** ****** ****** ****** ****** ****** ****** ****** ****** ******
      ****** ****** ****** ****** ****** ****** ****** ****** ****** ******
  13  ****** ****** ****** ****** ****** ****** ****** ****** ****** ******
      ****** ****** ****** ****** ****** ****** ****** ****** ****** ******
      ****** ****** ****** ****** ****** ****** ****** ****** ****** ******
  14  ****** ****** ****** ****** ****** ****** ****** ****** ****** ******
      ****** ****** ****** ****** ****** ****** ****** ****** ****** ******
      ****** ****** ****** ****** ****** ****** ****** ****** ****** ******
  15  ****** ****** ****** ****** ****** ****** ****** ****** ****** ******
      ****** ****** ****** ****** ****** ****** ****** ****** ****** ******
      ****** ****** ****** ****** ****** ****** ****** ****** ****** ******
  16  ****** ****** ****** ****** ****** ****** ****** ****** ****** ******
      ****** ****** ****** ****** ****** ****** ****** ****** ****** ******
      ****** ****** ****** ****** ****** ****** ****** ****** ****** ******
  17  ****** ****** ****** ****** ****** ****** ****** ****** ****** ******
      ****** ****** ****** ****** ****** ****** ****** ****** ****** ******
      ****** ****** ****** ****** ****** ****** ****** ****** ****** ******
  18  ****** ****** ****** ****** ****** ****** ****** ****** ****** ******
      ****** ****** ****** ****** ****** ****** ****** ****** ****** ******
      ****** ****** ****** ****** ****** ****** ****** ****** ****** ******
  19  ****** ****** ****** ****** ****** ****** ****** ****** ****** ******
      ****** ****** ****** ****** ****** ****** ****** ****** ****** ******
      ****** ****** ****** ****** ****** ****** ****** ****** ****** ******
  20  ****** ****** ****** ****** ****** ****** ****** ****** ****** ******
      ****** ****** ****** ****** ****** ****** ****** ****** ****** ******
      ****** ****** ****** ****** ****** ****** ****** ****** ****** ******
  21  ****** ****** ****** ****** ****** ****** ****** ****** ****** ******
      ****** ****** ****** ****** ****** ****** ****** ****** ****** ******
      ****** ****** ****** ****** ****** ****** ****** ****** ****** ******
  22  ****** ****** ****** ****** ****** ****** ****** ****** ****** ******
      ****** ****** ****** ****** ****** ****** ****** ****** ****** ******
      ****** ****** ****** ****** ****** ****** ****** ****** ****** ******
  23  ****** ****** ****** ****** ****** ****** ****** ****** ****** ******
      ****** ****** ****** ****** ****** ****** ****** ****** ****** ******
      ****** ****** ****** ****** ****** ****** ****** ****** ****** ******
  24  ****** ****** ****** ****** ****** ****** ****** ****** ****** ******
      ****** ****** ****** ****** ****** ****** ****** ****** ****** ******
      ****** ****** ****** ****** ****** ****** ****** ****** ****** ******
  25  ****** ****** ****** ****** ****** ****** ****** ****** ****** ******
      ****** ****** ****** ****** ****** ****** ****** ****** ****** ******
      ****** ****** ****** ****** ****** ****** ****** ****** ****** ******

 HEAD WILL BE SAVED ON UNIT   51 AT END OF TIME STEP    1, STRESS PERIOD    4
1
  VOLUMETRIC BUDGET FOR ENTIRE MODEL AT END OF TIME STEP    1, STRESS PERIOD   4
  ------------------------------------------------------------------------------

     CUMULATIVE VOLUMES      L**3       RATES FOR THIS TIME STEP      L**3/T
     ------------------                 ------------------------

           IN:                                      IN:
           ---                                      ---
             STORAGE =    31066442.6025               STORAGE =       20611.3460
       CONSTANT HEAD =     8468103.0968         CONSTANT HEAD =       31428.5893
               WELLS =           0.0000                 WELLS =           0.0000
            RECHARGE =     8804400.0000              RECHARGE =       27600.0000
      STREAM LEAKAGE =     2773798.5808        STREAM LEAKAGE =        9611.2867

            TOTAL IN =    51112744.2801              TOTAL IN =       89251.2220

          OUT:                                     OUT:
          ----                                     ----
             STORAGE =        1179.8099               STORAGE =          12.9649
       CONSTANT HEAD =           0.0000         CONSTANT HEAD =           0.0000
               WELLS =    12904700.3222                 WELLS =       35355.3433
            RECHARGE =           0.0000              RECHARGE =           0.0000
      STREAM LEAKAGE =    38206866.1700        STREAM LEAKAGE =       53882.9146

           TOTAL OUT =    51112746.3020             TOTAL OUT =       89251.2229

            IN - OUT =          -2.0219              IN - OUT =      -9.3141E-04

 PERCENT DISCREPANCY =          -0.00     PERCENT DISCREPANCY =          -0.00






         TIME SUMMARY AT END OF TIME STEP    1 IN STRESS PERIOD    4
                    SECONDS     MINUTES      HOURS       DAYS        YEARS
                    -----------------------------------------------------------
   TIME STEP LENGTH 7.86240E+06 1.31040E+05  2184.0      91.000     0.24914    
 STRESS PERIOD TIME 7.86240E+06 1.31040E+05  2184.0      91.000     0.24914    
         TOTAL TIME 3.15360E+07 5.25600E+05  8760.0      365.00     0.99932    
1
1
                            STRESS PERIOD NO.    5, LENGTH =   92.00000    
                            -----------------------------------------------

                              NUMBER OF TIME STEPS =     1

                               MULTIPLIER FOR DELT =     1.500

                            INITIAL TIME STEP SIZE =   92.00000    

 WELL NO.  LAYER   ROW   COL   STRESS RATE         
 --------------------------------------------------
      1      1     16     21      -8812.    
      2      1     20     20      -6819.    
      3      1      4     15      -7093.    
      4      1     21     14     -0.1263E+05

      4 WELLS

                 RECHARGE =  5.000000E-04

 REUSING STREAM SEGMENT DATA FROM LAST STRESS PERIOD
 
 SOLVING FOR HEAD 


     7 CALLS TO PCG ROUTINE FOR TIME STEP   1 IN STRESS PERIOD    5
    26 TOTAL ITERATIONS

 OUTPUT CONTROL FOR STRESS PERIOD    5   TIME STEP    1
    SAVE BUDGET
    SAVE HEAD FOR ALL LAYERS
    PRINT HEAD FOR ALL LAYERS
 UBDSV2 SAVING "STREAMFLOW OUT  " ON UNIT  50 AT TIME STEP  1, STRESS PERIOD   5



 STREAM LISTING     PERIOD      5   STEP        1

 LAYER ROW COL. STREAM  RCH.  FLOW INTO     FLOW TO   FLOW OUT OF   OVRLND.     DIRECT     STREAM       STREAM     STREAM     STREAM   STREAMBED  STREAMBED
                SEG.NO.  NO.  STRM. RCH.    AQUIFER    STRM. RCH.    RUNOFF     PRECIP       ET          HEAD       DEPTH      WIDTH   CONDCTNC.   GRADIENT

   1   13    1     1     1    1.0000E+05 -1.9678E+03   1.0197E+05  0.000E+00  0.000E+00  0.000E+00  4.84069E+01  1.455E-01  2.000E+01  2.000E+04 -9.839E-02
   1   13    2     1     2    1.0197E+05 -2.9823E+03   1.0495E+05  0.000E+00  0.000E+00  0.000E+00  4.79317E+01  1.476E-01  2.000E+01  2.000E+04 -1.491E-01
   1   14    3     1     3    1.0495E+05 -4.7442E+02   1.0542E+05  0.000E+00  0.000E+00  0.000E+00  4.74559E+01  1.491E-01  2.000E+01  2.000E+04 -2.372E-02
   1   15    4     1     4    1.0542E+05 -4.2499E+02   1.0585E+05  0.000E+00  0.000E+00  0.000E+00  4.69790E+01  1.495E-01  2.000E+01  2.000E+04 -2.125E-02
   1   16    5     1     5    1.0585E+05 -1.2988E+03   1.0715E+05  0.000E+00  0.000E+00  0.000E+00  4.65025E+01  1.502E-01  2.000E+01  2.000E+04 -6.494E-02
   1   16    6     1     6    1.0715E+05 -7.9356E+02   1.0794E+05  0.000E+00  0.000E+00  0.000E+00  4.60261E+01  1.511E-01  2.000E+01  2.000E+04 -3.968E-02
   1   16    7     1     7    1.0794E+05 -7.1683E+02   1.0866E+05  0.000E+00  0.000E+00  0.000E+00  4.55495E+01  1.517E-01  2.000E+01  2.000E+04 -3.584E-02
   1   16    8     1     8    1.0866E+05 -6.1760E+02   1.0928E+05  0.000E+00  0.000E+00  0.000E+00  4.50728E+01  1.523E-01  2.000E+01  2.000E+04 -3.088E-02
   1   16    9     1     9    1.0928E+05 -4.7688E+02   1.0975E+05  0.000E+00  0.000E+00  0.000E+00  4.45959E+01  1.528E-01  2.000E+01  2.000E+04 -2.384E-02
   1   16   10     1    10    1.0975E+05 -2.8593E+02   1.1004E+05  0.000E+00  0.000E+00  0.000E+00  4.41190E+01  1.531E-01  2.000E+01  2.000E+04 -1.430E-02
   1   16   11     1    11    1.1004E+05 -3.2591E+01   1.1007E+05  0.000E+00  0.000E+00  0.000E+00  4.36418E+01  1.532E-01  2.000E+01  2.000E+04 -1.630E-03
   1   16   12     1    12    1.1007E+05  3.1664E+02   1.0976E+05  0.000E+00  0.000E+00  0.000E+00  4.31645E+01  1.531E-01  2.000E+01  2.000E+04  1.583E-02
   1   15   13     1    13    1.0976E+05 -1.6227E+02   1.0992E+05  0.000E+00  0.000E+00  0.000E+00  4.26871E+01  1.530E-01  2.000E+01  2.000E+04 -8.114E-03
   1   14   14     1    14    1.0992E+05 -7.1209E+02   1.1063E+05  0.000E+00  0.000E+00  0.000E+00  4.22102E+01  1.534E-01  2.000E+01  2.000E+04 -3.560E-02
   1   13   15     1    15    1.1063E+05 -1.2505E+03   1.1188E+05  0.000E+00  0.000E+00  0.000E+00  4.17338E+01  1.542E-01  2.000E+01  2.000E+04 -6.253E-02
   1   12   16     1    16    1.1188E+05 -2.2331E+03   1.1411E+05  0.000E+00  0.000E+00  0.000E+00  4.12579E+01  1.557E-01  2.000E+01  2.000E+04 -1.117E-01
   1   12   17     1    17    1.1411E+05 -1.1965E+03   1.1531E+05  0.000E+00  0.000E+00  0.000E+00  4.07821E+01  1.571E-01  2.000E+01  2.000E+04 -5.983E-02
   1   12   18     1    18    1.1531E+05 -1.0888E+03   1.1640E+05  0.000E+00  0.000E+00  0.000E+00  4.03057E+01  1.580E-01  2.000E+01  2.000E+04 -5.444E-02
   1   12   19     1    19    1.1640E+05 -1.6956E+03   1.1809E+05  0.000E+00  0.000E+00  0.000E+00  3.98296E+01  1.591E-01  2.000E+01  2.000E+04 -8.478E-02
   1   13   20     1    20    1.1809E+05 -2.8265E+02   1.1838E+05  0.000E+00  0.000E+00  0.000E+00  3.93531E+01  1.599E-01  2.000E+01  2.000E+04 -1.413E-02
   1   14   21     1    21    1.1838E+05  2.0101E+03   1.1637E+05  0.000E+00  0.000E+00  0.000E+00  3.88752E+01  1.592E-01  2.000E+01  2.000E+04  1.005E-01
   1   14   22     1    22    1.1637E+05  5.5466E+03   1.1082E+05  0.000E+00  0.000E+00  0.000E+00  3.83948E+01  1.561E-01  2.000E+01  2.000E+04  2.773E-01
   1    9   30     2     1    5.0000E+04 -6.1510E+02   5.0615E+04  0.000E+00  0.000E+00  0.000E+00  4.02413E+01  1.163E-01  2.000E+01  2.000E+04 -3.075E-02
   1    9   29     2     2    5.0615E+04 -9.1268E+02   5.1528E+04  0.000E+00  0.000E+00  0.000E+00  3.99923E+01  1.173E-01  2.000E+01  2.000E+04 -4.563E-02
   1    9   28     2     3    5.1528E+04 -1.1631E+03   5.2691E+04  0.000E+00  0.000E+00  0.000E+00  3.97438E+01  1.188E-01  2.000E+01  2.000E+04 -5.815E-02
   1    9   27     2     4    5.2691E+04 -2.3867E+03   5.5078E+04  0.000E+00  0.000E+00  0.000E+00  3.94962E+01  1.212E-01  2.000E+01  2.000E+04 -1.193E-01
   1   10   26     2     5    5.5078E+04 -1.5641E+03   5.6642E+04  0.000E+00  0.000E+00  0.000E+00  3.92488E+01  1.238E-01  2.000E+01  2.000E+04 -7.821E-02
   1   11   25     2     6    5.6642E+04 -1.3526E+03   5.7994E+04  0.000E+00  0.000E+00  0.000E+00  3.90008E+01  1.258E-01  2.000E+01  2.000E+04 -6.763E-02
   1   12   24     2     7    5.7994E+04 -1.4160E+03   5.9410E+04  0.000E+00  0.000E+00  0.000E+00  3.87526E+01  1.276E-01  2.000E+01  2.000E+04 -7.080E-02
   1   13   23     2     8    5.9410E+04 -2.1655E+02   5.9627E+04  0.000E+00  0.000E+00  0.000E+00  3.85036E+01  1.286E-01  2.000E+01  2.000E+04 -1.083E-02
   1   14   22     2     9    5.9627E+04  2.6914E+03   5.6935E+04  0.000E+00  0.000E+00  0.000E+00  3.82520E+01  1.270E-01  2.000E+01  2.000E+04  1.346E-01
   1   14   22     3     1    1.6776E+05 -7.9174E+03   1.7567E+05  0.000E+00  0.000E+00  0.000E+00  3.77216E+01  1.660E-01  2.000E+01  2.000E+04 -3.959E-01
   1   15   23     3     2    1.7567E+05  1.6417E+02   1.7551E+05  0.000E+00  0.000E+00  0.000E+00  3.68349E+01  1.683E-01  2.000E+01  2.000E+04  8.208E-03
   1   15   24     3     3    1.7551E+05 -1.1600E+02   1.7562E+05  0.000E+00  0.000E+00  0.000E+00  3.59460E+01  1.683E-01  2.000E+01  2.000E+04 -5.800E-03
   1   15   25     3     4    1.7562E+05 -1.7274E+02   1.7580E+05  0.000E+00  0.000E+00  0.000E+00  3.50572E+01  1.683E-01  2.000E+01  2.000E+04 -8.637E-03
   1   15   26     3     5    1.7580E+05 -2.6214E+02   1.7606E+05  0.000E+00  0.000E+00  0.000E+00  3.41685E+01  1.685E-01  2.000E+01  2.000E+04 -1.311E-02
   1   16   27     3     6    1.7606E+05 -2.6468E+02   1.7632E+05  0.000E+00  0.000E+00  0.000E+00  3.32797E+01  1.686E-01  2.000E+01  2.000E+04 -1.323E-02
   1   17   28     3     7    1.7632E+05 -1.2100E+03   1.7753E+05  0.000E+00  0.000E+00  0.000E+00  3.23913E+01  1.690E-01  2.000E+01  2.000E+04 -6.050E-02
   1   18   29     3     8    1.7753E+05 -2.2578E+03   1.7979E+05  0.000E+00  0.000E+00  0.000E+00  3.15034E+01  1.700E-01  2.000E+01  2.000E+04 -1.129E-01
   1   18   30     3     9    1.7979E+05 -2.7787E+03   1.8257E+05  0.000E+00  0.000E+00  0.000E+00  3.06159E+01  1.715E-01  2.000E+01  2.000E+04 -1.389E-01



1
              HEAD IN LAYER   1 AT END OF TIME STEP   1 IN STRESS PERIOD    5
  ---------------------------------------------------------------------------

          1      2      3      4      5      6      7      8      9     10
         11     12     13     14     15     16     17     18     19     20
         21     22     23     24     25     26     27     28     29     30
 .........................................................................
   1  ****** ****** ****** ****** ****** ****** ****** ****** ****** ******
      ****** ****** ****** ****** ****** ****** ****** ****** ****** ******
      ****** ****** ****** ****** ****** ****** ****** ****** ****** ******
   2  ****** ****** ****** ****** ****** ****** ****** ****** ****** ******
      ****** ****** ****** ****** ****** ****** ****** ****** ****** ******
      ****** ****** ****** ****** ****** ****** ****** ****** ****** ******
   3  ****** ****** ****** ****** ****** ****** ****** ****** ****** ******
      ****** ****** ****** ****** ****** ****** ****** ****** ****** ******
      ****** ****** ****** ****** ****** ****** ****** ****** ****** ******
   4  ****** ****** ****** ****** ****** ****** ****** ****** ****** ******
      ****** ****** ****** ****** ****** ****** ****** ****** ****** ******
      ****** ****** ****** ****** ****** ****** ****** ****** ****** ******
   5  ****** ****** ****** ****** ****** ****** ****** ****** ****** ******
      ****** ****** ****** ****** ****** ****** ****** ****** ****** ******
      ****** ****** ****** ****** ****** ****** ****** ****** ****** ******
   6  ****** ****** ****** ****** ****** ****** ****** ****** ****** ******
      ****** ****** ****** ****** ****** ****** ****** ****** ****** ******
      ****** ****** ****** ****** ****** ****** ****** ****** ****** ******
   7  ****** ****** ****** ****** ****** ****** ****** ****** ****** ******
      ****** ****** ****** ****** ****** ****** ****** ****** ****** ******
      ****** ****** ****** ****** ****** ****** ****** ****** ****** ******
   8  ****** ****** ****** ****** ****** ****** ****** ****** ****** ******
      ****** ****** ****** ****** ****** ****** ****** ****** ****** ******
      ****** ****** ****** ****** ****** ****** ****** ****** ****** ******
   9  ****** ****** ****** ****** ****** ****** ****** ****** ****** ******
      ****** ****** ****** ****** ****** ****** ****** ****** ****** ******
      ****** ****** ****** ****** ****** ****** ****** ****** ****** ******
  10  ****** ****** ****** ****** ****** ****** ****** ****** ****** ******
      ****** ****** ****** ****** ****** ****** ****** ****** ****** ******
      ****** ****** ****** ****** ****** ****** ****** ****** ****** ******
  11  ****** ****** ****** ****** ****** ****** ****** ****** ****** ******
      ****** ****** ****** ****** ****** ****** ****** ****** ****** ******
      ****** ****** ****** ****** ****** ****** ****** ****** ****** ******
  12  ****** ****** ****** ****** ****** ****** ****** ****** ****** ******
      ****** ****** ****** ****** ****** ****** ****** ****** ****** ******
      ****** ****** ****** ****** ****** ****** ****** ****** ****** ******
  13  ****** ****** ****** ****** ****** ****** ****** ****** ****** ******
      ****** ****** ****** ****** ****** ****** ****** ****** ****** ******
      ****** ****** ****** ****** ****** ****** ****** ****** ****** ******
  14  ****** ****** ****** ****** ****** ****** ****** ****** ****** ******
      ****** ****** ****** ****** ****** ****** ****** ****** ****** ******
      ****** ****** ****** ****** ****** ****** ****** ****** ****** ******
  15  ****** ****** ****** ****** ****** ****** ****** ****** ****** ******
      ****** ****** ****** ****** ****** ****** ****** ****** ****** ******
      ****** ****** ****** ****** ****** ****** ****** ****** ****** ******
  16  ****** ****** ****** ****** ****** ****** ****** ****** ****** ******
      ****** ****** ****** ****** ****** ****** ****** ****** ****** ******
      ****** ****** ****** ****** ****** ****** ****** ****** ****** ******
  17  ****** ****** ****** ****** ****** ****** ****** ****** ****** ******
      ****** ****** ****** ****** ****** ****** ****** ****** ****** ******
      ****** ****** ****** ****** ****** ****** ****** ****** ****** ******
  18  ****** ****** ****** ****** ****** ****** ****** ****** ****** ******
      ****** ****** ****** ****** ****** ****** ****** ****** ****** ******
      ****** ****** ****** ****** ****** ****** ****** ****** ****** ******
  19  ****** ****** ****** ****** ****** ****** ****** ****** ****** ******
      ****** ****** ****** ****** ****** ****** ****** ****** ****** ******
      ****** ****** ****** ****** ****** ****** ****** ****** ****** ******
  20  ****** ****** ****** ****** ****** ****** ****** ****** ****** ******
      ****** ****** ****** ****** ****** ****** ****** ****** ****** ******
      ****** ****** ****** ****** ****** ****** ****** ****** ****** ******
  21  ****** ****** ****** ****** ****** ****** ****** ****** ****** ******
      ****** ****** ****** ****** ****** ****** ****** ****** ****** ******
      ****** ****** ****** ****** ****** ****** ****** ****** ****** ******
  22  ****** ****** ****** ****** ****** ****** ****** ****** ****** ******
      ****** ****** ****** ****** ****** ****** ****** ****** ****** ******
      ****** ****** ****** ****** ****** ****** ****** ****** ****** ******
  23  ****** ****** ****** ****** ****** ****** ****** ****** ****** ******
      ****** ****** ****** ****** ****** ****** ****** ****** ****** ******
      ****** ****** ****** ****** ****** ****** ****** ****** ****** ******
  24  ****** ****** ****** ****** ****** ****** ****** ****** ****** ******
      ****** ****** ****** ****** ****** ****** ****** ****** ****** ******
      ****** ****** ****** ****** ****** ****** ****** ****** ****** ******
  25  ****** ****** ****** ****** ****** ****** ****** ****** ****** ******
      ****** ****** ****** ****** ****** ****** ****** ****** ****** ******
      ****** ****** ****** ****** ****** ****** ****** ****** ****** ******

 HEAD WILL BE SAVED ON UNIT   51 AT END OF TIME STEP    1, STRESS PERIOD    5
1
  VOLUMETRIC BUDGET FOR ENTIRE MODEL AT END OF TIME STEP    1, STRESS PERIOD   5
  ------------------------------------------------------------------------------

     CUMULATIVE VOLUMES      L**3       RATES FOR THIS TIME STEP      L**3/T
     ------------------                 ------------------------

           IN:                                      IN:
           ---                                      ---
             STORAGE =    32864840.3730               STORAGE =       19547.8019
       CONSTANT HEAD =    11649295.3678         CONSTANT HEAD =       34578.1769
               WELLS =           0.0000                 WELLS =           0.0000
            RECHARGE =    10074000.0000              RECHARGE =       13800.0000
      STREAM LEAKAGE =     3760861.2722        STREAM LEAKAGE =       10728.9423

            TOTAL IN =    58348997.0129              TOTAL IN =       78654.9210

          OUT:                                     OUT:
          ----                                     ----
             STORAGE =        1179.8099               STORAGE =           0.0000
       CONSTANT HEAD =           0.0000         CONSTANT HEAD =           0.0000
               WELLS =    16157391.9102                 WELLS =       35355.3433
            RECHARGE =           0.0000              RECHARGE =           0.0000
      STREAM LEAKAGE =    42190427.6236        STREAM LEAKAGE =       43299.5810

           TOTAL OUT =    58348999.3437             TOTAL OUT =       78654.9244

            IN - OUT =          -2.3308              IN - OUT =      -3.3579E-03

 PERCENT DISCREPANCY =          -0.00     PERCENT DISCREPANCY =          -0.00






         TIME SUMMARY AT END OF TIME STEP    1 IN STRESS PERIOD    5
                    SECONDS     MINUTES      HOURS       DAYS        YEARS
                    -----------------------------------------------------------
   TIME STEP LENGTH 7.94880E+06 1.32480E+05  2208.0      92.000     0.25188    
 STRESS PERIOD TIME 7.94880E+06 1.32480E+05  2208.0      92.000     0.25188    
         TOTAL TIME 3.94848E+07 6.58080E+05  10968.      457.00      1.2512    
1
1
                            STRESS PERIOD NO.    6, LENGTH =   91.00000    
                            -----------------------------------------------

                              NUMBER OF TIME STEPS =     1

                               MULTIPLIER FOR DELT =     1.500

                            INITIAL TIME STEP SIZE =   91.00000    

 WELL NO.  LAYER   ROW   COL   STRESS RATE         
 --------------------------------------------------
      1      1     16     21      -8812.    
      2      1     20     20      -6819.    
      3      1      4     15      -7093.    
      4      1     21     14     -0.1263E+05

      4 WELLS

                 RECHARGE =  2.000000E-03

 REUSING STREAM SEGMENT DATA FROM LAST STRESS PERIOD
 
 SOLVING FOR HEAD 


     7 CALLS TO PCG ROUTINE FOR TIME STEP   1 IN STRESS PERIOD    6
    26 TOTAL ITERATIONS

 OUTPUT CONTROL FOR STRESS PERIOD    6   TIME STEP    1
    SAVE BUDGET
    SAVE HEAD FOR ALL LAYERS
    PRINT HEAD FOR ALL LAYERS
 UBDSV2 SAVING "STREAMFLOW OUT  " ON UNIT  50 AT TIME STEP  1, STRESS PERIOD   6



 STREAM LISTING     PERIOD      6   STEP        1

 LAYER ROW COL. STREAM  RCH.  FLOW INTO     FLOW TO   FLOW OUT OF   OVRLND.     DIRECT     STREAM       STREAM     STREAM     STREAM   STREAMBED  STREAMBED
                SEG.NO.  NO.  STRM. RCH.    AQUIFER    STRM. RCH.    RUNOFF     PRECIP       ET          HEAD       DEPTH      WIDTH   CONDCTNC.   GRADIENT

   1   13    1     1     1    1.0000E+05 -2.2711E+03   1.0227E+05  0.000E+00  0.000E+00  0.000E+00  4.84070E+01  1.456E-01  2.000E+01  2.000E+04 -1.136E-01
   1   13    2     1     2    1.0227E+05 -3.3148E+03   1.0559E+05  0.000E+00  0.000E+00  0.000E+00  4.79321E+01  1.480E-01  2.000E+01  2.000E+04 -1.657E-01
   1   14    3     1     3    1.0559E+05 -6.2693E+02   1.0621E+05  0.000E+00  0.000E+00  0.000E+00  4.74565E+01  1.497E-01  2.000E+01  2.000E+04 -3.135E-02
   1   15    4     1     4    1.0621E+05 -5.8843E+02   1.0680E+05  0.000E+00  0.000E+00  0.000E+00  4.69798E+01  1.502E-01  2.000E+01  2.000E+04 -2.942E-02
   1   16    5     1     5    1.0680E+05 -1.7767E+03   1.0858E+05  0.000E+00  0.000E+00  0.000E+00  4.65035E+01  1.512E-01  2.000E+01  2.000E+04 -8.884E-02
   1   16    6     1     6    1.0858E+05 -1.0742E+03   1.0965E+05  0.000E+00  0.000E+00  0.000E+00  4.60274E+01  1.524E-01  2.000E+01  2.000E+04 -5.371E-02
   1   16    7     1     7    1.0965E+05 -9.8211E+02   1.1063E+05  0.000E+00  0.000E+00  0.000E+00  4.55510E+01  1.533E-01  2.000E+01  2.000E+04 -4.911E-02
   1   16    8     1     8    1.1063E+05 -8.7760E+02   1.1151E+05  0.000E+00  0.000E+00  0.000E+00  4.50745E+01  1.541E-01  2.000E+01  2.000E+04 -4.388E-02
   1   16    9     1     9    1.1151E+05 -7.3536E+02   1.1225E+05  0.000E+00  0.000E+00  0.000E+00  4.45979E+01  1.547E-01  2.000E+01  2.000E+04 -3.677E-02
   1   16   10     1    10    1.1225E+05 -5.4457E+02   1.1279E+05  0.000E+00  0.000E+00  0.000E+00  4.41212E+01  1.553E-01  2.000E+01  2.000E+04 -2.723E-02
   1   16   11     1    11    1.1279E+05 -2.9212E+02   1.1308E+05  0.000E+00  0.000E+00  0.000E+00  4.36442E+01  1.556E-01  2.000E+01  2.000E+04 -1.461E-02
   1   16   12     1    12    1.1308E+05 -9.6775E+01   1.1318E+05  0.000E+00  0.000E+00  0.000E+00  4.31671E+01  1.558E-01  2.000E+01  2.000E+04 -4.839E-03
   1   15   13     1    13    1.1318E+05 -5.9183E+02   1.1377E+05  0.000E+00  0.000E+00  0.000E+00  4.26901E+01  1.561E-01  2.000E+01  2.000E+04 -2.959E-02
   1   14   14     1    14    1.1377E+05 -1.1394E+03   1.1491E+05  0.000E+00  0.000E+00  0.000E+00  4.22136E+01  1.568E-01  2.000E+01  2.000E+04 -5.697E-02
   1   13   15     1    15    1.1491E+05 -1.6617E+03   1.1657E+05  0.000E+00  0.000E+00  0.000E+00  4.17375E+01  1.579E-01  2.000E+01  2.000E+04 -8.308E-02
   1   12   16     1    16    1.1657E+05 -2.6034E+03   1.1918E+05  0.000E+00  0.000E+00  0.000E+00  4.12619E+01  1.597E-01  2.000E+01  2.000E+04 -1.302E-01
   1   12   17     1    17    1.1918E+05 -1.4982E+03   1.2068E+05  0.000E+00  0.000E+00  0.000E+00  4.07863E+01  1.613E-01  2.000E+01  2.000E+04 -7.491E-02
   1   12   18     1    18    1.2068E+05 -1.3948E+03   1.2207E+05  0.000E+00  0.000E+00  0.000E+00  4.03102E+01  1.625E-01  2.000E+01  2.000E+04 -6.974E-02
   1   12   19     1    19    1.2207E+05 -2.0797E+03   1.2415E+05  0.000E+00  0.000E+00  0.000E+00  3.98343E+01  1.639E-01  2.000E+01  2.000E+04 -1.040E-01
   1   13   20     1    20    1.2415E+05 -6.8619E+02   1.2484E+05  0.000E+00  0.000E+00  0.000E+00  3.93582E+01  1.650E-01  2.000E+01  2.000E+04 -3.431E-02
   1   14   21     1    21    1.2484E+05  1.6311E+03   1.2320E+05  0.000E+00  0.000E+00  0.000E+00  3.88805E+01  1.646E-01  2.000E+01  2.000E+04  8.155E-02
   1   14   22     1    22    1.2320E+05  5.4470E+03   1.1776E+05  0.000E+00  0.000E+00  0.000E+00  3.84004E+01  1.618E-01  2.000E+01  2.000E+04  2.724E-01
   1    9   30     2     1    5.0000E+04 -9.7881E+02   5.0979E+04  0.000E+00  0.000E+00  0.000E+00  4.02415E+01  1.165E-01  2.000E+01  2.000E+04 -4.894E-02
   1    9   29     2     2    5.0979E+04 -1.2720E+03   5.2251E+04  0.000E+00  0.000E+00  0.000E+00  3.99931E+01  1.181E-01  2.000E+01  2.000E+04 -6.360E-02
   1    9   28     2     3    5.2251E+04 -1.5154E+03   5.3766E+04  0.000E+00  0.000E+00  0.000E+00  3.97450E+01  1.200E-01  2.000E+01  2.000E+04 -7.577E-02
   1    9   27     2     4    5.3766E+04 -2.8314E+03   5.6598E+04  0.000E+00  0.000E+00  0.000E+00  3.94979E+01  1.229E-01  2.000E+01  2.000E+04 -1.416E-01
   1   10   26     2     5    5.6598E+04 -2.0328E+03   5.8630E+04  0.000E+00  0.000E+00  0.000E+00  3.92512E+01  1.262E-01  2.000E+01  2.000E+04 -1.016E-01
   1   11   25     2     6    5.8630E+04 -1.8064E+03   6.0437E+04  0.000E+00  0.000E+00  0.000E+00  3.90037E+01  1.287E-01  2.000E+01  2.000E+04 -9.032E-02
   1   12   24     2     7    6.0437E+04 -1.8248E+03   6.2262E+04  0.000E+00  0.000E+00  0.000E+00  3.87560E+01  1.310E-01  2.000E+01  2.000E+04 -9.124E-02
   1   13   23     2     8    6.2262E+04 -3.5416E+02   6.2616E+04  0.000E+00  0.000E+00  0.000E+00  3.85074E+01  1.324E-01  2.000E+01  2.000E+04 -1.771E-02
   1   14   22     2     9    6.2616E+04  2.5587E+03   6.0057E+04  0.000E+00  0.000E+00  0.000E+00  3.82560E+01  1.310E-01  2.000E+01  2.000E+04  1.279E-01
   1   14   22     3     1    1.7781E+05 -8.0133E+03   1.8583E+05  0.000E+00  0.000E+00  0.000E+00  3.77274E+01  1.718E-01  2.000E+01  2.000E+04 -4.007E-01
   1   15   23     3     2    1.8583E+05  3.4978E+01   1.8579E+05  0.000E+00  0.000E+00  0.000E+00  3.68407E+01  1.741E-01  2.000E+01  2.000E+04  1.749E-03
   1   15   24     3     3    1.8579E+05 -2.3366E+02   1.8603E+05  0.000E+00  0.000E+00  0.000E+00  3.59519E+01  1.741E-01  2.000E+01  2.000E+04 -1.168E-02
   1   15   25     3     4    1.8603E+05 -2.9554E+02   1.8632E+05  0.000E+00  0.000E+00  0.000E+00  3.50632E+01  1.743E-01  2.000E+01  2.000E+04 -1.478E-02
   1   15   26     3     5    1.8632E+05 -4.1125E+02   1.8673E+05  0.000E+00  0.000E+00  0.000E+00  3.41745E+01  1.745E-01  2.000E+01  2.000E+04 -2.056E-02
   1   16   27     3     6    1.8673E+05 -4.2922E+02   1.8716E+05  0.000E+00  0.000E+00  0.000E+00  3.32858E+01  1.747E-01  2.000E+01  2.000E+04 -2.146E-02
   1   17   28     3     7    1.8716E+05 -1.6582E+03   1.8882E+05  0.000E+00  0.000E+00  0.000E+00  3.23975E+01  1.753E-01  2.000E+01  2.000E+04 -8.291E-02
   1   18   29     3     8    1.8882E+05 -2.6661E+03   1.9149E+05  0.000E+00  0.000E+00  0.000E+00  3.15098E+01  1.765E-01  2.000E+01  2.000E+04 -1.333E-01
   1   18   30     3     9    1.9149E+05 -3.1162E+03   1.9460E+05  0.000E+00  0.000E+00  0.000E+00  3.06226E+01  1.781E-01  2.000E+01  2.000E+04 -1.558E-01



1
              HEAD IN LAYER   1 AT END OF TIME STEP   1 IN STRESS PERIOD    6
  ---------------------------------------------------------------------------

          1      2      3      4      5      6      7      8      9     10
         11     12     13     14     15     16     17     18     19     20
         21     22     23     24     25     26     27     28     29     30
 .........................................................................
   1  ****** ****** ****** ****** ****** ****** ****** ****** ****** ******
      ****** ****** ****** ****** ****** ****** ****** ****** ****** ******
      ****** ****** ****** ****** ****** ****** ****** ****** ****** ******
   2  ****** ****** ****** ****** ****** ****** ****** ****** ****** ******
      ****** ****** ****** ****** ****** ****** ****** ****** ****** ******
      ****** ****** ****** ****** ****** ****** ****** ****** ****** ******
   3  ****** ****** ****** ****** ****** ****** ****** ****** ****** ******
      ****** ****** ****** ****** ****** ****** ****** ****** ****** ******
      ****** ****** ****** ****** ****** ****** ****** ****** ****** ******
   4  ****** ****** ****** ****** ****** ****** ****** ****** ****** ******
      ****** ****** ****** ****** ****** ****** ****** ****** ****** ******
      ****** ****** ****** ****** ****** ****** ****** ****** ****** ******
   5  ****** ****** ****** ****** ****** ****** ****** ****** ****** ******
      ****** ****** ****** ****** ****** ****** ****** ****** ****** ******
      ****** ****** ****** ****** ****** ****** ****** ****** ****** ******
   6  ****** ****** ****** ****** ****** ****** ****** ****** ****** ******
      ****** ****** ****** ****** ****** ****** ****** ****** ****** ******
      ****** ****** ****** ****** ****** ****** ****** ****** ****** ******
   7  ****** ****** ****** ****** ****** ****** ****** ****** ****** ******
      ****** ****** ****** ****** ****** ****** ****** ****** ****** ******
      ****** ****** ****** ****** ****** ****** ****** ****** ****** ******
   8  ****** ****** ****** ****** ****** ****** ****** ****** ****** ******
      ****** ****** ****** ****** ****** ****** ****** ****** ****** ******
      ****** ****** ****** ****** ****** ****** ****** ****** ****** ******
   9  ****** ****** ****** ****** ****** ****** ****** ****** ****** ******
      ****** ****** ****** ****** ****** ****** ****** ****** ****** ******
      ****** ****** ****** ****** ****** ****** ****** ****** ****** ******
  10  ****** ****** ****** ****** ****** ****** ****** ****** ****** ******
      ****** ****** ****** ****** ****** ****** ****** ****** ****** ******
      ****** ****** ****** ****** ****** ****** ****** ****** ****** ******
  11  ****** ****** ****** ****** ****** ****** ****** ****** ****** ******
      ****** ****** ****** ****** ****** ****** ****** ****** ****** ******
      ****** ****** ****** ****** ****** ****** ****** ****** ****** ******
  12  ****** ****** ****** ****** ****** ****** ****** ****** ****** ******
      ****** ****** ****** ****** ****** ****** ****** ****** ****** ******
      ****** ****** ****** ****** ****** ****** ****** ****** ****** ******
  13  ****** ****** ****** ****** ****** ****** ****** ****** ****** ******
      ****** ****** ****** ****** ****** ****** ****** ****** ****** ******
      ****** ****** ****** ****** ****** ****** ****** ****** ****** ******
  14  ****** ****** ****** ****** ****** ****** ****** ****** ****** ******
      ****** ****** ****** ****** ****** ****** ****** ****** ****** ******
      ****** ****** ****** ****** ****** ****** ****** ****** ****** ******
  15  ****** ****** ****** ****** ****** ****** ****** ****** ****** ******
      ****** ****** ****** ****** ****** ****** ****** ****** ****** ******
      ****** ****** ****** ****** ****** ****** ****** ****** ****** ******
  16  ****** ****** ****** ****** ****** ****** ****** ****** ****** ******
      ****** ****** ****** ****** ****** ****** ****** ****** ****** ******
      ****** ****** ****** ****** ****** ****** ****** ****** ****** ******
  17  ****** ****** ****** ****** ****** ****** ****** ****** ****** ******
      ****** ****** ****** ****** ****** ****** ****** ****** ****** ******
      ****** ****** ****** ****** ****** ****** ****** ****** ****** ******
  18  ****** ****** ****** ****** ****** ****** ****** ****** ****** ******
      ****** ****** ****** ****** ****** ****** ****** ****** ****** ******
      ****** ****** ****** ****** ****** ****** ****** ****** ****** ******
  19  ****** ****** ****** ****** ****** ****** ****** ****** ****** ******
      ****** ****** ****** ****** ****** ****** ****** ****** ****** ******
      ****** ****** ****** ****** ****** ****** ****** ****** ****** ******
  20  ****** ****** ****** ****** ****** ****** ****** ****** ****** ******
      ****** ****** ****** ****** ****** ****** ****** ****** ****** ******
      ****** ****** ****** ****** ****** ****** ****** ****** ****** ******
  21  ****** ****** ****** ****** ****** ****** ****** ****** ****** ******
      ****** ****** ****** ****** ****** ****** ****** ****** ****** ******
      ****** ****** ****** ****** ****** ****** ****** ****** ****** ******
  22  ****** ****** ****** ****** ****** ****** ****** ****** ****** ******
      ****** ****** ****** ****** ****** ****** ****** ****** ****** ******
      ****** ****** ****** ****** ****** ****** ****** ****** ****** ******
  23  ****** ****** ****** ****** ****** ****** ****** ****** ****** ******
      ****** ****** ****** ****** ****** ****** ****** ****** ****** ******
      ****** ****** ****** ****** ****** ****** ****** ****** ****** ******
  24  ****** ****** ****** ****** ****** ****** ****** ****** ****** ******
      ****** ****** ****** ****** ****** ****** ****** ****** ****** ******
      ****** ****** ****** ****** ****** ****** ****** ****** ****** ******
  25  ****** ****** ****** ****** ****** ****** ****** ****** ****** ******
      ****** ****** ****** ****** ****** ****** ****** ****** ****** ******
      ****** ****** ****** ****** ****** ****** ****** ****** ****** ******

 HEAD WILL BE SAVED ON UNIT   51 AT END OF TIME STEP    1, STRESS PERIOD    6
1
  VOLUMETRIC BUDGET FOR ENTIRE MODEL AT END OF TIME STEP    1, STRESS PERIOD   6
  ------------------------------------------------------------------------------

     CUMULATIVE VOLUMES      L**3       RATES FOR THIS TIME STEP      L**3/T
     ------------------                 ------------------------

           IN:                                      IN:
           ---                                      ---
             STORAGE =    32864840.3730               STORAGE =           0.0000
       CONSTANT HEAD =    14634300.7082         CONSTANT HEAD =       32802.2565
               WELLS =           0.0000                 WELLS =           0.0000
            RECHARGE =    15097200.0000              RECHARGE =       55200.0000
      STREAM LEAKAGE =     4640987.2848        STREAM LEAKAGE =        9671.7144

            TOTAL IN =    67237328.3660              TOTAL IN =       97673.9709

          OUT:                                     OUT:
          ----                                     ----
             STORAGE =      733137.4049               STORAGE =        8043.4901
       CONSTANT HEAD =           0.0000         CONSTANT HEAD =           0.0000
               WELLS =    19374728.1549                 WELLS =       35355.3433
            RECHARGE =           0.0000              RECHARGE =           0.0000
      STREAM LEAKAGE =    47129464.8780        STREAM LEAKAGE =       54275.1347

           TOTAL OUT =    67237330.4378             TOTAL OUT =       97673.9681

            IN - OUT =          -2.0718              IN - OUT =       2.8458E-03

 PERCENT DISCREPANCY =          -0.00     PERCENT DISCREPANCY =           0.00






         TIME SUMMARY AT END OF TIME STEP    1 IN STRESS PERIOD    6
                    SECONDS     MINUTES      HOURS       DAYS        YEARS
                    -----------------------------------------------------------
   TIME STEP LENGTH 7.86240E+06 1.31040E+05  2184.0      91.000     0.24914    
 STRESS PERIOD TIME 7.86240E+06 1.31040E+05  2184.0      91.000     0.24914    
         TOTAL TIME 4.73472E+07 7.89120E+05  13152.      548.00      1.5003    
1
1
                            STRESS PERIOD NO.    7, LENGTH =   91.00000    
                            -----------------------------------------------

                              NUMBER OF TIME STEPS =     1

                               MULTIPLIER FOR DELT =     1.500

                            INITIAL TIME STEP SIZE =   91.00000    

 WELL NO.  LAYER   ROW   COL   STRESS RATE         
 --------------------------------------------------
      1      1     16     21      -8812.    
      2      1     20     20      -6819.    
      3      1      4     15      -7093.    
      4      1     21     14     -0.1263E+05

      4 WELLS

                 RECHARGE =   0.00000    

 REUSING STREAM SEGMENT DATA FROM LAST STRESS PERIOD
 
 SOLVING FOR HEAD 


     7 CALLS TO PCG ROUTINE FOR TIME STEP   1 IN STRESS PERIOD    7
    26 TOTAL ITERATIONS

 OUTPUT CONTROL FOR STRESS PERIOD    7   TIME STEP    1
    SAVE BUDGET
    SAVE HEAD FOR ALL LAYERS
    PRINT HEAD FOR ALL LAYERS
 UBDSV2 SAVING "STREAMFLOW OUT  " ON UNIT  50 AT TIME STEP  1, STRESS PERIOD   7



 STREAM LISTING     PERIOD      7   STEP        1

 LAYER ROW COL. STREAM  RCH.  FLOW INTO     FLOW TO   FLOW OUT OF   OVRLND.     DIRECT     STREAM       STREAM     STREAM     STREAM   STREAMBED  STREAMBED
                SEG.NO.  NO.  STRM. RCH.    AQUIFER    STRM. RCH.    RUNOFF     PRECIP       ET          HEAD       DEPTH      WIDTH   CONDCTNC.   GRADIENT

   1   13    1     1     1    1.0000E+05 -1.5977E+03   1.0160E+05  0.000E+00  0.000E+00  0.000E+00  4.84067E+01  1.453E-01  2.000E+01  2.000E+04 -7.989E-02
   1   13    2     1     2    1.0160E+05 -2.5616E+03   1.0416E+05  0.000E+00  0.000E+00  0.000E+00  4.79312E+01  1.471E-01  2.000E+01  2.000E+04 -1.281E-01
   1   14    3     1     3    1.0416E+05 -3.7345E+02   1.0453E+05  0.000E+00  0.000E+00  0.000E+00  4.74552E+01  1.484E-01  2.000E+01  2.000E+04 -1.867E-02
   1   15    4     1     4    1.0453E+05 -3.2393E+02   1.0486E+05  0.000E+00  0.000E+00  0.000E+00  4.69782E+01  1.487E-01  2.000E+01  2.000E+04 -1.620E-02
   1   16    5     1     5    1.0486E+05 -1.0130E+03   1.0587E+05  0.000E+00  0.000E+00  0.000E+00  4.65015E+01  1.493E-01  2.000E+01  2.000E+04 -5.065E-02
   1   16    6     1     6    1.0587E+05 -6.1385E+02   1.0648E+05  0.000E+00  0.000E+00  0.000E+00  4.60249E+01  1.499E-01  2.000E+01  2.000E+04 -3.069E-02
   1   16    7     1     7    1.0648E+05 -5.4014E+02   1.0702E+05  0.000E+00  0.000E+00  0.000E+00  4.55482E+01  1.504E-01  2.000E+01  2.000E+04 -2.701E-02
   1   16    8     1     8    1.0702E+05 -4.4125E+02   1.0746E+05  0.000E+00  0.000E+00  0.000E+00  4.50713E+01  1.509E-01  2.000E+01  2.000E+04 -2.206E-02
   1   16    9     1     9    1.0746E+05 -3.0165E+02   1.0777E+05  0.000E+00  0.000E+00  0.000E+00  4.45943E+01  1.512E-01  2.000E+01  2.000E+04 -1.508E-02
   1   16   10     1    10    1.0777E+05 -1.1261E+02   1.0788E+05  0.000E+00  0.000E+00  0.000E+00  4.41172E+01  1.513E-01  2.000E+01  2.000E+04 -5.630E-03
   1   16   11     1    11    1.0788E+05  1.4225E+02   1.0774E+05  0.000E+00  0.000E+00  0.000E+00  4.36400E+01  1.513E-01  2.000E+01  2.000E+04  7.113E-03
   1   16   12     1    12    1.0774E+05  6.3570E+02   1.0710E+05  0.000E+00  0.000E+00  0.000E+00  4.31624E+01  1.510E-01  2.000E+01  2.000E+04  3.179E-02
   1   15   13     1    13    1.0710E+05  1.8951E+02   1.0691E+05  0.000E+00  0.000E+00  0.000E+00  4.26847E+01  1.507E-01  2.000E+01  2.000E+04  9.476E-03
   1   14   14     1    14    1.0691E+05 -3.3159E+02   1.0724E+05  0.000E+00  0.000E+00  0.000E+00  4.22075E+01  1.507E-01  2.000E+01  2.000E+04 -1.658E-02
   1   13   15     1    15    1.0724E+05 -8.5360E+02   1.0810E+05  0.000E+00  0.000E+00  0.000E+00  4.17308E+01  1.512E-01  2.000E+01  2.000E+04 -4.268E-02
   1   12   16     1    16    1.0810E+05 -1.8045E+03   1.0990E+05  0.000E+00  0.000E+00  0.000E+00  4.12546E+01  1.523E-01  2.000E+01  2.000E+04 -9.022E-02
   1   12   17     1    17    1.0990E+05 -9.1623E+02   1.1082E+05  0.000E+00  0.000E+00  0.000E+00  4.07785E+01  1.535E-01  2.000E+01  2.000E+04 -4.581E-02
   1   12   18     1    18    1.1082E+05 -8.2700E+02   1.1164E+05  0.000E+00  0.000E+00  0.000E+00  4.03019E+01  1.542E-01  2.000E+01  2.000E+04 -4.135E-02
   1   12   19     1    19    1.1164E+05 -1.3880E+03   1.1303E+05  0.000E+00  0.000E+00  0.000E+00  3.98256E+01  1.551E-01  2.000E+01  2.000E+04 -6.940E-02
   1   13   20     1    20    1.1303E+05 -7.6336E+00   1.1304E+05  0.000E+00  0.000E+00  0.000E+00  3.93489E+01  1.557E-01  2.000E+01  2.000E+04 -3.817E-04
   1   14   21     1    21    1.1304E+05  2.3084E+03   1.1073E+05  0.000E+00  0.000E+00  0.000E+00  3.88706E+01  1.547E-01  2.000E+01  2.000E+04  1.154E-01
   1   14   22     1    22    1.1073E+05  5.6032E+03   1.0513E+05  0.000E+00  0.000E+00  0.000E+00  3.83901E+01  1.514E-01  2.000E+01  2.000E+04  2.802E-01
   1    9   30     2     1    5.0000E+04 -4.6516E+02   5.0465E+04  0.000E+00  0.000E+00  0.000E+00  4.02412E+01  1.162E-01  2.000E+01  2.000E+04 -2.326E-02
   1    9   29     2     2    5.0465E+04 -7.6004E+02   5.1225E+04  0.000E+00  0.000E+00  0.000E+00  3.99920E+01  1.170E-01  2.000E+01  2.000E+04 -3.800E-02
   1    9   28     2     3    5.1225E+04 -1.0021E+03   5.2227E+04  0.000E+00  0.000E+00  0.000E+00  3.97432E+01  1.182E-01  2.000E+01  2.000E+04 -5.010E-02
   1    9   27     2     4    5.2227E+04 -2.1335E+03   5.4361E+04  0.000E+00  0.000E+00  0.000E+00  3.94954E+01  1.204E-01  2.000E+01  2.000E+04 -1.067E-01
   1   10   26     2     5    5.4361E+04 -1.3330E+03   5.5694E+04  0.000E+00  0.000E+00  0.000E+00  3.92477E+01  1.227E-01  2.000E+01  2.000E+04 -6.665E-02
   1   11   25     2     6    5.5694E+04 -1.1352E+03   5.6829E+04  0.000E+00  0.000E+00  0.000E+00  3.89994E+01  1.244E-01  2.000E+01  2.000E+04 -5.676E-02
   1   12   24     2     7    5.6829E+04 -1.2126E+03   5.8041E+04  0.000E+00  0.000E+00  0.000E+00  3.87509E+01  1.259E-01  2.000E+01  2.000E+04 -6.063E-02
   1   13   23     2     8    5.8041E+04 -1.6210E+02   5.8204E+04  0.000E+00  0.000E+00  0.000E+00  3.85018E+01  1.268E-01  2.000E+01  2.000E+04 -8.105E-03
   1   14   22     2     9    5.8204E+04  2.8035E+03   5.5400E+04  0.000E+00  0.000E+00  0.000E+00  3.82501E+01  1.251E-01  2.000E+01  2.000E+04  1.402E-01
   1   14   22     3     1    1.6053E+05 -7.8514E+03   1.6838E+05  0.000E+00  0.000E+00  0.000E+00  3.77173E+01  1.618E-01  2.000E+01  2.000E+04 -3.926E-01
   1   15   23     3     2    1.6838E+05  2.4537E+02   1.6813E+05  0.000E+00  0.000E+00  0.000E+00  3.68307E+01  1.640E-01  2.000E+01  2.000E+04  1.227E-02
   1   15   24     3     3    1.6813E+05 -5.7884E+01   1.6819E+05  0.000E+00  0.000E+00  0.000E+00  3.59417E+01  1.640E-01  2.000E+01  2.000E+04 -2.894E-03
   1   15   25     3     4    1.6819E+05 -1.1700E+02   1.6831E+05  0.000E+00  0.000E+00  0.000E+00  3.50529E+01  1.640E-01  2.000E+01  2.000E+04 -5.850E-03
   1   15   26     3     5    1.6831E+05 -2.0889E+02   1.6852E+05  0.000E+00  0.000E+00  0.000E+00  3.41641E+01  1.641E-01  2.000E+01  2.000E+04 -1.044E-02
   1   16   27     3     6    1.6852E+05 -1.9475E+02   1.6871E+05  0.000E+00  0.000E+00  0.000E+00  3.32753E+01  1.642E-01  2.000E+01  2.000E+04 -9.737E-03
   1   17   28     3     7    1.6871E+05 -1.0092E+03   1.6972E+05  0.000E+00  0.000E+00  0.000E+00  3.23868E+01  1.646E-01  2.000E+01  2.000E+04 -5.046E-02
   1   18   29     3     8    1.6972E+05 -1.9638E+03   1.7169E+05  0.000E+00  0.000E+00  0.000E+00  3.14988E+01  1.654E-01  2.000E+01  2.000E+04 -9.819E-02
   1   18   30     3     9    1.7169E+05 -2.5779E+03   1.7426E+05  0.000E+00  0.000E+00  0.000E+00  3.06112E+01  1.668E-01  2.000E+01  2.000E+04 -1.289E-01



1
              HEAD IN LAYER   1 AT END OF TIME STEP   1 IN STRESS PERIOD    7
  ---------------------------------------------------------------------------

          1      2      3      4      5      6      7      8      9     10
         11     12     13     14     15     16     17     18     19     20
         21     22     23     24     25     26     27     28     29     30
 .........................................................................
   1  ****** ****** ****** ****** ****** ****** ****** ****** ****** ******
      ****** ****** ****** ****** ****** ****** ****** ****** ****** ******
      ****** ****** ****** ****** ****** ****** ****** ****** ****** ******
   2  ****** ****** ****** ****** ****** ****** ****** ****** ****** ******
      ****** ****** ****** ****** ****** ****** ****** ****** ****** ******
      ****** ****** ****** ****** ****** ****** ****** ****** ****** ******
   3  ****** ****** ****** ****** ****** ****** ****** ****** ****** ******
      ****** ****** ****** ****** ****** ****** ****** ****** ****** ******
      ****** ****** ****** ****** ****** ****** ****** ****** ****** ******
   4  ****** ****** ****** ****** ****** ****** ****** ****** ****** ******
      ****** ****** ****** ****** ****** ****** ****** ****** ****** ******
      ****** ****** ****** ****** ****** ****** ****** ****** ****** ******
   5  ****** ****** ****** ****** ****** ****** ****** ****** ****** ******
      ****** ****** ****** ****** ****** ****** ****** ****** ****** ******
      ****** ****** ****** ****** ****** ****** ****** ****** ****** ******
   6  ****** ****** ****** ****** ****** ****** ****** ****** ****** ******
      ****** ****** ****** ****** ****** ****** ****** ****** ****** ******
      ****** ****** ****** ****** ****** ****** ****** ****** ****** ******
   7  ****** ****** ****** ****** ****** ****** ****** ****** ****** ******
      ****** ****** ****** ****** ****** ****** ****** ****** ****** ******
      ****** ****** ****** ****** ****** ****** ****** ****** ****** ******
   8  ****** ****** ****** ****** ****** ****** ****** ****** ****** ******
      ****** ****** ****** ****** ****** ****** ****** ****** ****** ******
      ****** ****** ****** ****** ****** ****** ****** ****** ****** ******
   9  ****** ****** ****** ****** ****** ****** ****** ****** ****** ******
      ****** ****** ****** ****** ****** ****** ****** ****** ****** ******
      ****** ****** ****** ****** ****** ****** ****** ****** ****** ******
  10  ****** ****** ****** ****** ****** ****** ****** ****** ****** ******
      ****** ****** ****** ****** ****** ****** ****** ****** ****** ******
      ****** ****** ****** ****** ****** ****** ****** ****** ****** ******
  11  ****** ****** ****** ****** ****** ****** ****** ****** ****** ******
      ****** ****** ****** ****** ****** ****** ****** ****** ****** ******
      ****** ****** ****** ****** ****** ****** ****** ****** ****** ******
  12  ****** ****** ****** ****** ****** ****** ****** ****** ****** ******
      ****** ****** ****** ****** ****** ****** ****** ****** ****** ******
      ****** ****** ****** ****** ****** ****** ****** ****** ****** ******
  13  ****** ****** ****** ****** ****** ****** ****** ****** ****** ******
      ****** ****** ****** ****** ****** ****** ****** ****** ****** ******
      ****** ****** ****** ****** ****** ****** ****** ****** ****** ******
  14  ****** ****** ****** ****** ****** ****** ****** ****** ****** ******
      ****** ****** ****** ****** ****** ****** ****** ****** ****** ******
      ****** ****** ****** ****** ****** ****** ****** ****** ****** ******
  15  ****** ****** ****** ****** ****** ****** ****** ****** ****** ******
      ****** ****** ****** ****** ****** ****** ****** ****** ****** ******
      ****** ****** ****** ****** ****** ****** ****** ****** ****** ******
  16  ****** ****** ****** ****** ****** ****** ****** ****** ****** ******
      ****** ****** ****** ****** ****** ****** ****** ****** ****** ******
      ****** ****** ****** ****** ****** ****** ****** ****** ****** ******
  17  ****** ****** ****** ****** ****** ****** ****** ****** ****** ******
      ****** ****** ****** ****** ****** ****** ****** ****** ****** ******
      ****** ****** ****** ****** ****** ****** ****** ****** ****** ******
  18  ****** ****** ****** ****** ****** ****** ****** ****** ****** ******
      ****** ****** ****** ****** ****** ****** ****** ****** ****** ******
      ****** ****** ****** ****** ****** ****** ****** ****** ****** ******
  19  ****** ****** ****** ****** ****** ****** ****** ****** ****** ******
      ****** ****** ****** ****** ****** ****** ****** ****** ****** ******
      ****** ****** ****** ****** ****** ****** ****** ****** ****** ******
  20  ****** ****** ****** ****** ****** ****** ****** ****** ****** ******
      ****** ****** ****** ****** ****** ****** ****** ****** ****** ******
      ****** ****** ****** ****** ****** ****** ****** ****** ****** ******
  21  ****** ****** ****** ****** ****** ****** ****** ****** ****** ******
      ****** ****** ****** ****** ****** ****** ****** ****** ****** ******
      ****** ****** ****** ****** ****** ****** ****** ****** ****** ******
  22  ****** ****** ****** ****** ****** ****** ****** ****** ****** ******
      ****** ****** ****** ****** ****** ****** ****** ****** ****** ******
      ****** ****** ****** ****** ****** ****** ****** ****** ****** ******
  23  ****** ****** ****** ****** ****** ****** ****** ****** ****** ******
      ****** ****** ****** ****** ****** ****** ****** ****** ****** ******
      ****** ****** ****** ****** ****** ****** ****** ****** ****** ******
  24  ****** ****** ****** ****** ****** ****** ****** ****** ****** ******
      ****** ****** ****** ****** ****** ****** ****** ****** ****** ******
      ****** ****** ****** ****** ****** ****** ****** ****** ****** ******
  25  ****** ****** ****** ****** ****** ****** ****** ****** ****** ******
      ****** ****** ****** ****** ****** ****** ****** ****** ****** ******
      ****** ****** ****** ****** ****** ****** ****** ****** ****** ******

 HEAD WILL BE SAVED ON UNIT   51 AT END OF TIME STEP    1, STRESS PERIOD    7
1
  VOLUMETRIC BUDGET FOR ENTIRE MODEL AT END OF TIME STEP    1, STRESS PERIOD   7
  ------------------------------------------------------------------------------

     CUMULATIVE VOLUMES      L**3       RATES FOR THIS TIME STEP      L**3/T
     ------------------                 ------------------------

           IN:                                      IN:
           ---                                      ---
             STORAGE =    34940954.0197               STORAGE =       22814.4357
       CONSTANT HEAD =    17983559.0460         CONSTANT HEAD =       36805.0367
               WELLS =           0.0000                 WELLS =           0.0000
            RECHARGE =    15097200.0000              RECHARGE =           0.0000
      STREAM LEAKAGE =     5726430.9796        STREAM LEAKAGE =       11927.9527

            TOTAL IN =    73748144.0453              TOTAL IN =       71547.4250

          OUT:                                     OUT:
          ----                                     ----
             STORAGE =      733137.4049               STORAGE =           0.0000
       CONSTANT HEAD =           0.0000         CONSTANT HEAD =           0.0000
               WELLS =    22592064.3996                 WELLS =       35355.3433
            RECHARGE =           0.0000              RECHARGE =           0.0000
      STREAM LEAKAGE =    50422944.8284        STREAM LEAKAGE =       36192.0874

           TOTAL OUT =    73748146.6329             TOTAL OUT =       71547.4307

            IN - OUT =          -2.5876              IN - OUT =      -5.6682E-03

 PERCENT DISCREPANCY =          -0.00     PERCENT DISCREPANCY =          -0.00






         TIME SUMMARY AT END OF TIME STEP    1 IN STRESS PERIOD    7
                    SECONDS     MINUTES      HOURS       DAYS        YEARS
                    -----------------------------------------------------------
   TIME STEP LENGTH 7.86240E+06 1.31040E+05  2184.0      91.000     0.24914    
 STRESS PERIOD TIME 7.86240E+06 1.31040E+05  2184.0      91.000     0.24914    
         TOTAL TIME 5.52096E+07 9.20160E+05  15336.      639.00      1.7495    
1
1
                            STRESS PERIOD NO.    8, LENGTH =   91.00000    
                            -----------------------------------------------

                              NUMBER OF TIME STEPS =     1

                               MULTIPLIER FOR DELT =     1.500

                            INITIAL TIME STEP SIZE =   91.00000    

 WELL NO.  LAYER   ROW   COL   STRESS RATE         
 --------------------------------------------------
      1      1     16     21      -8812.    
      2      1     20     20      -6819.    
      3      1      4     15      -7093.    
      4      1     21     14     -0.1263E+05

      4 WELLS

                 RECHARGE =  1.000000E-03

 REUSING STREAM SEGMENT DATA FROM LAST STRESS PERIOD
 
 SOLVING FOR HEAD 


     6 CALLS TO PCG ROUTINE FOR TIME STEP   1 IN STRESS PERIOD    8
    22 TOTAL ITERATIONS

 OUTPUT CONTROL FOR STRESS PERIOD    8   TIME STEP    1
    SAVE BUDGET
    SAVE HEAD FOR ALL LAYERS
    PRINT HEAD FOR ALL LAYERS
 UBDSV2 SAVING "STREAMFLOW OUT  " ON UNIT  50 AT TIME STEP  1, STRESS PERIOD   8



 STREAM LISTING     PERIOD      8   STEP        1

 LAYER ROW COL. STREAM  RCH.  FLOW INTO     FLOW TO   FLOW OUT OF   OVRLND.     DIRECT     STREAM       STREAM     STREAM     STREAM   STREAMBED  STREAMBED
                SEG.NO.  NO.  STRM. RCH.    AQUIFER    STRM. RCH.    RUNOFF     PRECIP       ET          HEAD       DEPTH      WIDTH   CONDCTNC.   GRADIENT

   1   13    1     1     1    1.0000E+05 -1.6664E+03   1.0167E+05  0.000E+00  0.000E+00  0.000E+00  4.84067E+01  1.454E-01  2.000E+01  2.000E+04 -8.332E-02
   1   13    2     1     2    1.0167E+05 -2.6293E+03   1.0430E+05  0.000E+00  0.000E+00  0.000E+00  4.79313E+01  1.472E-01  2.000E+01  2.000E+04 -1.315E-01
   1   14    3     1     3    1.0430E+05 -4.3647E+02   1.0473E+05  0.000E+00  0.000E+00  0.000E+00  4.74554E+01  1.485E-01  2.000E+01  2.000E+04 -2.182E-02
   1   15    4     1     4    1.0473E+05 -3.9146E+02   1.0512E+05  0.000E+00  0.000E+00  0.000E+00  4.69784E+01  1.489E-01  2.000E+01  2.000E+04 -1.957E-02
   1   16    5     1     5    1.0512E+05 -1.1810E+03   1.0630E+05  0.000E+00  0.000E+00  0.000E+00  4.65018E+01  1.496E-01  2.000E+01  2.000E+04 -5.905E-02
   1   16    6     1     6    1.0630E+05 -7.1741E+02   1.0702E+05  0.000E+00  0.000E+00  0.000E+00  4.60254E+01  1.504E-01  2.000E+01  2.000E+04 -3.587E-02
   1   16    7     1     7    1.0702E+05 -6.3872E+02   1.0766E+05  0.000E+00  0.000E+00  0.000E+00  4.55487E+01  1.509E-01  2.000E+01  2.000E+04 -3.194E-02
   1   16    8     1     8    1.0766E+05 -5.3885E+02   1.0820E+05  0.000E+00  0.000E+00  0.000E+00  4.50719E+01  1.514E-01  2.000E+01  2.000E+04 -2.694E-02
   1   16    9     1     9    1.0820E+05 -4.0020E+02   1.0860E+05  0.000E+00  0.000E+00  0.000E+00  4.45950E+01  1.518E-01  2.000E+01  2.000E+04 -2.001E-02
   1   16   10     1    10    1.0860E+05 -2.1338E+02   1.0881E+05  0.000E+00  0.000E+00  0.000E+00  4.41180E+01  1.521E-01  2.000E+01  2.000E+04 -1.067E-02
   1   16   11     1    11    1.0881E+05  3.8958E+01   1.0877E+05  0.000E+00  0.000E+00  0.000E+00  4.36408E+01  1.522E-01  2.000E+01  2.000E+04  1.948E-03
   1   16   12     1    12    1.0877E+05  4.8336E+02   1.0829E+05  0.000E+00  0.000E+00  0.000E+00  4.31633E+01  1.519E-01  2.000E+01  2.000E+04  2.417E-02
   1   15   13     1    13    1.0829E+05  2.9129E+01   1.0826E+05  0.000E+00  0.000E+00  0.000E+00  4.26858E+01  1.517E-01  2.000E+01  2.000E+04  1.456E-03
   1   14   14     1    14    1.0826E+05 -4.8529E+02   1.0875E+05  0.000E+00  0.000E+00  0.000E+00  4.22087E+01  1.519E-01  2.000E+01  2.000E+04 -2.426E-02
   1   13   15     1    15    1.0875E+05 -9.9495E+02   1.0974E+05  0.000E+00  0.000E+00  0.000E+00  4.17321E+01  1.525E-01  2.000E+01  2.000E+04 -4.975E-02
   1   12   16     1    16    1.0974E+05 -1.9086E+03   1.1165E+05  0.000E+00  0.000E+00  0.000E+00  4.12560E+01  1.537E-01  2.000E+01  2.000E+04 -9.543E-02
   1   12   17     1    17    1.1165E+05 -1.0226E+03   1.1267E+05  0.000E+00  0.000E+00  0.000E+00  4.07800E+01  1.550E-01  2.000E+01  2.000E+04 -5.113E-02
   1   12   18     1    18    1.1267E+05 -9.4044E+02   1.1361E+05  0.000E+00  0.000E+00  0.000E+00  4.03035E+01  1.558E-01  2.000E+01  2.000E+04 -4.702E-02
   1   12   19     1    19    1.1361E+05 -1.5323E+03   1.1515E+05  0.000E+00  0.000E+00  0.000E+00  3.98273E+01  1.568E-01  2.000E+01  2.000E+04 -7.662E-02
   1   13   20     1    20    1.1515E+05 -1.7982E+02   1.1533E+05  0.000E+00  0.000E+00  0.000E+00  3.93507E+01  1.575E-01  2.000E+01  2.000E+04 -8.991E-03
   1   14   21     1    21    1.1533E+05  2.1593E+03   1.1317E+05  0.000E+00  0.000E+00  0.000E+00  3.88726E+01  1.567E-01  2.000E+01  2.000E+04  1.080E-01
   1   14   22     1    22    1.1317E+05  5.5579E+03   1.0761E+05  0.000E+00  0.000E+00  0.000E+00  3.83921E+01  1.535E-01  2.000E+01  2.000E+04  2.779E-01
   1    9   30     2     1    5.0000E+04 -6.2780E+02   5.0628E+04  0.000E+00  0.000E+00  0.000E+00  4.02413E+01  1.163E-01  2.000E+01  2.000E+04 -3.139E-02
   1    9   29     2     2    5.0628E+04 -9.1984E+02   5.1548E+04  0.000E+00  0.000E+00  0.000E+00  3.99924E+01  1.174E-01  2.000E+01  2.000E+04 -4.599E-02
   1    9   28     2     3    5.1548E+04 -1.1562E+03   5.2704E+04  0.000E+00  0.000E+00  0.000E+00  3.97438E+01  1.188E-01  2.000E+01  2.000E+04 -5.781E-02
   1    9   27     2     4    5.2704E+04 -2.3098E+03   5.5014E+04  0.000E+00  0.000E+00  0.000E+00  3.94962E+01  1.212E-01  2.000E+01  2.000E+04 -1.155E-01
   1   10   26     2     5    5.5014E+04 -1.5366E+03   5.6550E+04  0.000E+00  0.000E+00  0.000E+00  3.92487E+01  1.237E-01  2.000E+01  2.000E+04 -7.683E-02
   1   11   25     2     6    5.6550E+04 -1.3374E+03   5.7888E+04  0.000E+00  0.000E+00  0.000E+00  3.90006E+01  1.256E-01  2.000E+01  2.000E+04 -6.687E-02
   1   12   24     2     7    5.7888E+04 -1.3959E+03   5.9284E+04  0.000E+00  0.000E+00  0.000E+00  3.87524E+01  1.274E-01  2.000E+01  2.000E+04 -6.980E-02
   1   13   23     2     8    5.9284E+04 -2.3611E+02   5.9520E+04  0.000E+00  0.000E+00  0.000E+00  3.85035E+01  1.285E-01  2.000E+01  2.000E+04 -1.181E-02
   1   14   22     2     9    5.9520E+04  2.7523E+03   5.6767E+04  0.000E+00  0.000E+00  0.000E+00  3.82518E+01  1.268E-01  2.000E+01  2.000E+04  1.376E-01
   1   14   22     3     1    1.6438E+05 -7.8924E+03   1.7227E+05  0.000E+00  0.000E+00  0.000E+00  3.77196E+01  1.641E-01  2.000E+01  2.000E+04 -3.946E-01
   1   15   23     3     2    1.7227E+05  1.8351E+02   1.7208E+05  0.000E+00  0.000E+00  0.000E+00  3.68330E+01  1.663E-01  2.000E+01  2.000E+04  9.176E-03
   1   15   24     3     3    1.7208E+05 -1.1708E+02   1.7220E+05  0.000E+00  0.000E+00  0.000E+00  3.59441E+01  1.663E-01  2.000E+01  2.000E+04 -5.854E-03
   1   15   25     3     4    1.7220E+05 -1.7808E+02   1.7238E+05  0.000E+00  0.000E+00  0.000E+00  3.50553E+01  1.664E-01  2.000E+01  2.000E+04 -8.904E-03
   1   15   26     3     5    1.7238E+05 -2.8280E+02   1.7266E+05  0.000E+00  0.000E+00  0.000E+00  3.41665E+01  1.665E-01  2.000E+01  2.000E+04 -1.414E-02
   1   16   27     3     6    1.7266E+05 -2.7521E+02   1.7294E+05  0.000E+00  0.000E+00  0.000E+00  3.32778E+01  1.667E-01  2.000E+01  2.000E+04 -1.376E-02
   1   17   28     3     7    1.7294E+05 -1.2082E+03   1.7415E+05  0.000E+00  0.000E+00  0.000E+00  3.23893E+01  1.671E-01  2.000E+01  2.000E+04 -6.041E-02
   1   18   29     3     8    1.7415E+05 -2.1191E+03   1.7627E+05  0.000E+00  0.000E+00  0.000E+00  3.15014E+01  1.680E-01  2.000E+01  2.000E+04 -1.060E-01
   1   18   30     3     9    1.7627E+05 -2.7185E+03   1.7898E+05  0.000E+00  0.000E+00  0.000E+00  3.06139E+01  1.694E-01  2.000E+01  2.000E+04 -1.359E-01



1
              HEAD IN LAYER   1 AT END OF TIME STEP   1 IN STRESS PERIOD    8
  ---------------------------------------------------------------------------

          1      2      3      4      5      6      7      8      9     10
         11     12     13     14     15     16     17     18     19     20
         21     22     23     24     25     26     27     28     29     30
 .........................................................................
   1  ****** ****** ****** ****** ****** ****** ****** ****** ****** ******
      ****** ****** ****** ****** ****** ****** ****** ****** ****** ******
      ****** ****** ****** ****** ****** ****** ****** ****** ****** ******
   2  ****** ****** ****** ****** ****** ****** ****** ****** ****** ******
      ****** ****** ****** ****** ****** ****** ****** ****** ****** ******
      ****** ****** ****** ****** ****** ****** ****** ****** ****** ******
   3  ****** ****** ****** ****** ****** ****** ****** ****** ****** ******
      ****** ****** ****** ****** ****** ****** ****** ****** ****** ******
      ****** ****** ****** ****** ****** ****** ****** ****** ****** ******
   4  ****** ****** ****** ****** ****** ****** ****** ****** ****** ******
      ****** ****** ****** ****** ****** ****** ****** ****** ****** ******
      ****** ****** ****** ****** ****** ****** ****** ****** ****** ******
   5  ****** ****** ****** ****** ****** ****** ****** ****** ****** ******
      ****** ****** ****** ****** ****** ****** ****** ****** ****** ******
      ****** ****** ****** ****** ****** ****** ****** ****** ****** ******
   6  ****** ****** ****** ****** ****** ****** ****** ****** ****** ******
      ****** ****** ****** ****** ****** ****** ****** ****** ****** ******
      ****** ****** ****** ****** ****** ****** ****** ****** ****** ******
   7  ****** ****** ****** ****** ****** ****** ****** ****** ****** ******
      ****** ****** ****** ****** ****** ****** ****** ****** ****** ******
      ****** ****** ****** ****** ****** ****** ****** ****** ****** ******
   8  ****** ****** ****** ****** ****** ****** ****** ****** ****** ******
      ****** ****** ****** ****** ****** ****** ****** ****** ****** ******
      ****** ****** ****** ****** ****** ****** ****** ****** ****** ******
   9  ****** ****** ****** ****** ****** ****** ****** ****** ****** ******
      ****** ****** ****** ****** ****** ****** ****** ****** ****** ******
      ****** ****** ****** ****** ****** ****** ****** ****** ****** ******
  10  ****** ****** ****** ****** ****** ****** ****** ****** ****** ******
      ****** ****** ****** ****** ****** ****** ****** ****** ****** ******
      ****** ****** ****** ****** ****** ****** ****** ****** ****** ******
  11  ****** ****** ****** ****** ****** ****** ****** ****** ****** ******
      ****** ****** ****** ****** ****** ****** ****** ****** ****** ******
      ****** ****** ****** ****** ****** ****** ****** ****** ****** ******
  12  ****** ****** ****** ****** ****** ****** ****** ****** ****** ******
      ****** ****** ****** ****** ****** ****** ****** ****** ****** ******
      ****** ****** ****** ****** ****** ****** ****** ****** ****** ******
  13  ****** ****** ****** ****** ****** ****** ****** ****** ****** ******
      ****** ****** ****** ****** ****** ****** ****** ****** ****** ******
      ****** ****** ****** ****** ****** ****** ****** ****** ****** ******
  14  ****** ****** ****** ****** ****** ****** ****** ****** ****** ******
      ****** ****** ****** ****** ****** ****** ****** ****** ****** ******
      ****** ****** ****** ****** ****** ****** ****** ****** ****** ******
  15  ****** ****** ****** ****** ****** ****** ****** ****** ****** ******
      ****** ****** ****** ****** ****** ****** ****** ****** ****** ******
      ****** ****** ****** ****** ****** ****** ****** ****** ****** ******
  16  ****** ****** ****** ****** ****** ****** ****** ****** ****** ******
      ****** ****** ****** ****** ****** ****** ****** ****** ****** ******
      ****** ****** ****** ****** ****** ****** ****** ****** ****** ******
  17  ****** ****** ****** ****** ****** ****** ****** ****** ****** ******
      ****** ****** ****** ****** ****** ****** ****** ****** ****** ******
      ****** ****** ****** ****** ****** ****** ****** ****** ****** ******
  18  ****** ****** ****** ****** ****** ****** ****** ****** ****** ******
      ****** ****** ****** ****** ****** ****** ****** ****** ****** ******
      ****** ****** ****** ****** ****** ****** ****** ****** ****** ******
  19  ****** ****** ****** ****** ****** ****** ****** ****** ****** ******
      ****** ****** ****** ****** ****** ****** ****** ****** ****** ******
      ****** ****** ****** ****** ****** ****** ****** ****** ****** ******
  20  ****** ****** ****** ****** ****** ****** ****** ****** ****** ******
      ****** ****** ****** ****** ****** ****** ****** ****** ****** ******
      ****** ****** ****** ****** ****** ****** ****** ****** ****** ******
  21  ****** ****** ****** ****** ****** ****** ****** ****** ****** ******
      ****** ****** ****** ****** ****** ****** ****** ****** ****** ******
      ****** ****** ****** ****** ****** ****** ****** ****** ****** ******
  22  ****** ****** ****** ****** ****** ****** ****** ****** ****** ******
      ****** ****** ****** ****** ****** ****** ****** ****** ****** ******
      ****** ****** ****** ****** ****** ****** ****** ****** ****** ******
  23  ****** ****** ****** ****** ****** ****** ****** ****** ****** ******
      ****** ****** ****** ****** ****** ****** ****** ****** ****** ******
      ****** ****** ****** ****** ****** ****** ****** ****** ****** ******
  24  ****** ****** ****** ****** ****** ****** ****** ****** ****** ******
      ****** ****** ****** ****** ****** ****** ****** ****** ****** ******
      ****** ****** ****** ****** ****** ****** ****** ****** ****** ******
  25  ****** ****** ****** ****** ****** ****** ****** ****** ****** ******
      ****** ****** ****** ****** ****** ****** ****** ****** ****** ******
      ****** ****** ****** ****** ****** ****** ****** ****** ****** ******

 HEAD WILL BE SAVED ON UNIT   51 AT END OF TIME STEP    1, STRESS PERIOD    8
1
  VOLUMETRIC BUDGET FOR ENTIRE MODEL AT END OF TIME STEP    1, STRESS PERIOD   8
  ------------------------------------------------------------------------------

     CUMULATIVE VOLUMES      L**3       RATES FOR THIS TIME STEP      L**3/T
     ------------------                 ------------------------

           IN:                                      IN:
           ---                                      ---
             STORAGE =    35083737.2614               STORAGE =        1569.0466
       CONSTANT HEAD =    21310067.0478         CONSTANT HEAD =       36555.0330
               WELLS =           0.0000                 WELLS =           0.0000
            RECHARGE =    17608800.0000              RECHARGE =       27600.0000
      STREAM LEAKAGE =     6746035.4052        STREAM LEAKAGE =       11204.4442

            TOTAL IN =    80748639.7144              TOTAL IN =       76928.5238

          OUT:                                     OUT:
          ----                                     ----
             STORAGE =      859162.8107               STORAGE =        1384.8946
       CONSTANT HEAD =           0.0000         CONSTANT HEAD =           0.0000
               WELLS =    25809400.6443                 WELLS =       35355.3433
            RECHARGE =           0.0000              RECHARGE =           0.0000
      STREAM LEAKAGE =    54080078.1089        STREAM LEAKAGE =       40188.2778

           TOTAL OUT =    80748641.5639             TOTAL OUT =       76928.5157

            IN - OUT =          -1.8495              IN - OUT =       8.1114E-03

 PERCENT DISCREPANCY =          -0.00     PERCENT DISCREPANCY =           0.00






         TIME SUMMARY AT END OF TIME STEP    1 IN STRESS PERIOD    8
                    SECONDS     MINUTES      HOURS       DAYS        YEARS
                    -----------------------------------------------------------
   TIME STEP LENGTH 7.86240E+06 1.31040E+05  2184.0      91.000     0.24914    
 STRESS PERIOD TIME 7.86240E+06 1.31040E+05  2184.0      91.000     0.24914    
         TOTAL TIME 6.30720E+07 1.05120E+06  17520.      730.00      1.9986    
1
1
                            STRESS PERIOD NO.    9, LENGTH =   92.00000    
                            -----------------------------------------------

                              NUMBER OF TIME STEPS =     1

                               MULTIPLIER FOR DELT =     1.500

                            INITIAL TIME STEP SIZE =   92.00000    

 WELL NO.  LAYER   ROW   COL   STRESS RATE         
 --------------------------------------------------
      1      1     16     21      -8812.    
      2      1     20     20      -6819.    
      3      1      4     15      -7093.    
      4      1     21     14     -0.1263E+05

      4 WELLS

                 RECHARGE =  5.000000E-04

 REUSING STREAM SEGMENT DATA FROM LAST STRESS PERIOD
 
 SOLVING FOR HEAD 


     6 CALLS TO PCG ROUTINE FOR TIME STEP   1 IN STRESS PERIOD    9
    23 TOTAL ITERATIONS

 OUTPUT CONTROL FOR STRESS PERIOD    9   TIME STEP    1
    SAVE BUDGET
    SAVE HEAD FOR ALL LAYERS
    PRINT HEAD FOR ALL LAYERS
 UBDSV2 SAVING "STREAMFLOW OUT  " ON UNIT  50 AT TIME STEP  1, STRESS PERIOD   9



 STREAM LISTING     PERIOD      9   STEP        1

 LAYER ROW COL. STREAM  RCH.  FLOW INTO     FLOW TO   FLOW OUT OF   OVRLND.     DIRECT     STREAM       STREAM     STREAM     STREAM   STREAMBED  STREAMBED
                SEG.NO.  NO.  STRM. RCH.    AQUIFER    STRM. RCH.    RUNOFF     PRECIP       ET          HEAD       DEPTH      WIDTH   CONDCTNC.   GRADIENT

   1   13    1     1     1    1.0000E+05 -1.4486E+03   1.0145E+05  0.000E+00  0.000E+00  0.000E+00  4.84066E+01  1.453E-01  2.000E+01  2.000E+04 -7.243E-02
   1   13    2     1     2    1.0145E+05 -2.3828E+03   1.0383E+05  0.000E+00  0.000E+00  0.000E+00  4.79310E+01  1.469E-01  2.000E+01  2.000E+04 -1.191E-01
   1   14    3     1     3    1.0383E+05 -3.6496E+02   1.0420E+05  0.000E+00  0.000E+00  0.000E+00  4.74549E+01  1.481E-01  2.000E+01  2.000E+04 -1.825E-02
   1   15    4     1     4    1.0420E+05 -3.1890E+02   1.0452E+05  0.000E+00  0.000E+00  0.000E+00  4.69779E+01  1.484E-01  2.000E+01  2.000E+04 -1.594E-02
   1   16    5     1     5    1.0452E+05 -9.8537E+02   1.0550E+05  0.000E+00  0.000E+00  0.000E+00  4.65012E+01  1.490E-01  2.000E+01  2.000E+04 -4.927E-02
   1   16    6     1     6    1.0550E+05 -5.9555E+02   1.0610E+05  0.000E+00  0.000E+00  0.000E+00  4.60246E+01  1.496E-01  2.000E+01  2.000E+04 -2.978E-02
   1   16    7     1     7    1.0610E+05 -5.2059E+02   1.0662E+05  0.000E+00  0.000E+00  0.000E+00  4.55478E+01  1.501E-01  2.000E+01  2.000E+04 -2.603E-02
   1   16    8     1     8    1.0662E+05 -4.2219E+02   1.0704E+05  0.000E+00  0.000E+00  0.000E+00  4.50710E+01  1.505E-01  2.000E+01  2.000E+04 -2.111E-02
   1   16    9     1     9    1.0704E+05 -2.8506E+02   1.0732E+05  0.000E+00  0.000E+00  0.000E+00  4.45940E+01  1.508E-01  2.000E+01  2.000E+04 -1.425E-02
   1   16   10     1    10    1.0732E+05 -1.0013E+02   1.0742E+05  0.000E+00  0.000E+00  0.000E+00  4.41169E+01  1.510E-01  2.000E+01  2.000E+04 -5.006E-03
   1   16   11     1    11    1.0742E+05  1.5146E+02   1.0727E+05  0.000E+00  0.000E+00  0.000E+00  4.36396E+01  1.509E-01  2.000E+01  2.000E+04  7.573E-03
   1   16   12     1    12    1.0727E+05  6.7650E+02   1.0660E+05  0.000E+00  0.000E+00  0.000E+00  4.31620E+01  1.506E-01  2.000E+01  2.000E+04  3.383E-02
   1   15   13     1    13    1.0660E+05  2.4298E+02   1.0635E+05  0.000E+00  0.000E+00  0.000E+00  4.26843E+01  1.502E-01  2.000E+01  2.000E+04  1.215E-02
   1   14   14     1    14    1.0635E+05 -2.5818E+02   1.0661E+05  0.000E+00  0.000E+00  0.000E+00  4.22070E+01  1.502E-01  2.000E+01  2.000E+04 -1.291E-02
   1   13   15     1    15    1.0661E+05 -7.6233E+02   1.0737E+05  0.000E+00  0.000E+00  0.000E+00  4.17302E+01  1.506E-01  2.000E+01  2.000E+04 -3.812E-02
   1   12   16     1    16    1.0737E+05 -1.6683E+03   1.0904E+05  0.000E+00  0.000E+00  0.000E+00  4.12539E+01  1.517E-01  2.000E+01  2.000E+04 -8.342E-02
   1   12   17     1    17    1.0904E+05 -8.5750E+02   1.0990E+05  0.000E+00  0.000E+00  0.000E+00  4.07777E+01  1.527E-01  2.000E+01  2.000E+04 -4.287E-02
   1   12   18     1    18    1.0990E+05 -7.8301E+02   1.1068E+05  0.000E+00  0.000E+00  0.000E+00  4.03011E+01  1.534E-01  2.000E+01  2.000E+04 -3.915E-02
   1   12   19     1    19    1.1068E+05 -1.3433E+03   1.1203E+05  0.000E+00  0.000E+00  0.000E+00  3.98247E+01  1.543E-01  2.000E+01  2.000E+04 -6.717E-02
   1   13   20     1    20    1.1203E+05 -3.3474E+00   1.1203E+05  0.000E+00  0.000E+00  0.000E+00  3.93480E+01  1.549E-01  2.000E+01  2.000E+04 -1.674E-04
   1   14   21     1    21    1.1203E+05  2.3358E+03   1.0969E+05  0.000E+00  0.000E+00  0.000E+00  3.88698E+01  1.539E-01  2.000E+01  2.000E+04  1.168E-01
   1   14   22     1    22    1.0969E+05  5.5956E+03   1.0410E+05  0.000E+00  0.000E+00  0.000E+00  3.83892E+01  1.506E-01  2.000E+01  2.000E+04  2.798E-01
   1    9   30     2     1    5.0000E+04 -5.0427E+02   5.0504E+04  0.000E+00  0.000E+00  0.000E+00  4.02412E+01  1.162E-01  2.000E+01  2.000E+04 -2.521E-02
   1    9   29     2     2    5.0504E+04 -7.9606E+02   5.1300E+04  0.000E+00  0.000E+00  0.000E+00  3.99921E+01  1.171E-01  2.000E+01  2.000E+04 -3.980E-02
   1    9   28     2     3    5.1300E+04 -1.0304E+03   5.2331E+04  0.000E+00  0.000E+00  0.000E+00  3.97434E+01  1.184E-01  2.000E+01  2.000E+04 -5.152E-02
   1    9   27     2     4    5.2331E+04 -2.1326E+03   5.4463E+04  0.000E+00  0.000E+00  0.000E+00  3.94955E+01  1.205E-01  2.000E+01  2.000E+04 -1.066E-01
   1   10   26     2     5    5.4463E+04 -1.3624E+03   5.5826E+04  0.000E+00  0.000E+00  0.000E+00  3.92479E+01  1.229E-01  2.000E+01  2.000E+04 -6.812E-02
   1   11   25     2     6    5.5826E+04 -1.1706E+03   5.6996E+04  0.000E+00  0.000E+00  0.000E+00  3.89996E+01  1.246E-01  2.000E+01  2.000E+04 -5.853E-02
   1   12   24     2     7    5.6996E+04 -1.2425E+03   5.8239E+04  0.000E+00  0.000E+00  0.000E+00  3.87512E+01  1.262E-01  2.000E+01  2.000E+04 -6.213E-02
   1   13   23     2     8    5.8239E+04 -1.8889E+02   5.8428E+04  0.000E+00  0.000E+00  0.000E+00  3.85021E+01  1.271E-01  2.000E+01  2.000E+04 -9.444E-03
   1   14   22     2     9    5.8428E+04  2.8191E+03   5.5609E+04  0.000E+00  0.000E+00  0.000E+00  3.82504E+01  1.254E-01  2.000E+01  2.000E+04  1.410E-01
   1   14   22     3     1    1.5971E+05 -7.8512E+03   1.6756E+05  0.000E+00  0.000E+00  0.000E+00  3.77169E+01  1.613E-01  2.000E+01  2.000E+04 -3.926E-01
   1   15   23     3     2    1.6756E+05  2.3729E+02   1.6732E+05  0.000E+00  0.000E+00  0.000E+00  3.68302E+01  1.635E-01  2.000E+01  2.000E+04  1.186E-02
   1   15   24     3     3    1.6732E+05 -7.3381E+01   1.6739E+05  0.000E+00  0.000E+00  0.000E+00  3.59413E+01  1.635E-01  2.000E+01  2.000E+04 -3.669E-03
   1   15   25     3     4    1.6739E+05 -1.3421E+02   1.6753E+05  0.000E+00  0.000E+00  0.000E+00  3.50524E+01  1.635E-01  2.000E+01  2.000E+04 -6.711E-03
   1   15   26     3     5    1.6753E+05 -2.3482E+02   1.6776E+05  0.000E+00  0.000E+00  0.000E+00  3.41637E+01  1.637E-01  2.000E+01  2.000E+04 -1.174E-02
   1   16   27     3     6    1.6776E+05 -2.1849E+02   1.6798E+05  0.000E+00  0.000E+00  0.000E+00  3.32749E+01  1.638E-01  2.000E+01  2.000E+04 -1.092E-02
   1   17   28     3     7    1.6798E+05 -1.0522E+03   1.6903E+05  0.000E+00  0.000E+00  0.000E+00  3.23864E+01  1.642E-01  2.000E+01  2.000E+04 -5.261E-02
   1   18   29     3     8    1.6903E+05 -1.9378E+03   1.7097E+05  0.000E+00  0.000E+00  0.000E+00  3.14984E+01  1.650E-01  2.000E+01  2.000E+04 -9.689E-02
   1   18   30     3     9    1.7097E+05 -2.5830E+03   1.7355E+05  0.000E+00  0.000E+00  0.000E+00  3.06108E+01  1.663E-01  2.000E+01  2.000E+04 -1.292E-01



1
              HEAD IN LAYER   1 AT END OF TIME STEP   1 IN STRESS PERIOD    9
  ---------------------------------------------------------------------------

          1      2      3      4      5      6      7      8      9     10
         11     12     13     14     15     16     17     18     19     20
         21     22     23     24     25     26     27     28     29     30
 .........................................................................
   1  ****** ****** ****** ****** ****** ****** ****** ****** ****** ******
      ****** ****** ****** ****** ****** ****** ****** ****** ****** ******
      ****** ****** ****** ****** ****** ****** ****** ****** ****** ******
   2  ****** ****** ****** ****** ****** ****** ****** ****** ****** ******
      ****** ****** ****** ****** ****** ****** ****** ****** ****** ******
      ****** ****** ****** ****** ****** ****** ****** ****** ****** ******
   3  ****** ****** ****** ****** ****** ****** ****** ****** ****** ******
      ****** ****** ****** ****** ****** ****** ****** ****** ****** ******
      ****** ****** ****** ****** ****** ****** ****** ****** ****** ******
   4  ****** ****** ****** ****** ****** ****** ****** ****** ****** ******
      ****** ****** ****** ****** ****** ****** ****** ****** ****** ******
      ****** ****** ****** ****** ****** ****** ****** ****** ****** ******
   5  ****** ****** ****** ****** ****** ****** ****** ****** ****** ******
      ****** ****** ****** ****** ****** ****** ****** ****** ****** ******
      ****** ****** ****** ****** ****** ****** ****** ****** ****** ******
   6  ****** ****** ****** ****** ****** ****** ****** ****** ****** ******
      ****** ****** ****** ****** ****** ****** ****** ****** ****** ******
      ****** ****** ****** ****** ****** ****** ****** ****** ****** ******
   7  ****** ****** ****** ****** ****** ****** ****** ****** ****** ******
      ****** ****** ****** ****** ****** ****** ****** ****** ****** ******
      ****** ****** ****** ****** ****** ****** ****** ****** ****** ******
   8  ****** ****** ****** ****** ****** ****** ****** ****** ****** ******
      ****** ****** ****** ****** ****** ****** ****** ****** ****** ******
      ****** ****** ****** ****** ****** ****** ****** ****** ****** ******
   9  ****** ****** ****** ****** ****** ****** ****** ****** ****** ******
      ****** ****** ****** ****** ****** ****** ****** ****** ****** ******
      ****** ****** ****** ****** ****** ****** ****** ****** ****** ******
  10  ****** ****** ****** ****** ****** ****** ****** ****** ****** ******
      ****** ****** ****** ****** ****** ****** ****** ****** ****** ******
      ****** ****** ****** ****** ****** ****** ****** ****** ****** ******
  11  ****** ****** ****** ****** ****** ****** ****** ****** ****** ******
      ****** ****** ****** ****** ****** ****** ****** ****** ****** ******
      ****** ****** ****** ****** ****** ****** ****** ****** ****** ******
  12  ****** ****** ****** ****** ****** ****** ****** ****** ****** ******
      ****** ****** ****** ****** ****** ****** ****** ****** ****** ******
      ****** ****** ****** ****** ****** ****** ****** ****** ****** ******
  13  ****** ****** ****** ****** ****** ****** ****** ****** ****** ******
      ****** ****** ****** ****** ****** ****** ****** ****** ****** ******
      ****** ****** ****** ****** ****** ****** ****** ****** ****** ******
  14  ****** ****** ****** ****** ****** ****** ****** ****** ****** ******
      ****** ****** ****** ****** ****** ****** ****** ****** ****** ******
      ****** ****** ****** ****** ****** ****** ****** ****** ****** ******
  15  ****** ****** ****** ****** ****** ****** ****** ****** ****** ******
      ****** ****** ****** ****** ****** ****** ****** ****** ****** ******
      ****** ****** ****** ****** ****** ****** ****** ****** ****** ******
  16  ****** ****** ****** ****** ****** ****** ****** ****** ****** ******
      ****** ****** ****** ****** ****** ****** ****** ****** ****** ******
      ****** ****** ****** ****** ****** ****** ****** ****** ****** ******
  17  ****** ****** ****** ****** ****** ****** ****** ****** ****** ******
      ****** ****** ****** ****** ****** ****** ****** ****** ****** ******
      ****** ****** ****** ****** ****** ****** ****** ****** ****** ******
  18  ****** ****** ****** ****** ****** ****** ****** ****** ****** ******
      ****** ****** ****** ****** ****** ****** ****** ****** ****** ******
      ****** ****** ****** ****** ****** ****** ****** ****** ****** ******
  19  ****** ****** ****** ****** ****** ****** ****** ****** ****** ******
      ****** ****** ****** ****** ****** ****** ****** ****** ****** ******
      ****** ****** ****** ****** ****** ****** ****** ****** ****** ******
  20  ****** ****** ****** ****** ****** ****** ****** ****** ****** ******
      ****** ****** ****** ****** ****** ****** ****** ****** ****** ******
      ****** ****** ****** ****** ****** ****** ****** ****** ****** ******
  21  ****** ****** ****** ****** ****** ****** ****** ****** ****** ******
      ****** ****** ****** ****** ****** ****** ****** ****** ****** ******
      ****** ****** ****** ****** ****** ****** ****** ****** ****** ******
  22  ****** ****** ****** ****** ****** ****** ****** ****** ****** ******
      ****** ****** ****** ****** ****** ****** ****** ****** ****** ******
      ****** ****** ****** ****** ****** ****** ****** ****** ****** ******
  23  ****** ****** ****** ****** ****** ****** ****** ****** ****** ******
      ****** ****** ****** ****** ****** ****** ****** ****** ****** ******
      ****** ****** ****** ****** ****** ****** ****** ****** ****** ******
  24  ****** ****** ****** ****** ****** ****** ****** ****** ****** ******
      ****** ****** ****** ****** ****** ****** ****** ****** ****** ******
      ****** ****** ****** ****** ****** ****** ****** ****** ****** ******
  25  ****** ****** ****** ****** ****** ****** ****** ****** ****** ******
      ****** ****** ****** ****** ****** ****** ****** ****** ****** ******
      ****** ****** ****** ****** ****** ****** ****** ****** ****** ******

 HEAD WILL BE SAVED ON UNIT   51 AT END OF TIME STEP    1, STRESS PERIOD    9
1
  VOLUMETRIC BUDGET FOR ENTIRE MODEL AT END OF TIME STEP    1, STRESS PERIOD   9
  ------------------------------------------------------------------------------

     CUMULATIVE VOLUMES      L**3       RATES FOR THIS TIME STEP      L**3/T
     ------------------                 ------------------------

           IN:                                      IN:
           ---                                      ---
             STORAGE =    35761056.2287               STORAGE =        7362.1627
       CONSTANT HEAD =    24782841.2650         CONSTANT HEAD =       37747.5458
               WELLS =           0.0000                 WELLS =           0.0000
            RECHARGE =    18878400.0000              RECHARGE =       13800.0000
      STREAM LEAKAGE =     7855437.4275        STREAM LEAKAGE =       12058.7176

            TOTAL IN =    87277734.9212              TOTAL IN =       70968.4262

          OUT:                                     OUT:
          ----                                     ----
             STORAGE =      859162.8107               STORAGE =           0.0000
       CONSTANT HEAD =           0.0000         CONSTANT HEAD =           0.0000
               WELLS =    29062092.2324                 WELLS =       35355.3433
            RECHARGE =           0.0000              RECHARGE =           0.0000
      STREAM LEAKAGE =    57356481.8010        STREAM LEAKAGE =       35613.0836

           TOTAL OUT =    87277736.8440             TOTAL OUT =       70968.4270

            IN - OUT =          -1.9228              IN - OUT =      -7.9672E-04

 PERCENT DISCREPANCY =          -0.00     PERCENT DISCREPANCY =          -0.00






         TIME SUMMARY AT END OF TIME STEP    1 IN STRESS PERIOD    9
                    SECONDS     MINUTES      HOURS       DAYS        YEARS
                    -----------------------------------------------------------
   TIME STEP LENGTH 7.94880E+06 1.32480E+05  2208.0      92.000     0.25188    
 STRESS PERIOD TIME 7.94880E+06 1.32480E+05  2208.0      92.000     0.25188    
         TOTAL TIME 7.10208E+07 1.18368E+06  19728.      822.00      2.2505    
1
1
                            STRESS PERIOD NO.   10, LENGTH =   91.00000    
                            -----------------------------------------------

                              NUMBER OF TIME STEPS =     1

                               MULTIPLIER FOR DELT =     1.500

                            INITIAL TIME STEP SIZE =   91.00000    

 WELL NO.  LAYER   ROW   COL   STRESS RATE         
 --------------------------------------------------
      1      1     16     21      -8812.    
      2      1     20     20      -6819.    
      3      1      4     15      -7093.    
      4      1     21     14     -0.1263E+05

      4 WELLS

                 RECHARGE =  2.000000E-03

 REUSING STREAM SEGMENT DATA FROM LAST STRESS PERIOD
 
 SOLVING FOR HEAD 


     7 CALLS TO PCG ROUTINE FOR TIME STEP   1 IN STRESS PERIOD   10
    26 TOTAL ITERATIONS

 OUTPUT CONTROL FOR STRESS PERIOD   10   TIME STEP    1
    SAVE BUDGET
    SAVE HEAD FOR ALL LAYERS
    PRINT HEAD FOR ALL LAYERS
 UBDSV2 SAVING "STREAMFLOW OUT  " ON UNIT  50 AT TIME STEP  1, STRESS PERIOD  10



 STREAM LISTING     PERIOD     10   STEP        1

 LAYER ROW COL. STREAM  RCH.  FLOW INTO     FLOW TO   FLOW OUT OF   OVRLND.     DIRECT     STREAM       STREAM     STREAM     STREAM   STREAMBED  STREAMBED
                SEG.NO.  NO.  STRM. RCH.    AQUIFER    STRM. RCH.    RUNOFF     PRECIP       ET          HEAD       DEPTH      WIDTH   CONDCTNC.   GRADIENT

   1   13    1     1     1    1.0000E+05 -1.8989E+03   1.0190E+05  0.000E+00  0.000E+00  0.000E+00  4.84068E+01  1.455E-01  2.000E+01  2.000E+04 -9.494E-02
   1   13    2     1     2    1.0190E+05 -2.8817E+03   1.0478E+05  0.000E+00  0.000E+00  0.000E+00  4.79316E+01  1.475E-01  2.000E+01  2.000E+04 -1.441E-01
   1   14    3     1     3    1.0478E+05 -5.5102E+02   1.0533E+05  0.000E+00  0.000E+00  0.000E+00  4.74558E+01  1.490E-01  2.000E+01  2.000E+04 -2.755E-02
   1   15    4     1     4    1.0533E+05 -5.1786E+02   1.0585E+05  0.000E+00  0.000E+00  0.000E+00  4.69790E+01  1.495E-01  2.000E+01  2.000E+04 -2.589E-02
   1   16    5     1     5    1.0585E+05 -1.6026E+03   1.0745E+05  0.000E+00  0.000E+00  0.000E+00  4.65026E+01  1.503E-01  2.000E+01  2.000E+04 -8.013E-02
   1   16    6     1     6    1.0745E+05 -9.5671E+02   1.0841E+05  0.000E+00  0.000E+00  0.000E+00  4.60264E+01  1.514E-01  2.000E+01  2.000E+04 -4.784E-02
   1   16    7     1     7    1.0841E+05 -8.6395E+02   1.0927E+05  0.000E+00  0.000E+00  0.000E+00  4.55499E+01  1.522E-01  2.000E+01  2.000E+04 -4.320E-02
   1   16    8     1     8    1.0927E+05 -7.6007E+02   1.1003E+05  0.000E+00  0.000E+00  0.000E+00  4.50733E+01  1.529E-01  2.000E+01  2.000E+04 -3.800E-02
   1   16    9     1     9    1.1003E+05 -6.2138E+02   1.1065E+05  0.000E+00  0.000E+00  0.000E+00  4.45966E+01  1.535E-01  2.000E+01  2.000E+04 -3.107E-02
   1   16   10     1    10    1.1065E+05 -4.3657E+02   1.1109E+05  0.000E+00  0.000E+00  0.000E+00  4.41198E+01  1.539E-01  2.000E+01  2.000E+04 -2.183E-02
   1   16   11     1    11    1.1109E+05 -1.8832E+02   1.1128E+05  0.000E+00  0.000E+00  0.000E+00  4.36428E+01  1.542E-01  2.000E+01  2.000E+04 -9.416E-03
   1   16   12     1    12    1.1128E+05  1.0970E+02   1.1117E+05  0.000E+00  0.000E+00  0.000E+00  4.31655E+01  1.542E-01  2.000E+01  2.000E+04  5.485E-03
   1   15   13     1    13    1.1117E+05 -3.4105E+02   1.1151E+05  0.000E+00  0.000E+00  0.000E+00  4.26884E+01  1.543E-01  2.000E+01  2.000E+04 -1.705E-02
   1   14   14     1    14    1.1151E+05 -8.4946E+02   1.1236E+05  0.000E+00  0.000E+00  0.000E+00  4.22116E+01  1.548E-01  2.000E+01  2.000E+04 -4.247E-02
   1   13   15     1    15    1.1236E+05 -1.3438E+03   1.1370E+05  0.000E+00  0.000E+00  0.000E+00  4.17352E+01  1.557E-01  2.000E+01  2.000E+04 -6.719E-02
   1   12   16     1    16    1.1370E+05 -2.2285E+03   1.1593E+05  0.000E+00  0.000E+00  0.000E+00  4.12594E+01  1.572E-01  2.000E+01  2.000E+04 -1.114E-01
   1   12   17     1    17    1.1593E+05 -1.2818E+03   1.1721E+05  0.000E+00  0.000E+00  0.000E+00  4.07836E+01  1.586E-01  2.000E+01  2.000E+04 -6.409E-02
   1   12   18     1    18    1.1721E+05 -1.2032E+03   1.1842E+05  0.000E+00  0.000E+00  0.000E+00  4.03073E+01  1.596E-01  2.000E+01  2.000E+04 -6.016E-02
   1   12   19     1    19    1.1842E+05 -1.8608E+03   1.2028E+05  0.000E+00  0.000E+00  0.000E+00  3.98313E+01  1.608E-01  2.000E+01  2.000E+04 -9.304E-02
   1   13   20     1    20    1.2028E+05 -5.2302E+02   1.2080E+05  0.000E+00  0.000E+00  0.000E+00  3.93550E+01  1.618E-01  2.000E+01  2.000E+04 -2.615E-02
   1   14   21     1    21    1.2080E+05  1.8135E+03   1.1899E+05  0.000E+00  0.000E+00  0.000E+00  3.88772E+01  1.613E-01  2.000E+01  2.000E+04  9.068E-02
   1   14   22     1    22    1.1899E+05  5.4725E+03   1.1351E+05  0.000E+00  0.000E+00  0.000E+00  3.83970E+01  1.583E-01  2.000E+01  2.000E+04  2.736E-01
   1    9   30     2     1    5.0000E+04 -9.1838E+02   5.0918E+04  0.000E+00  0.000E+00  0.000E+00  4.02415E+01  1.165E-01  2.000E+01  2.000E+04 -4.592E-02
   1    9   29     2     2    5.0918E+04 -1.2079E+03   5.2126E+04  0.000E+00  0.000E+00  0.000E+00  3.99930E+01  1.180E-01  2.000E+01  2.000E+04 -6.039E-02
   1    9   28     2     3    5.2126E+04 -1.4414E+03   5.3568E+04  0.000E+00  0.000E+00  0.000E+00  3.97448E+01  1.198E-01  2.000E+01  2.000E+04 -7.207E-02
   1    9   27     2     4    5.3568E+04 -2.6853E+03   5.6253E+04  0.000E+00  0.000E+00  0.000E+00  3.94976E+01  1.226E-01  2.000E+01  2.000E+04 -1.343E-01
   1   10   26     2     5    5.6253E+04 -1.9150E+03   5.8168E+04  0.000E+00  0.000E+00  0.000E+00  3.92506E+01  1.256E-01  2.000E+01  2.000E+04 -9.575E-02
   1   11   25     2     6    5.8168E+04 -1.6988E+03   5.9867E+04  0.000E+00  0.000E+00  0.000E+00  3.90030E+01  1.280E-01  2.000E+01  2.000E+04 -8.494E-02
   1   12   24     2     7    5.9867E+04 -1.7205E+03   6.1587E+04  0.000E+00  0.000E+00  0.000E+00  3.87552E+01  1.302E-01  2.000E+01  2.000E+04 -8.603E-02
   1   13   23     2     8    6.1587E+04 -3.3757E+02   6.1925E+04  0.000E+00  0.000E+00  0.000E+00  3.85065E+01  1.315E-01  2.000E+01  2.000E+04 -1.688E-02
   1   14   22     2     9    6.1925E+04  2.6340E+03   5.9291E+04  0.000E+00  0.000E+00  0.000E+00  3.82550E+01  1.300E-01  2.000E+01  2.000E+04  1.317E-01
   1   14   22     3     1    1.7281E+05 -7.9766E+03   1.8078E+05  0.000E+00  0.000E+00  0.000E+00  3.77245E+01  1.690E-01  2.000E+01  2.000E+04 -3.988E-01
   1   15   23     3     2    1.8078E+05  7.5432E+01   1.8071E+05  0.000E+00  0.000E+00  0.000E+00  3.68379E+01  1.712E-01  2.000E+01  2.000E+04  3.772E-03
   1   15   24     3     3    1.8071E+05 -2.1016E+02   1.8092E+05  0.000E+00  0.000E+00  0.000E+00  3.59490E+01  1.713E-01  2.000E+01  2.000E+04 -1.051E-02
   1   15   25     3     4    1.8092E+05 -2.7445E+02   1.8119E+05  0.000E+00  0.000E+00  0.000E+00  3.50603E+01  1.714E-01  2.000E+01  2.000E+04 -1.372E-02
   1   15   26     3     5    1.8119E+05 -3.9683E+02   1.8159E+05  0.000E+00  0.000E+00  0.000E+00  3.41716E+01  1.716E-01  2.000E+01  2.000E+04 -1.984E-02
   1   16   27     3     6    1.8159E+05 -4.0394E+02   1.8199E+05  0.000E+00  0.000E+00  0.000E+00  3.32829E+01  1.718E-01  2.000E+01  2.000E+04 -2.020E-02
   1   17   28     3     7    1.8199E+05 -1.5714E+03   1.8356E+05  0.000E+00  0.000E+00  0.000E+00  3.23946E+01  1.724E-01  2.000E+01  2.000E+04 -7.857E-02
   1   18   29     3     8    1.8356E+05 -2.4862E+03   1.8605E+05  0.000E+00  0.000E+00  0.000E+00  3.15068E+01  1.735E-01  2.000E+01  2.000E+04 -1.243E-01
   1   18   30     3     9    1.8605E+05 -3.0065E+03   1.8906E+05  0.000E+00  0.000E+00  0.000E+00  3.06195E+01  1.751E-01  2.000E+01  2.000E+04 -1.503E-01



1
              HEAD IN LAYER   1 AT END OF TIME STEP   1 IN STRESS PERIOD   10
  ---------------------------------------------------------------------------

          1      2      3      4      5      6      7      8      9     10
         11     12     13     14     15     16     17     18     19     20
         21     22     23     24     25     26     27     28     29     30
 .........................................................................
   1  ****** ****** ****** ****** ****** ****** ****** ****** ****** ******
      ****** ****** ****** ****** ****** ****** ****** ****** ****** ******
      ****** ****** ****** ****** ****** ****** ****** ****** ****** ******
   2  ****** ****** ****** ****** ****** ****** ****** ****** ****** ******
      ****** ****** ****** ****** ****** ****** ****** ****** ****** ******
      ****** ****** ****** ****** ****** ****** ****** ****** ****** ******
   3  ****** ****** ****** ****** ****** ****** ****** ****** ****** ******
      ****** ****** ****** ****** ****** ****** ****** ****** ****** ******
      ****** ****** ****** ****** ****** ****** ****** ****** ****** ******
   4  ****** ****** ****** ****** ****** ****** ****** ****** ****** ******
      ****** ****** ****** ****** ****** ****** ****** ****** ****** ******
      ****** ****** ****** ****** ****** ****** ****** ****** ****** ******
   5  ****** ****** ****** ****** ****** ****** ****** ****** ****** ******
      ****** ****** ****** ****** ****** ****** ****** ****** ****** ******
      ****** ****** ****** ****** ****** ****** ****** ****** ****** ******
   6  ****** ****** ****** ****** ****** ****** ****** ****** ****** ******
      ****** ****** ****** ****** ****** ****** ****** ****** ****** ******
      ****** ****** ****** ****** ****** ****** ****** ****** ****** ******
   7  ****** ****** ****** ****** ****** ****** ****** ****** ****** ******
      ****** ****** ****** ****** ****** ****** ****** ****** ****** ******
      ****** ****** ****** ****** ****** ****** ****** ****** ****** ******
   8  ****** ****** ****** ****** ****** ****** ****** ****** ****** ******
      ****** ****** ****** ****** ****** ****** ****** ****** ****** ******
      ****** ****** ****** ****** ****** ****** ****** ****** ****** ******
   9  ****** ****** ****** ****** ****** ****** ****** ****** ****** ******
      ****** ****** ****** ****** ****** ****** ****** ****** ****** ******
      ****** ****** ****** ****** ****** ****** ****** ****** ****** ******
  10  ****** ****** ****** ****** ****** ****** ****** ****** ****** ******
      ****** ****** ****** ****** ****** ****** ****** ****** ****** ******
      ****** ****** ****** ****** ****** ****** ****** ****** ****** ******
  11  ****** ****** ****** ****** ****** ****** ****** ****** ****** ******
      ****** ****** ****** ****** ****** ****** ****** ****** ****** ******
      ****** ****** ****** ****** ****** ****** ****** ****** ****** ******
  12  ****** ****** ****** ****** ****** ****** ****** ****** ****** ******
      ****** ****** ****** ****** ****** ****** ****** ****** ****** ******
      ****** ****** ****** ****** ****** ****** ****** ****** ****** ******
  13  ****** ****** ****** ****** ****** ****** ****** ****** ****** ******
      ****** ****** ****** ****** ****** ****** ****** ****** ****** ******
      ****** ****** ****** ****** ****** ****** ****** ****** ****** ******
  14  ****** ****** ****** ****** ****** ****** ****** ****** ****** ******
      ****** ****** ****** ****** ****** ****** ****** ****** ****** ******
      ****** ****** ****** ****** ****** ****** ****** ****** ****** ******
  15  ****** ****** ****** ****** ****** ****** ****** ****** ****** ******
      ****** ****** ****** ****** ****** ****** ****** ****** ****** ******
      ****** ****** ****** ****** ****** ****** ****** ****** ****** ******
  16  ****** ****** ****** ****** ****** ****** ****** ****** ****** ******
      ****** ****** ****** ****** ****** ****** ****** ****** ****** ******
      ****** ****** ****** ****** ****** ****** ****** ****** ****** ******
  17  ****** ****** ****** ****** ****** ****** ****** ****** ****** ******
      ****** ****** ****** ****** ****** ****** ****** ****** ****** ******
      ****** ****** ****** ****** ****** ****** ****** ****** ****** ******
  18  ****** ****** ****** ****** ****** ****** ****** ****** ****** ******
      ****** ****** ****** ****** ****** ****** ****** ****** ****** ******
      ****** ****** ****** ****** ****** ****** ****** ****** ****** ******
  19  ****** ****** ****** ****** ****** ****** ****** ****** ****** ******
      ****** ****** ****** ****** ****** ****** ****** ****** ****** ******
      ****** ****** ****** ****** ****** ****** ****** ****** ****** ******
  20  ****** ****** ****** ****** ****** ****** ****** ****** ****** ******
      ****** ****** ****** ****** ****** ****** ****** ****** ****** ******
      ****** ****** ****** ****** ****** ****** ****** ****** ****** ******
  21  ****** ****** ****** ****** ****** ****** ****** ****** ****** ******
      ****** ****** ****** ****** ****** ****** ****** ****** ****** ******
      ****** ****** ****** ****** ****** ****** ****** ****** ****** ******
  22  ****** ****** ****** ****** ****** ****** ****** ****** ****** ******
      ****** ****** ****** ****** ****** ****** ****** ****** ****** ******
      ****** ****** ****** ****** ****** ****** ****** ****** ****** ******
  23  ****** ****** ****** ****** ****** ****** ****** ****** ****** ******
      ****** ****** ****** ****** ****** ****** ****** ****** ****** ******
      ****** ****** ****** ****** ****** ****** ****** ****** ****** ******
  24  ****** ****** ****** ****** ****** ****** ****** ****** ****** ******
      ****** ****** ****** ****** ****** ****** ****** ****** ****** ******
      ****** ****** ****** ****** ****** ****** ****** ****** ****** ******
  25  ****** ****** ****** ****** ****** ****** ****** ****** ****** ******
      ****** ****** ****** ****** ****** ****** ****** ****** ****** ******
      ****** ****** ****** ****** ****** ****** ****** ****** ****** ******

 HEAD WILL BE SAVED ON UNIT   51 AT END OF TIME STEP    1, STRESS PERIOD   10
1
  VOLUMETRIC BUDGET FOR ENTIRE MODEL AT END OF TIME STEP    1, STRESS PERIOD  10
  ------------------------------------------------------------------------------

     CUMULATIVE VOLUMES      L**3       RATES FOR THIS TIME STEP      L**3/T
     ------------------                 ------------------------

           IN:                                      IN:
           ---                                      ---
             STORAGE =    35761056.2287               STORAGE =           0.0000
       CONSTANT HEAD =    27950484.0738         CONSTANT HEAD =       34809.2616
               WELLS =           0.0000                 WELLS =           0.0000
            RECHARGE =    23901600.0000              RECHARGE =       55200.0000
      STREAM LEAKAGE =     8775002.9092        STREAM LEAKAGE =       10105.1152

            TOTAL IN =    96388143.2117              TOTAL IN =      100114.3768

          OUT:                                     OUT:
          ----                                     ----
             STORAGE =     2278527.7228               STORAGE =       15597.4166
       CONSTANT HEAD =           0.0000         CONSTANT HEAD =           0.0000
               WELLS =    32279428.4771                 WELLS =       35355.3433
            RECHARGE =           0.0000              RECHARGE =           0.0000
      STREAM LEAKAGE =    61830188.5871        STREAM LEAKAGE =       49161.6130

           TOTAL OUT =    96388144.7870             TOTAL OUT =      100114.3730

            IN - OUT =          -1.5754              IN - OUT =       3.8177E-03

 PERCENT DISCREPANCY =          -0.00     PERCENT DISCREPANCY =           0.00






         TIME SUMMARY AT END OF TIME STEP    1 IN STRESS PERIOD   10
                    SECONDS     MINUTES      HOURS       DAYS        YEARS
                    -----------------------------------------------------------
   TIME STEP LENGTH 7.86240E+06 1.31040E+05  2184.0      91.000     0.24914    
 STRESS PERIOD TIME 7.86240E+06 1.31040E+05  2184.0      91.000     0.24914    
         TOTAL TIME 7.88832E+07 1.31472E+06  21912.      913.00      2.4997    
1
1
                            STRESS PERIOD NO.   11, LENGTH =   91.00000    
                            -----------------------------------------------

                              NUMBER OF TIME STEPS =     1

                               MULTIPLIER FOR DELT =     1.500

                            INITIAL TIME STEP SIZE =   91.00000    

 WELL NO.  LAYER   ROW   COL   STRESS RATE         
 --------------------------------------------------
      1      1     16     21      -8812.    
      2      1     20     20      -6819.    
      3      1      4     15      -7093.    
      4      1     21     14     -0.1263E+05

      4 WELLS

                 RECHARGE =   0.00000    

 REUSING STREAM SEGMENT DATA FROM LAST STRESS PERIOD
 
 SOLVING FOR HEAD 


     7 CALLS TO PCG ROUTINE FOR TIME STEP   1 IN STRESS PERIOD   11
    26 TOTAL ITERATIONS

 OUTPUT CONTROL FOR STRESS PERIOD   11   TIME STEP    1
    SAVE BUDGET
    SAVE HEAD FOR ALL LAYERS
    PRINT HEAD FOR ALL LAYERS
 UBDSV2 SAVING "STREAMFLOW OUT  " ON UNIT  50 AT TIME STEP  1, STRESS PERIOD  11



 STREAM LISTING     PERIOD     11   STEP        1

 LAYER ROW COL. STREAM  RCH.  FLOW INTO     FLOW TO   FLOW OUT OF   OVRLND.     DIRECT     STREAM       STREAM     STREAM     STREAM   STREAMBED  STREAMBED
                SEG.NO.  NO.  STRM. RCH.    AQUIFER    STRM. RCH.    RUNOFF     PRECIP       ET          HEAD       DEPTH      WIDTH   CONDCTNC.   GRADIENT

   1   13    1     1     1    1.0000E+05 -1.3296E+03   1.0133E+05  0.000E+00  0.000E+00  0.000E+00  4.84066E+01  1.452E-01  2.000E+01  2.000E+04 -6.648E-02
   1   13    2     1     2    1.0133E+05 -2.2478E+03   1.0358E+05  0.000E+00  0.000E+00  0.000E+00  4.79309E+01  1.468E-01  2.000E+01  2.000E+04 -1.124E-01
   1   14    3     1     3    1.0358E+05 -3.1981E+02   1.0390E+05  0.000E+00  0.000E+00  0.000E+00  4.74547E+01  1.479E-01  2.000E+01  2.000E+04 -1.599E-02
   1   15    4     1     4    1.0390E+05 -2.7566E+02   1.0417E+05  0.000E+00  0.000E+00  0.000E+00  4.69777E+01  1.481E-01  2.000E+01  2.000E+04 -1.378E-02
   1   16    5     1     5    1.0417E+05 -9.1379E+02   1.0509E+05  0.000E+00  0.000E+00  0.000E+00  4.65009E+01  1.486E-01  2.000E+01  2.000E+04 -4.569E-02
   1   16    6     1     6    1.0509E+05 -5.4180E+02   1.0563E+05  0.000E+00  0.000E+00  0.000E+00  4.60243E+01  1.493E-01  2.000E+01  2.000E+04 -2.709E-02
   1   16    7     1     7    1.0563E+05 -4.6664E+02   1.0610E+05  0.000E+00  0.000E+00  0.000E+00  4.55474E+01  1.497E-01  2.000E+01  2.000E+04 -2.333E-02
   1   16    8     1     8    1.0610E+05 -3.6827E+02   1.0646E+05  0.000E+00  0.000E+00  0.000E+00  4.50705E+01  1.500E-01  2.000E+01  2.000E+04 -1.841E-02
   1   16    9     1     9    1.0646E+05 -2.3179E+02   1.0670E+05  0.000E+00  0.000E+00  0.000E+00  4.45935E+01  1.503E-01  2.000E+01  2.000E+04 -1.159E-02
   1   16   10     1    10    1.0670E+05 -4.8042E+01   1.0674E+05  0.000E+00  0.000E+00  0.000E+00  4.41163E+01  1.504E-01  2.000E+01  2.000E+04 -2.402E-03
   1   16   11     1    11    1.0674E+05  2.0206E+02   1.0654E+05  0.000E+00  0.000E+00  0.000E+00  4.36390E+01  1.503E-01  2.000E+01  2.000E+04  1.010E-02
   1   16   12     1    12    1.0654E+05  7.5678E+02   1.0578E+05  0.000E+00  0.000E+00  0.000E+00  4.31613E+01  1.499E-01  2.000E+01  2.000E+04  3.784E-02
   1   15   13     1    13    1.0578E+05  3.4883E+02   1.0544E+05  0.000E+00  0.000E+00  0.000E+00  4.26836E+01  1.495E-01  2.000E+01  2.000E+04  1.744E-02
   1   14   14     1    14    1.0544E+05 -1.4185E+02   1.0558E+05  0.000E+00  0.000E+00  0.000E+00  4.22062E+01  1.494E-01  2.000E+01  2.000E+04 -7.092E-03
   1   13   15     1    15    1.0558E+05 -6.4178E+02   1.0622E+05  0.000E+00  0.000E+00  0.000E+00  4.17293E+01  1.497E-01  2.000E+01  2.000E+04 -3.209E-02
   1   12   16     1    16    1.0622E+05 -1.5501E+03   1.0777E+05  0.000E+00  0.000E+00  0.000E+00  4.12529E+01  1.506E-01  2.000E+01  2.000E+04 -7.751E-02
   1   12   17     1    17    1.0777E+05 -7.7433E+02   1.0854E+05  0.000E+00  0.000E+00  0.000E+00  4.07766E+01  1.516E-01  2.000E+01  2.000E+04 -3.872E-02
   1   12   18     1    18    1.0854E+05 -7.0354E+02   1.0925E+05  0.000E+00  0.000E+00  0.000E+00  4.03000E+01  1.522E-01  2.000E+01  2.000E+04 -3.518E-02
   1   12   19     1    19    1.0925E+05 -1.2475E+03   1.1049E+05  0.000E+00  0.000E+00  0.000E+00  3.98235E+01  1.531E-01  2.000E+01  2.000E+04 -6.238E-02
   1   13   20     1    20    1.1049E+05  9.0085E+01   1.1040E+05  0.000E+00  0.000E+00  0.000E+00  3.93467E+01  1.535E-01  2.000E+01  2.000E+04  4.504E-03
   1   14   21     1    21    1.1040E+05  2.4116E+03   1.0799E+05  0.000E+00  0.000E+00  0.000E+00  3.88684E+01  1.525E-01  2.000E+01  2.000E+04  1.206E-01
   1   14   22     1    22    1.0799E+05  5.6152E+03   1.0238E+05  0.000E+00  0.000E+00  0.000E+00  3.83877E+01  1.491E-01  2.000E+01  2.000E+04  2.808E-01
   1    9   30     2     1    5.0000E+04 -4.3029E+02   5.0430E+04  0.000E+00  0.000E+00  0.000E+00  4.02412E+01  1.162E-01  2.000E+01  2.000E+04 -2.151E-02
   1    9   29     2     2    5.0430E+04 -7.2283E+02   5.1153E+04  0.000E+00  0.000E+00  0.000E+00  3.99920E+01  1.170E-01  2.000E+01  2.000E+04 -3.614E-02
   1    9   28     2     3    5.1153E+04 -9.5851E+02   5.2112E+04  0.000E+00  0.000E+00  0.000E+00  3.97431E+01  1.181E-01  2.000E+01  2.000E+04 -4.793E-02
   1    9   27     2     4    5.2112E+04 -2.0453E+03   5.4157E+04  0.000E+00  0.000E+00  0.000E+00  3.94952E+01  1.202E-01  2.000E+01  2.000E+04 -1.023E-01
   1   10   26     2     5    5.4157E+04 -1.2607E+03   5.5418E+04  0.000E+00  0.000E+00  0.000E+00  3.92474E+01  1.224E-01  2.000E+01  2.000E+04 -6.304E-02
   1   11   25     2     6    5.5418E+04 -1.0682E+03   5.6486E+04  0.000E+00  0.000E+00  0.000E+00  3.89990E+01  1.240E-01  2.000E+01  2.000E+04 -5.341E-02
   1   12   24     2     7    5.6486E+04 -1.1469E+03   5.7633E+04  0.000E+00  0.000E+00  0.000E+00  3.87504E+01  1.254E-01  2.000E+01  2.000E+04 -5.735E-02
   1   13   23     2     8    5.7633E+04 -1.5163E+02   5.7784E+04  0.000E+00  0.000E+00  0.000E+00  3.85013E+01  1.263E-01  2.000E+01  2.000E+04 -7.582E-03
   1   14   22     2     9    5.7784E+04  2.8503E+03   5.4934E+04  0.000E+00  0.000E+00  0.000E+00  3.82495E+01  1.245E-01  2.000E+01  2.000E+04  1.425E-01
   1   14   22     3     1    1.5731E+05 -7.8312E+03   1.6514E+05  0.000E+00  0.000E+00  0.000E+00  3.77154E+01  1.599E-01  2.000E+01  2.000E+04 -3.916E-01
   1   15   23     3     2    1.6514E+05  2.6781E+02   1.6488E+05  0.000E+00  0.000E+00  0.000E+00  3.68288E+01  1.621E-01  2.000E+01  2.000E+04  1.339E-02
   1   15   24     3     3    1.6488E+05 -4.4849E+01   1.6492E+05  0.000E+00  0.000E+00  0.000E+00  3.59398E+01  1.620E-01  2.000E+01  2.000E+04 -2.242E-03
   1   15   25     3     4    1.6492E+05 -1.0532E+02   1.6503E+05  0.000E+00  0.000E+00  0.000E+00  3.50510E+01  1.621E-01  2.000E+01  2.000E+04 -5.266E-03
   1   15   26     3     5    1.6503E+05 -2.0104E+02   1.6523E+05  0.000E+00  0.000E+00  0.000E+00  3.41622E+01  1.622E-01  2.000E+01  2.000E+04 -1.005E-02
   1   16   27     3     6    1.6523E+05 -1.8073E+02   1.6541E+05  0.000E+00  0.000E+00  0.000E+00  3.32734E+01  1.623E-01  2.000E+01  2.000E+04 -9.036E-03
   1   17   28     3     7    1.6541E+05 -9.6099E+02   1.6637E+05  0.000E+00  0.000E+00  0.000E+00  3.23848E+01  1.626E-01  2.000E+01  2.000E+04 -4.805E-02
   1   18   29     3     8    1.6637E+05 -1.8628E+03   1.6823E+05  0.000E+00  0.000E+00  0.000E+00  3.14968E+01  1.635E-01  2.000E+01  2.000E+04 -9.314E-02
   1   18   30     3     9    1.6823E+05 -2.5164E+03   1.7075E+05  0.000E+00  0.000E+00  0.000E+00  3.06092E+01  1.647E-01  2.000E+01  2.000E+04 -1.258E-01



1
              HEAD IN LAYER   1 AT END OF TIME STEP   1 IN STRESS PERIOD   11
  ---------------------------------------------------------------------------

          1      2      3      4      5      6      7      8      9     10
         11     12     13     14     15     16     17     18     19     20
         21     22     23     24     25     26     27     28     29     30
 .........................................................................
   1  ****** ****** ****** ****** ****** ****** ****** ****** ****** ******
      ****** ****** ****** ****** ****** ****** ****** ****** ****** ******
      ****** ****** ****** ****** ****** ****** ****** ****** ****** ******
   2  ****** ****** ****** ****** ****** ****** ****** ****** ****** ******
      ****** ****** ****** ****** ****** ****** ****** ****** ****** ******
      ****** ****** ****** ****** ****** ****** ****** ****** ****** ******
   3  ****** ****** ****** ****** ****** ****** ****** ****** ****** ******
      ****** ****** ****** ****** ****** ****** ****** ****** ****** ******
      ****** ****** ****** ****** ****** ****** ****** ****** ****** ******
   4  ****** ****** ****** ****** ****** ****** ****** ****** ****** ******
      ****** ****** ****** ****** ****** ****** ****** ****** ****** ******
      ****** ****** ****** ****** ****** ****** ****** ****** ****** ******
   5  ****** ****** ****** ****** ****** ****** ****** ****** ****** ******
      ****** ****** ****** ****** ****** ****** ****** ****** ****** ******
      ****** ****** ****** ****** ****** ****** ****** ****** ****** ******
   6  ****** ****** ****** ****** ****** ****** ****** ****** ****** ******
      ****** ****** ****** ****** ****** ****** ****** ****** ****** ******
      ****** ****** ****** ****** ****** ****** ****** ****** ****** ******
   7  ****** ****** ****** ****** ****** ****** ****** ****** ****** ******
      ****** ****** ****** ****** ****** ****** ****** ****** ****** ******
      ****** ****** ****** ****** ****** ****** ****** ****** ****** ******
   8  ****** ****** ****** ****** ****** ****** ****** ****** ****** ******
      ****** ****** ****** ****** ****** ****** ****** ****** ****** ******
      ****** ****** ****** ****** ****** ****** ****** ****** ****** ******
   9  ****** ****** ****** ****** ****** ****** ****** ****** ****** ******
      ****** ****** ****** ****** ****** ****** ****** ****** ****** ******
      ****** ****** ****** ****** ****** ****** ****** ****** ****** ******
  10  ****** ****** ****** ****** ****** ****** ****** ****** ****** ******
      ****** ****** ****** ****** ****** ****** ****** ****** ****** ******
      ****** ****** ****** ****** ****** ****** ****** ****** ****** ******
  11  ****** ****** ****** ****** ****** ****** ****** ****** ****** ******
      ****** ****** ****** ****** ****** ****** ****** ****** ****** ******
      ****** ****** ****** ****** ****** ****** ****** ****** ****** ******
  12  ****** ****** ****** ****** ****** ****** ****** ****** ****** ******
      ****** ****** ****** ****** ****** ****** ****** ****** ****** ******
      ****** ****** ****** ****** ****** ****** ****** ****** ****** ******
  13  ****** ****** ****** ****** ****** ****** ****** ****** ****** ******
      ****** ****** ****** ****** ****** ****** ****** ****** ****** ******
      ****** ****** ****** ****** ****** ****** ****** ****** ****** ******
  14  ****** ****** ****** ****** ****** ****** ****** ****** ****** ******
      ****** ****** ****** ****** ****** ****** ****** ****** ****** ******
      ****** ****** ****** ****** ****** ****** ****** ****** ****** ******
  15  ****** ****** ****** ****** ****** ****** ****** ****** ****** ******
      ****** ****** ****** ****** ****** ****** ****** ****** ****** ******
      ****** ****** ****** ****** ****** ****** ****** ****** ****** ******
  16  ****** ****** ****** ****** ****** ****** ****** ****** ****** ******
      ****** ****** ****** ****** ****** ****** ****** ****** ****** ******
      ****** ****** ****** ****** ****** ****** ****** ****** ****** ******
  17  ****** ****** ****** ****** ****** ****** ****** ****** ****** ******
      ****** ****** ****** ****** ****** ****** ****** ****** ****** ******
      ****** ****** ****** ****** ****** ****** ****** ****** ****** ******
  18  ****** ****** ****** ****** ****** ****** ****** ****** ****** ******
      ****** ****** ****** ****** ****** ****** ****** ****** ****** ******
      ****** ****** ****** ****** ****** ****** ****** ****** ****** ******
  19  ****** ****** ****** ****** ****** ****** ****** ****** ****** ******
      ****** ****** ****** ****** ****** ****** ****** ****** ****** ******
      ****** ****** ****** ****** ****** ****** ****** ****** ****** ******
  20  ****** ****** ****** ****** ****** ****** ****** ****** ****** ******
      ****** ****** ****** ****** ****** ****** ****** ****** ****** ******
      ****** ****** ****** ****** ****** ****** ****** ****** ****** ******
  21  ****** ****** ****** ****** ****** ****** ****** ****** ****** ******
      ****** ****** ****** ****** ****** ****** ****** ****** ****** ******
      ****** ****** ****** ****** ****** ****** ****** ****** ****** ******
  22  ****** ****** ****** ****** ****** ****** ****** ****** ****** ******
      ****** ****** ****** ****** ****** ****** ****** ****** ****** ******
      ****** ****** ****** ****** ****** ****** ****** ****** ****** ******
  23  ****** ****** ****** ****** ****** ****** ****** ****** ****** ******
      ****** ****** ****** ****** ****** ****** ****** ****** ****** ******
      ****** ****** ****** ****** ****** ****** ****** ****** ****** ******
  24  ****** ****** ****** ****** ****** ****** ****** ****** ****** ******
      ****** ****** ****** ****** ****** ****** ****** ****** ****** ******
      ****** ****** ****** ****** ****** ****** ****** ****** ****** ******
  25  ****** ****** ****** ****** ****** ****** ****** ****** ****** ******
      ****** ****** ****** ****** ****** ****** ****** ****** ****** ******
      ****** ****** ****** ****** ****** ****** ****** ****** ****** ******

 HEAD WILL BE SAVED ON UNIT   51 AT END OF TIME STEP    1, STRESS PERIOD   11
1
  VOLUMETRIC BUDGET FOR ENTIRE MODEL AT END OF TIME STEP    1, STRESS PERIOD  11
  ------------------------------------------------------------------------------

     CUMULATIVE VOLUMES      L**3       RATES FOR THIS TIME STEP      L**3/T
     ------------------                 ------------------------

           IN:                                      IN:
           ---                                      ---
             STORAGE =    37398958.1884               STORAGE =       17998.9226
       CONSTANT HEAD =    31417938.7787         CONSTANT HEAD =       38103.8979
               WELLS =           0.0000                 WELLS =           0.0000
            RECHARGE =    23901600.0000              RECHARGE =           0.0000
      STREAM LEAKAGE =     9916383.6836        STREAM LEAKAGE =       12542.6459

            TOTAL IN =   102634880.6507              TOTAL IN =       68645.4664

          OUT:                                     OUT:
          ----                                     ----
             STORAGE =     2278527.7228               STORAGE =           0.0000
       CONSTANT HEAD =           0.0000         CONSTANT HEAD =           0.0000
               WELLS =    35496764.7218                 WELLS =       35355.3433
            RECHARGE =           0.0000              RECHARGE =           0.0000
      STREAM LEAKAGE =    64859590.2386        STREAM LEAKAGE =       33290.1280

           TOTAL OUT =   102634882.6833             TOTAL OUT =       68645.4714

            IN - OUT =          -2.0325              IN - OUT =      -5.0236E-03

 PERCENT DISCREPANCY =          -0.00     PERCENT DISCREPANCY =          -0.00






         TIME SUMMARY AT END OF TIME STEP    1 IN STRESS PERIOD   11
                    SECONDS     MINUTES      HOURS       DAYS        YEARS
                    -----------------------------------------------------------
   TIME STEP LENGTH 7.86240E+06 1.31040E+05  2184.0      91.000     0.24914    
 STRESS PERIOD TIME 7.86240E+06 1.31040E+05  2184.0      91.000     0.24914    
         TOTAL TIME 8.67456E+07 1.44576E+06  24096.      1004.0      2.7488    
1
1
                            STRESS PERIOD NO.   12, LENGTH =   91.00000    
                            -----------------------------------------------

                              NUMBER OF TIME STEPS =     1

                               MULTIPLIER FOR DELT =     1.500

                            INITIAL TIME STEP SIZE =   91.00000    

 WELL NO.  LAYER   ROW   COL   STRESS RATE         
 --------------------------------------------------
      1      1     16     21      -8812.    
      2      1     20     20      -6819.    
      3      1      4     15      -7093.    
      4      1     21     14     -0.1263E+05

      4 WELLS

                 RECHARGE =  1.000000E-03

 REUSING STREAM SEGMENT DATA FROM LAST STRESS PERIOD
 
 SOLVING FOR HEAD 


     7 CALLS TO PCG ROUTINE FOR TIME STEP   1 IN STRESS PERIOD   12
    24 TOTAL ITERATIONS

 OUTPUT CONTROL FOR STRESS PERIOD   12   TIME STEP    1
    SAVE BUDGET
    SAVE HEAD FOR ALL LAYERS
    PRINT HEAD FOR ALL LAYERS
 UBDSV2 SAVING "STREAMFLOW OUT  " ON UNIT  50 AT TIME STEP  1, STRESS PERIOD  12



 STREAM LISTING     PERIOD     12   STEP        1

 LAYER ROW COL. STREAM  RCH.  FLOW INTO     FLOW TO   FLOW OUT OF   OVRLND.     DIRECT     STREAM       STREAM     STREAM     STREAM   STREAMBED  STREAMBED
                SEG.NO.  NO.  STRM. RCH.    AQUIFER    STRM. RCH.    RUNOFF     PRECIP       ET          HEAD       DEPTH      WIDTH   CONDCTNC.   GRADIENT

   1   13    1     1     1    1.0000E+05 -1.4728E+03   1.0147E+05  0.000E+00  0.000E+00  0.000E+00  4.84067E+01  1.453E-01  2.000E+01  2.000E+04 -7.364E-02
   1   13    2     1     2    1.0147E+05 -2.4016E+03   1.0387E+05  0.000E+00  0.000E+00  0.000E+00  4.79311E+01  1.470E-01  2.000E+01  2.000E+04 -1.201E-01
   1   14    3     1     3    1.0387E+05 -3.9815E+02   1.0427E+05  0.000E+00  0.000E+00  0.000E+00  4.74550E+01  1.482E-01  2.000E+01  2.000E+04 -1.991E-02
   1   15    4     1     4    1.0427E+05 -3.5782E+02   1.0463E+05  0.000E+00  0.000E+00  0.000E+00  4.69780E+01  1.485E-01  2.000E+01  2.000E+04 -1.789E-02
   1   16    5     1     5    1.0463E+05 -1.1230E+03   1.0575E+05  0.000E+00  0.000E+00  0.000E+00  4.65014E+01  1.491E-01  2.000E+01  2.000E+04 -5.615E-02
   1   16    6     1     6    1.0575E+05 -6.7188E+02   1.0643E+05  0.000E+00  0.000E+00  0.000E+00  4.60249E+01  1.499E-01  2.000E+01  2.000E+04 -3.359E-02
   1   16    7     1     7    1.0643E+05 -5.9164E+02   1.0702E+05  0.000E+00  0.000E+00  0.000E+00  4.55481E+01  1.504E-01  2.000E+01  2.000E+04 -2.958E-02
   1   16    8     1     8    1.0702E+05 -4.9222E+02   1.0751E+05  0.000E+00  0.000E+00  0.000E+00  4.50713E+01  1.509E-01  2.000E+01  2.000E+04 -2.461E-02
   1   16    9     1     9    1.0751E+05 -3.5616E+02   1.0787E+05  0.000E+00  0.000E+00  0.000E+00  4.45944E+01  1.512E-01  2.000E+01  2.000E+04 -1.781E-02
   1   16   10     1    10    1.0787E+05 -1.7373E+02   1.0804E+05  0.000E+00  0.000E+00  0.000E+00  4.41174E+01  1.514E-01  2.000E+01  2.000E+04 -8.687E-03
   1   16   11     1    11    1.0804E+05  7.4172E+01   1.0796E+05  0.000E+00  0.000E+00  0.000E+00  4.36401E+01  1.515E-01  2.000E+01  2.000E+04  3.709E-03
   1   16   12     1    12    1.0796E+05  5.5591E+02   1.0741E+05  0.000E+00  0.000E+00  0.000E+00  4.31626E+01  1.512E-01  2.000E+01  2.000E+04  2.780E-02
   1   15   13     1    13    1.0741E+05  1.3271E+02   1.0728E+05  0.000E+00  0.000E+00  0.000E+00  4.26850E+01  1.509E-01  2.000E+01  2.000E+04  6.636E-03
   1   14   14     1    14    1.0728E+05 -3.5851E+02   1.0763E+05  0.000E+00  0.000E+00  0.000E+00  4.22078E+01  1.510E-01  2.000E+01  2.000E+04 -1.793E-02
   1   13   15     1    15    1.0763E+05 -8.5116E+02   1.0849E+05  0.000E+00  0.000E+00  0.000E+00  4.17311E+01  1.515E-01  2.000E+01  2.000E+04 -4.256E-02
   1   12   16     1    16    1.0849E+05 -1.7331E+03   1.1022E+05  0.000E+00  0.000E+00  0.000E+00  4.12549E+01  1.526E-01  2.000E+01  2.000E+04 -8.665E-02
   1   12   17     1    17    1.1022E+05 -9.2743E+02   1.1115E+05  0.000E+00  0.000E+00  0.000E+00  4.07787E+01  1.537E-01  2.000E+01  2.000E+04 -4.637E-02
   1   12   18     1    18    1.1115E+05 -8.5885E+02   1.1201E+05  0.000E+00  0.000E+00  0.000E+00  4.03022E+01  1.545E-01  2.000E+01  2.000E+04 -4.294E-02
   1   12   19     1    19    1.1201E+05 -1.4397E+03   1.1344E+05  0.000E+00  0.000E+00  0.000E+00  3.98259E+01  1.554E-01  2.000E+01  2.000E+04 -7.198E-02
   1   13   20     1    20    1.1344E+05 -1.1982E+02   1.1356E+05  0.000E+00  0.000E+00  0.000E+00  3.93493E+01  1.561E-01  2.000E+01  2.000E+04 -5.991E-03
   1   14   21     1    21    1.1356E+05  2.2184E+03   1.1135E+05  0.000E+00  0.000E+00  0.000E+00  3.88711E+01  1.552E-01  2.000E+01  2.000E+04  1.109E-01
   1   14   22     1    22    1.1135E+05  5.5636E+03   1.0578E+05  0.000E+00  0.000E+00  0.000E+00  3.83906E+01  1.520E-01  2.000E+01  2.000E+04  2.782E-01
   1    9   30     2     1    5.0000E+04 -6.0668E+02   5.0607E+04  0.000E+00  0.000E+00  0.000E+00  4.02413E+01  1.163E-01  2.000E+01  2.000E+04 -3.033E-02
   1    9   29     2     2    5.0607E+04 -8.9717E+02   5.1504E+04  0.000E+00  0.000E+00  0.000E+00  3.99923E+01  1.173E-01  2.000E+01  2.000E+04 -4.486E-02
   1    9   28     2     3    5.1504E+04 -1.1293E+03   5.2633E+04  0.000E+00  0.000E+00  0.000E+00  3.97437E+01  1.187E-01  2.000E+01  2.000E+04 -5.647E-02
   1    9   27     2     4    5.2633E+04 -2.2544E+03   5.4888E+04  0.000E+00  0.000E+00  0.000E+00  3.94960E+01  1.210E-01  2.000E+01  2.000E+04 -1.127E-01
   1   10   26     2     5    5.4888E+04 -1.4905E+03   5.6378E+04  0.000E+00  0.000E+00  0.000E+00  3.92485E+01  1.235E-01  2.000E+01  2.000E+04 -7.452E-02
   1   11   25     2     6    5.6378E+04 -1.2941E+03   5.7672E+04  0.000E+00  0.000E+00  0.000E+00  3.90004E+01  1.254E-01  2.000E+01  2.000E+04 -6.470E-02
   1   12   24     2     7    5.7672E+04 -1.3531E+03   5.9025E+04  0.000E+00  0.000E+00  0.000E+00  3.87521E+01  1.271E-01  2.000E+01  2.000E+04 -6.765E-02
   1   13   23     2     8    5.9025E+04 -2.2927E+02   5.9254E+04  0.000E+00  0.000E+00  0.000E+00  3.85031E+01  1.281E-01  2.000E+01  2.000E+04 -1.146E-02
   1   14   22     2     9    5.9254E+04  2.7812E+03   5.6473E+04  0.000E+00  0.000E+00  0.000E+00  3.82515E+01  1.265E-01  2.000E+01  2.000E+04  1.391E-01
   1   14   22     3     1    1.6226E+05 -7.8811E+03   1.7014E+05  0.000E+00  0.000E+00  0.000E+00  3.77184E+01  1.628E-01  2.000E+01  2.000E+04 -3.941E-01
   1   15   23     3     2    1.7014E+05  1.9598E+02   1.6994E+05  0.000E+00  0.000E+00  0.000E+00  3.68317E+01  1.651E-01  2.000E+01  2.000E+04  9.799E-03
   1   15   24     3     3    1.6994E+05 -1.0982E+02   1.7005E+05  0.000E+00  0.000E+00  0.000E+00  3.59428E+01  1.650E-01  2.000E+01  2.000E+04 -5.491E-03
   1   15   25     3     4    1.7005E+05 -1.7158E+02   1.7022E+05  0.000E+00  0.000E+00  0.000E+00  3.50540E+01  1.651E-01  2.000E+01  2.000E+04 -8.579E-03
   1   15   26     3     5    1.7022E+05 -2.7845E+02   1.7050E+05  0.000E+00  0.000E+00  0.000E+00  3.41652E+01  1.652E-01  2.000E+01  2.000E+04 -1.392E-02
   1   16   27     3     6    1.7050E+05 -2.6738E+02   1.7077E+05  0.000E+00  0.000E+00  0.000E+00  3.32765E+01  1.654E-01  2.000E+01  2.000E+04 -1.337E-02
   1   17   28     3     7    1.7077E+05 -1.1813E+03   1.7195E+05  0.000E+00  0.000E+00  0.000E+00  3.23880E+01  1.658E-01  2.000E+01  2.000E+04 -5.906E-02
   1   18   29     3     8    1.7195E+05 -2.0625E+03   1.7401E+05  0.000E+00  0.000E+00  0.000E+00  3.15001E+01  1.668E-01  2.000E+01  2.000E+04 -1.031E-01
   1   18   30     3     9    1.7401E+05 -2.6840E+03   1.7670E+05  0.000E+00  0.000E+00  0.000E+00  3.06126E+01  1.681E-01  2.000E+01  2.000E+04 -1.342E-01



1
              HEAD IN LAYER   1 AT END OF TIME STEP   1 IN STRESS PERIOD   12
  ---------------------------------------------------------------------------

          1      2      3      4      5      6      7      8      9     10
         11     12     13     14     15     16     17     18     19     20
         21     22     23     24     25     26     27     28     29     30
 .........................................................................
   1  ****** ****** ****** ****** ****** ****** ****** ****** ****** ******
      ****** ****** ****** ****** ****** ****** ****** ****** ****** ******
      ****** ****** ****** ****** ****** ****** ****** ****** ****** ******
   2  ****** ****** ****** ****** ****** ****** ****** ****** ****** ******
      ****** ****** ****** ****** ****** ****** ****** ****** ****** ******
      ****** ****** ****** ****** ****** ****** ****** ****** ****** ******
   3  ****** ****** ****** ****** ****** ****** ****** ****** ****** ******
      ****** ****** ****** ****** ****** ****** ****** ****** ****** ******
      ****** ****** ****** ****** ****** ****** ****** ****** ****** ******
   4  ****** ****** ****** ****** ****** ****** ****** ****** ****** ******
      ****** ****** ****** ****** ****** ****** ****** ****** ****** ******
      ****** ****** ****** ****** ****** ****** ****** ****** ****** ******
   5  ****** ****** ****** ****** ****** ****** ****** ****** ****** ******
      ****** ****** ****** ****** ****** ****** ****** ****** ****** ******
      ****** ****** ****** ****** ****** ****** ****** ****** ****** ******
   6  ****** ****** ****** ****** ****** ****** ****** ****** ****** ******
      ****** ****** ****** ****** ****** ****** ****** ****** ****** ******
      ****** ****** ****** ****** ****** ****** ****** ****** ****** ******
   7  ****** ****** ****** ****** ****** ****** ****** ****** ****** ******
      ****** ****** ****** ****** ****** ****** ****** ****** ****** ******
      ****** ****** ****** ****** ****** ****** ****** ****** ****** ******
   8  ****** ****** ****** ****** ****** ****** ****** ****** ****** ******
      ****** ****** ****** ****** ****** ****** ****** ****** ****** ******
      ****** ****** ****** ****** ****** ****** ****** ****** ****** ******
   9  ****** ****** ****** ****** ****** ****** ****** ****** ****** ******
      ****** ****** ****** ****** ****** ****** ****** ****** ****** ******
      ****** ****** ****** ****** ****** ****** ****** ****** ****** ******
  10  ****** ****** ****** ****** ****** ****** ****** ****** ****** ******
      ****** ****** ****** ****** ****** ****** ****** ****** ****** ******
      ****** ****** ****** ****** ****** ****** ****** ****** ****** ******
  11  ****** ****** ****** ****** ****** ****** ****** ****** ****** ******
      ****** ****** ****** ****** ****** ****** ****** ****** ****** ******
      ****** ****** ****** ****** ****** ****** ****** ****** ****** ******
  12  ****** ****** ****** ****** ****** ****** ****** ****** ****** ******
      ****** ****** ****** ****** ****** ****** ****** ****** ****** ******
      ****** ****** ****** ****** ****** ****** ****** ****** ****** ******
  13  ****** ****** ****** ****** ****** ****** ****** ****** ****** ******
      ****** ****** ****** ****** ****** ****** ****** ****** ****** ******
      ****** ****** ****** ****** ****** ****** ****** ****** ****** ******
  14  ****** ****** ****** ****** ****** ****** ****** ****** ****** ******
      ****** ****** ****** ****** ****** ****** ****** ****** ****** ******
      ****** ****** ****** ****** ****** ****** ****** ****** ****** ******
  15  ****** ****** ****** ****** ****** ****** ****** ****** ****** ******
      ****** ****** ****** ****** ****** ****** ****** ****** ****** ******
      ****** ****** ****** ****** ****** ****** ****** ****** ****** ******
  16  ****** ****** ****** ****** ****** ****** ****** ****** ****** ******
      ****** ****** ****** ****** ****** ****** ****** ****** ****** ******
      ****** ****** ****** ****** ****** ****** ****** ****** ****** ******
  17  ****** ****** ****** ****** ****** ****** ****** ****** ****** ******
      ****** ****** ****** ****** ****** ****** ****** ****** ****** ******
      ****** ****** ****** ****** ****** ****** ****** ****** ****** ******
  18  ****** ****** ****** ****** ****** ****** ****** ****** ****** ******
      ****** ****** ****** ****** ****** ****** ****** ****** ****** ******
      ****** ****** ****** ****** ****** ****** ****** ****** ****** ******
  19  ****** ****** ****** ****** ****** ****** ****** ****** ****** ******
      ****** ****** ****** ****** ****** ****** ****** ****** ****** ******
      ****** ****** ****** ****** ****** ****** ****** ****** ****** ******
  20  ****** ****** ****** ****** ****** ****** ****** ****** ****** ******
      ****** ****** ****** ****** ****** ****** ****** ****** ****** ******
      ****** ****** ****** ****** ****** ****** ****** ****** ****** ******
  21  ****** ****** ****** ****** ****** ****** ****** ****** ****** ******
      ****** ****** ****** ****** ****** ****** ****** ****** ****** ******
      ****** ****** ****** ****** ****** ****** ****** ****** ****** ******
  22  ****** ****** ****** ****** ****** ****** ****** ****** ****** ******
      ****** ****** ****** ****** ****** ****** ****** ****** ****** ******
      ****** ****** ****** ****** ****** ****** ****** ****** ****** ******
  23  ****** ****** ****** ****** ****** ****** ****** ****** ****** ******
      ****** ****** ****** ****** ****** ****** ****** ****** ****** ******
      ****** ****** ****** ****** ****** ****** ****** ****** ****** ******
  24  ****** ****** ****** ****** ****** ****** ****** ****** ****** ******
      ****** ****** ****** ****** ****** ****** ****** ****** ****** ******
      ****** ****** ****** ****** ****** ****** ****** ****** ****** ******
  25  ****** ****** ****** ****** ****** ****** ****** ****** ****** ******
      ****** ****** ****** ****** ****** ****** ****** ****** ****** ******
      ****** ****** ****** ****** ****** ****** ****** ****** ****** ******

 HEAD WILL BE SAVED ON UNIT   51 AT END OF TIME STEP    1, STRESS PERIOD   12
1
  VOLUMETRIC BUDGET FOR ENTIRE MODEL AT END OF TIME STEP    1, STRESS PERIOD  12
  ------------------------------------------------------------------------------

     CUMULATIVE VOLUMES      L**3       RATES FOR THIS TIME STEP      L**3/T
     ------------------                 ------------------------

           IN:                                      IN:
           ---                                      ---
             STORAGE =    37400224.4686               STORAGE =          13.9152
       CONSTANT HEAD =    34822547.1743         CONSTANT HEAD =       37413.2791
               WELLS =           0.0000                 WELLS =           0.0000
            RECHARGE =    26413200.0000              RECHARGE =       27600.0000
      STREAM LEAKAGE =    10964883.5814        STREAM LEAKAGE =       11521.9769

            TOTAL IN =   109600855.2243              TOTAL IN =       76549.1711

          OUT:                                     OUT:
          ----                                     ----
             STORAGE =     2549315.2793               STORAGE =        2975.6874
       CONSTANT HEAD =           0.0000         CONSTANT HEAD =           0.0000
               WELLS =    38714100.9665                 WELLS =       35355.3433
            RECHARGE =           0.0000              RECHARGE =           0.0000
      STREAM LEAKAGE =    68337440.9230        STREAM LEAKAGE =       38218.1394

           TOTAL OUT =   109600857.1688             TOTAL OUT =       76549.1702

            IN - OUT =          -1.9446              IN - OUT =       9.6685E-04

 PERCENT DISCREPANCY =          -0.00     PERCENT DISCREPANCY =           0.00






         TIME SUMMARY AT END OF TIME STEP    1 IN STRESS PERIOD   12
                    SECONDS     MINUTES      HOURS       DAYS        YEARS
                    -----------------------------------------------------------
   TIME STEP LENGTH 7.86240E+06 1.31040E+05  2184.0      91.000     0.24914    
 STRESS PERIOD TIME 7.86240E+06 1.31040E+05  2184.0      91.000     0.24914    
         TOTAL TIME 9.46080E+07 1.57680E+06  26280.      1095.0      2.9979    
1

 Run end date and time (yyyy/mm/dd hh:mm:ss): 2019/02/11 11:59:36
 Elapsed run time:  0.078 Seconds

