                                  MODFLOW-2005     
      U.S. GEOLOGICAL SURVEY MODULAR FINITE-DIFFERENCE GROUND-WATER FLOW MODEL
                            VERSION 1.11.00 8/8/2013

 LIST FILE: supply2.lst
                         UNIT   10

 OPENING ..\data\supply.dis
 FILE TYPE:DIS   UNIT   11   STATUS:OLD    
 FORMAT:FORMATTED              ACCESS:SEQUENTIAL          

 OPENING ..\data\supply.ba6
 FILE TYPE:BAS6   UNIT   12   STATUS:OLD    
 FORMAT:FORMATTED              ACCESS:SEQUENTIAL          

 OPENING ..\data\supply_het.bc6
 FILE TYPE:BCF6   UNIT   13   STATUS:OLD    
 FORMAT:FORMATTED              ACCESS:SEQUENTIAL          

 OPENING ..\data\supply.rch
 FILE TYPE:RCH   UNIT   15   STATUS:OLD    
 FORMAT:FORMATTED              ACCESS:SEQUENTIAL          

 OPENING ..\data\supply2.sfr
 FILE TYPE:SFR   UNIT   16   STATUS:OLD    
 FORMAT:FORMATTED              ACCESS:SEQUENTIAL          

 OPENING ..\data\supply.oc
 FILE TYPE:OC   UNIT   17   STATUS:OLD    
 FORMAT:FORMATTED              ACCESS:SEQUENTIAL          

 OPENING ..\data\supply.pcg
 FILE TYPE:PCG   UNIT   18   STATUS:OLD    
 FORMAT:FORMATTED              ACCESS:SEQUENTIAL          

 OPENING supply2.wel
 FILE TYPE:WEL   UNIT   19   STATUS:OLD    
 FORMAT:FORMATTED              ACCESS:SEQUENTIAL          

 OPENING supply2sf.cbc
 FILE TYPE:DATA(BINARY)   UNIT   50   STATUS:UNKNOWN
 FORMAT:BINARY                 ACCESS:SEQUENTIAL          

 OPENING supply2hd.bhd
 FILE TYPE:DATA(BINARY)   UNIT   51   STATUS:UNKNOWN
 FORMAT:BINARY                 ACCESS:SEQUENTIAL          

 BAS -- BASIC PACKAGE, VERSION 7, 5/2/2005 INPUT READ FROM UNIT   12
 
 MODFLOW was compiled using uniform precision
 Precision of REAL and DOUBLE PRECISION variables:          15

 DISCRETIZATION INPUT DATA READ FROM UNIT   11
    1 LAYERS        25 ROWS        30 COLUMNS
   12 STRESS PERIOD(S) IN SIMULATION
 MODEL TIME UNIT IS DAYS
 MODEL LENGTH UNIT IS UNDEFINED
  Confining bed flag for each layer:
   0

                     DELR =   200.000    

                     DELC =   200.000    

 TOP ELEVATION OF LAYER 1 =  100.0000    

   MODEL LAYER BOTTOM EL. =   0.00000     FOR LAYER   1


 STRESS PERIOD     LENGTH       TIME STEPS     MULTIPLIER FOR DELT    SS FLAG
 ----------------------------------------------------------------------------
        1         92.00000          1                    1.500         TR
        2         91.00000          1                    1.500         TR
        3         91.00000          1                    1.500         TR
        4         91.00000          1                    1.500         TR
        5         92.00000          1                    1.500         TR
        6         91.00000          1                    1.500         TR
        7         91.00000          1                    1.500         TR
        8         91.00000          1                    1.500         TR
        9         92.00000          1                    1.500         TR
       10         91.00000          1                    1.500         TR
       11         91.00000          1                    1.500         TR
       12         91.00000          1                    1.500         TR

 TRANSIENT SIMULATION



 
 #MODOFC transient water supply sample problem                                   
 #                                                                               
 THE FREE FORMAT OPTION HAS BEEN SELECTED



                     BOUNDARY ARRAY FOR LAYER   1
 READING ON UNIT   12 WITH FORMAT: (20I4)              

 AQUIFER HEAD WILL BE SET TO   0.0000     AT ALL NO-FLOW NODES (IBOUND=0).



                       INITIAL HEAD FOR LAYER   1
 READING ON UNIT   12 WITH FORMAT: (10F13.0)           

 OUTPUT CONTROL IS SPECIFIED ONLY AT TIME STEPS FOR WHICH OUTPUT IS DESIRED
 COMPACT CELL-BY-CELL BUDGET FILES WILL BE WRITTEN
 HEAD PRINT FORMAT CODE IS  18    DRAWDOWN PRINT FORMAT CODE IS   0
 HEADS WILL BE SAVED ON UNIT   51    DRAWDOWNS WILL BE SAVED ON UNIT    0

 BCF -- BLOCK-CENTERED FLOW PACKAGE, VERSION 7, 5/2/2005
         INPUT READ FROM UNIT 13
 TRANSIENT SIMULATION
 HEAD AT CELLS THAT CONVERT TO DRY=   0.0000    
 WETTING CAPABILITY IS NOT ACTIVE
      LAYER  LAYER-TYPE CODE     INTERBLOCK T
      --------------------------------------------
         1            0          0 -- HARMONIC    

 COLUMN TO ROW ANISOTROPY =  1.000000    

     PRIMARY STORAGE COEF =  5.000000E-02 FOR LAYER   1



               TRANSMIS. ALONG ROWS FOR LAYER   1
 READING ON UNIT   13 WITH FORMAT: (FREE)              

 WEL -- WELL PACKAGE, VERSION 7, 5/2/2005 INPUT READ FROM UNIT   19
 # Well package input file written by MMProc
 No named parameters
 MAXIMUM OF      4 ACTIVE WELLS AT ONE TIME


     0 Well parameters

 RCH -- RECHARGE PACKAGE, VERSION 7, 5/2/2005 INPUT READ FROM UNIT   15
 No named parameters
 OPTION 1 -- RECHARGE TO TOP LAYER


     0 Recharge parameters

 SFR7 -- STREAMFLOW ROUTING PACKAGE, VERSION 1.0.7, 2013-01-15
         INPUT READ FROM UNIT  16
 #  Supply2 test problem for GWM-VI
 #  The eighth entry in the first data line is ISTCB2 -
 #    Setting this to a negative number indicates that
 #    streamflows out of the reach will be saved to a
 #    binary file.  The absolute value of ISTCB2 is the
 #    unit to which unformatted flows will be written.
 #
 No named parameters
 Segment information will not be 
 read by reach
 No named parameters
 No specifed inflow files


 NUMBER OF STREAM REACHES IS   40

 NUMBER OF STREAM SEGMENTS IS    3

 NUMBER OF STREAM PARAMETERS IS    0

 NUMBER OF STREAM SEGMENTS DEFINED USING PARAMETERS IS              0

 MAXIMUM ERROR FOR STREAM LEAKAGE RATES IS  1.00E-04

 CONSTANT FOR MANNINGS EQUATION IS  1.2839E+05





   STREAM NETWORK DESCRIPTION: 

   LAYER    ROW    COL   SEGMENT   REACH     LENGTH
                          NUMBER   NUMBER    IN CELL        
   --------------------------------------------------
      1     13      1       1        1    2.0000E+02
      1     13      2       1        2    2.0000E+02
      1     14      3       1        3    2.0000E+02
      1     15      4       1        4    2.0000E+02
      1     16      5       1        5    2.0000E+02
      1     16      6       1        6    2.0000E+02
      1     16      7       1        7    2.0000E+02
      1     16      8       1        8    2.0000E+02
      1     16      9       1        9    2.0000E+02
      1     16     10       1       10    2.0000E+02
      1     16     11       1       11    2.0000E+02
      1     16     12       1       12    2.0000E+02
      1     15     13       1       13    2.0000E+02
      1     14     14       1       14    2.0000E+02
      1     13     15       1       15    2.0000E+02
      1     12     16       1       16    2.0000E+02
      1     12     17       1       17    2.0000E+02
      1     12     18       1       18    2.0000E+02
      1     12     19       1       19    2.0000E+02
      1     13     20       1       20    2.0000E+02
      1     14     21       1       21    2.0000E+02
      1     14     22       1       22    2.0000E+02
      1      9     30       2        1    2.0000E+02
      1      9     29       2        2    2.0000E+02
      1      9     28       2        3    2.0000E+02
      1      9     27       2        4    2.0000E+02
      1     10     26       2        5    2.0000E+02
      1     11     25       2        6    2.0000E+02
      1     12     24       2        7    2.0000E+02
      1     13     23       2        8    2.0000E+02
      1     14     22       2        9    2.0000E+02
      1     14     22       3        1    2.0000E+02
      1     15     23       3        2    2.0000E+02
      1     15     24       3        3    2.0000E+02
      1     15     25       3        4    2.0000E+02
      1     15     26       3        5    2.0000E+02
      1     16     27       3        6    2.0000E+02
      1     17     28       3        7    2.0000E+02
      1     18     29       3        8    2.0000E+02
      1     18     30       3        9    2.0000E+02




 PCG -- CONJUGATE-GRADIENT SOLUTION PACKAGE, VERSION 7, 5/2/2005
 MAXIMUM OF    500 CALLS OF SOLUTION ROUTINE
 MAXIMUM OF      5 INTERNAL ITERATIONS PER CALL TO SOLUTION ROUTINE
 MATRIX PRECONDITIONING TYPE :    1



                                    SOLUTION BY THE CONJUGATE-GRADIENT METHOD
                                   -------------------------------------------
                    MAXIMUM NUMBER OF CALLS TO PCG ROUTINE =      500
                        MAXIMUM ITERATIONS PER CALL TO PCG =        5
                               MATRIX PRECONDITIONING TYPE =        1
        RELAXATION FACTOR (ONLY USED WITH PRECOND. TYPE 1) =    0.10000E+01
 PARAMETER OF POLYNOMIAL PRECOND. = 2 (2) OR IS CALCULATED :        0
                         HEAD CHANGE CRITERION FOR CLOSURE =    0.10000E-05
                     RESIDUAL CHANGE CRITERION FOR CLOSURE =    0.10000E+01
            PCG HEAD AND RESIDUAL CHANGE PRINTOUT INTERVAL =        1
     PRINTING FROM SOLVER IS LIMITED(1) OR SUPPRESSED (>1) =        1
                            STEADY-STATE DAMPING PARAMETER =    0.10000E+01
                               TRANSIENT DAMPING PARAMETER =    0.10000E+01
1
                            STRESS PERIOD NO.    1, LENGTH =   92.00000    
                            -----------------------------------------------

                              NUMBER OF TIME STEPS =     1

                               MULTIPLIER FOR DELT =     1.500

                            INITIAL TIME STEP SIZE =   92.00000    

 WELL NO.  LAYER   ROW   COL   STRESS RATE         
 --------------------------------------------------
      1      1     20     17     -0.1195E+05
      2      1     18     14      -7709.    
      3      1      9      3      -2375.    
      4      1     21     12      -6598.    

      4 WELLS

                 RECHARGE =  5.000000E-04



 CLASSIFICATION & COUNT OF STREAM SEGMENTS BASED ON SOURCE OF INFLOW:

                HEADWATER     DIVERSION     RECEIVES TRIBUTARY FLOW
                ---------     ---------     -----------------------
                     2              0               1



                    INPUT DATA FOR EACH STREAM SEGMENT
 ---------------------------------------------------------------------------------------------

 SEGMENT    SEG.     INFLOW   OVERLAND   STREAM    STREAM   ICALC  OUTFLOW  DIVERSION PRIORITY
    NO.    LENGTH     RATE     RUNOFF      ET       PPT.    METH.  TO SEG.  FROM SEG.    NO.

      1  4.400E+03 1.000E+05 0.000E+00 0.000E+00 0.000E+00    1        3        0        0
      2  1.800E+03 5.000E+04 0.000E+00 0.000E+00 0.000E+00    1        3        0        0
      3  1.800E+03 0.000E+00 0.000E+00 0.000E+00 0.000E+00    1        0        0        0


         STREAMBED PROPERTIES AND STREAM DIMENSIONS

 SEGMENT     BED HYD. COND.      BED THICKNESS     ELEV.-TOP OF BED     WIDTH OF STREAM     DEPTH OF STREAM    STREAM ROUGHNESS
    No.     UPPER     LOWER     UPPER     LOWER     UPPER     LOWER     UPPER     LOWER     UPPER     LOWER   CHANNEL      BANK

     1  5.000E+00 5.000E+00 1.000E+00 1.000E+00 4.850E+01 3.800E+01 2.000E+01 2.000E+01                     5.000E-02
     2  5.000E+00 5.000E+00 1.000E+00 1.000E+00 4.025E+01 3.800E+01 2.000E+01 2.000E+01                     5.000E-02
     3  5.000E+00 5.000E+00 1.000E+00 1.000E+00 3.800E+01 3.000E+01 2.000E+01 2.000E+01                     5.000E-02



 
 SOLVING FOR HEAD 


     9 CALLS TO PCG ROUTINE FOR TIME STEP   1 IN STRESS PERIOD    1
    36 TOTAL ITERATIONS

 OUTPUT CONTROL FOR STRESS PERIOD    1   TIME STEP    1
    SAVE BUDGET
    SAVE HEAD FOR ALL LAYERS
    PRINT HEAD FOR ALL LAYERS
 UBDSV2 SAVING "STREAMFLOW OUT  " ON UNIT  50 AT TIME STEP  1, STRESS PERIOD   1



 STREAM LISTING     PERIOD      1   STEP        1

 LAYER ROW COL. STREAM  RCH.  FLOW INTO     FLOW TO   FLOW OUT OF   OVRLND.     DIRECT     STREAM       STREAM     STREAM     STREAM   STREAMBED  STREAMBED
                SEG.NO.  NO.  STRM. RCH.    AQUIFER    STRM. RCH.    RUNOFF     PRECIP       ET          HEAD       DEPTH      WIDTH   CONDCTNC.   GRADIENT

   1   13    1     1     1    1.0000E+05 -5.8828E+03   1.0588E+05  0.000E+00  0.000E+00  0.000E+00  4.84086E+01  1.472E-01  2.000E+01  2.000E+04 -2.941E-01
   1   13    2     1     2    1.0588E+05 -7.3373E+03   1.1322E+05  0.000E+00  0.000E+00  0.000E+00  4.79369E+01  1.528E-01  2.000E+01  2.000E+04 -3.669E-01
   1   14    3     1     3    1.1322E+05 -2.1815E+03   1.1540E+05  0.000E+00  0.000E+00  0.000E+00  4.74636E+01  1.567E-01  2.000E+01  2.000E+04 -1.091E-01
   1   15    4     1     4    1.1540E+05 -2.2509E+03   1.1765E+05  0.000E+00  0.000E+00  0.000E+00  4.69881E+01  1.586E-01  2.000E+01  2.000E+04 -1.125E-01
   1   16    5     1     5    1.1765E+05 -6.9954E+03   1.2465E+05  0.000E+00  0.000E+00  0.000E+00  4.65146E+01  1.623E-01  2.000E+01  2.000E+04 -3.498E-01
   1   16    6     1     6    1.2465E+05 -4.1400E+03   1.2879E+05  0.000E+00  0.000E+00  0.000E+00  4.60417E+01  1.667E-01  2.000E+01  2.000E+04 -2.070E-01
   1   16    7     1     7    1.2879E+05 -3.9210E+03   1.3271E+05  0.000E+00  0.000E+00  0.000E+00  4.55676E+01  1.699E-01  2.000E+01  2.000E+04 -1.960E-01
   1   16    8     1     8    1.3271E+05 -3.7984E+03   1.3651E+05  0.000E+00  0.000E+00  0.000E+00  4.50933E+01  1.729E-01  2.000E+01  2.000E+04 -1.899E-01
   1   16    9     1     9    1.3651E+05 -3.6703E+03   1.4018E+05  0.000E+00  0.000E+00  0.000E+00  4.46189E+01  1.758E-01  2.000E+01  2.000E+04 -1.835E-01
   1   16   10     1    10    1.4018E+05 -3.4980E+03   1.4368E+05  0.000E+00  0.000E+00  0.000E+00  4.41444E+01  1.785E-01  2.000E+01  2.000E+04 -1.749E-01
   1   16   11     1    11    1.4368E+05 -3.2620E+03   1.4694E+05  0.000E+00  0.000E+00  0.000E+00  4.36696E+01  1.810E-01  2.000E+01  2.000E+04 -1.631E-01
   1   16   12     1    12    1.4694E+05 -4.9718E+03   1.5191E+05  0.000E+00  0.000E+00  0.000E+00  4.31954E+01  1.841E-01  2.000E+01  2.000E+04 -2.486E-01
   1   15   13     1    13    1.5191E+05 -5.9068E+03   1.5782E+05  0.000E+00  0.000E+00  0.000E+00  4.27221E+01  1.881E-01  2.000E+01  2.000E+04 -2.953E-01
   1   14   14     1    14    1.5782E+05 -6.9217E+03   1.6474E+05  0.000E+00  0.000E+00  0.000E+00  4.22495E+01  1.927E-01  2.000E+01  2.000E+04 -3.461E-01
   1   13   15     1    15    1.6474E+05 -7.6710E+03   1.7241E+05  0.000E+00  0.000E+00  0.000E+00  4.17774E+01  1.979E-01  2.000E+01  2.000E+04 -3.836E-01
   1   12   16     1    16    1.7241E+05 -8.6909E+03   1.8110E+05  0.000E+00  0.000E+00  0.000E+00  4.13059E+01  2.036E-01  2.000E+01  2.000E+04 -4.345E-01
   1   12   17     1    17    1.8110E+05 -6.0860E+03   1.8719E+05  0.000E+00  0.000E+00  0.000E+00  4.08336E+01  2.086E-01  2.000E+01  2.000E+04 -3.043E-01
   1   12   18     1    18    1.8719E+05 -5.9483E+03   1.9313E+05  0.000E+00  0.000E+00  0.000E+00  4.03604E+01  2.127E-01  2.000E+01  2.000E+04 -2.974E-01
   1   12   19     1    19    1.9313E+05 -7.6153E+03   2.0075E+05  0.000E+00  0.000E+00  0.000E+00  3.98877E+01  2.172E-01  2.000E+01  2.000E+04 -3.808E-01
   1   13   20     1    20    2.0075E+05 -6.4740E+03   2.0722E+05  0.000E+00  0.000E+00  0.000E+00  3.94150E+01  2.219E-01  2.000E+01  2.000E+04 -3.237E-01
   1   14   21     1    21    2.0722E+05 -5.8138E+03   2.1304E+05  0.000E+00  0.000E+00  0.000E+00  3.89418E+01  2.258E-01  2.000E+01  2.000E+04 -2.907E-01
   1   14   22     1    22    2.1304E+05  3.6994E+03   2.0934E+05  0.000E+00  0.000E+00  0.000E+00  3.84652E+01  2.265E-01  2.000E+01  2.000E+04  1.850E-01
   1    9   30     2     1    5.0000E+04 -4.8595E+03   5.4859E+04  0.000E+00  0.000E+00  0.000E+00  4.02442E+01  1.192E-01  2.000E+01  2.000E+04 -2.430E-01
   1    9   29     2     2    5.4859E+04 -5.1556E+03   6.0015E+04  0.000E+00  0.000E+00  0.000E+00  4.00009E+01  1.259E-01  2.000E+01  2.000E+04 -2.578E-01
   1    9   28     2     3    6.0015E+04 -5.4425E+03   6.5458E+04  0.000E+00  0.000E+00  0.000E+00  3.97578E+01  1.328E-01  2.000E+01  2.000E+04 -2.721E-01
   1    9   27     2     4    6.5458E+04 -8.3093E+03   7.3767E+04  0.000E+00  0.000E+00  0.000E+00  3.95163E+01  1.413E-01  2.000E+01  2.000E+04 -4.155E-01
   1   10   26     2     5    7.3767E+04 -7.3497E+03   8.1117E+04  0.000E+00  0.000E+00  0.000E+00  3.92756E+01  1.506E-01  2.000E+01  2.000E+04 -3.675E-01
   1   11   25     2     6    8.1117E+04 -6.8078E+03   8.7924E+04  0.000E+00  0.000E+00  0.000E+00  3.90338E+01  1.588E-01  2.000E+01  2.000E+04 -3.404E-01
   1   12   24     2     7    8.7924E+04 -6.3228E+03   9.4247E+04  0.000E+00  0.000E+00  0.000E+00  3.87911E+01  1.661E-01  2.000E+01  2.000E+04 -3.161E-01
   1   13   23     2     8    9.4247E+04 -1.6556E+03   9.5903E+04  0.000E+00  0.000E+00  0.000E+00  3.85454E+01  1.704E-01  2.000E+01  2.000E+04 -8.278E-02
   1   14   22     2     9    9.5903E+04  3.1797E+02   9.5585E+04  0.000E+00  0.000E+00  0.000E+00  3.82961E+01  1.711E-01  2.000E+01  2.000E+04  1.590E-02
   1   14   22     3     1    3.0492E+05 -9.7615E+03   3.1468E+05  0.000E+00  0.000E+00  0.000E+00  3.77921E+01  2.366E-01  2.000E+01  2.000E+04 -4.881E-01
   1   15   23     3     2    3.1468E+05 -1.8904E+03   3.1657E+05  0.000E+00  0.000E+00  0.000E+00  3.69059E+01  2.392E-01  2.000E+01  2.000E+04 -9.452E-02
   1   15   24     3     3    3.1657E+05 -1.5125E+03   3.1809E+05  0.000E+00  0.000E+00  0.000E+00  3.60178E+01  2.400E-01  2.000E+01  2.000E+04 -7.562E-02
   1   15   25     3     4    3.1809E+05 -1.5710E+03   3.1966E+05  0.000E+00  0.000E+00  0.000E+00  3.51296E+01  2.407E-01  2.000E+01  2.000E+04 -7.855E-02
   1   15   26     3     5    3.1966E+05 -1.8791E+03   3.2154E+05  0.000E+00  0.000E+00  0.000E+00  3.42415E+01  2.415E-01  2.000E+01  2.000E+04 -9.395E-02
   1   16   27     3     6    3.2154E+05 -2.1574E+03   3.2369E+05  0.000E+00  0.000E+00  0.000E+00  3.33535E+01  2.424E-01  2.000E+01  2.000E+04 -1.079E-01
   1   17   28     3     7    3.2369E+05 -6.5411E+03   3.3024E+05  0.000E+00  0.000E+00  0.000E+00  3.24666E+01  2.443E-01  2.000E+01  2.000E+04 -3.271E-01
   1   18   29     3     8    3.3024E+05 -7.8996E+03   3.3814E+05  0.000E+00  0.000E+00  0.000E+00  3.15809E+01  2.476E-01  2.000E+01  2.000E+04 -3.950E-01
   1   18   30     3     9    3.3814E+05 -7.1204E+03   3.4526E+05  0.000E+00  0.000E+00  0.000E+00  3.06953E+01  2.509E-01  2.000E+01  2.000E+04 -3.560E-01



1
              HEAD IN LAYER   1 AT END OF TIME STEP   1 IN STRESS PERIOD    1
  ---------------------------------------------------------------------------

          1      2      3      4      5      6      7      8      9     10
         11     12     13     14     15     16     17     18     19     20
         21     22     23     24     25     26     27     28     29     30
 .........................................................................
   1  ****** ****** ****** ****** ****** ****** ****** ****** ****** ******
      ****** ****** ****** ****** ****** ****** ****** ****** ****** ******
      ****** ****** ****** ****** ****** ****** ****** ****** ****** ******
   2  ****** ****** ****** ****** ****** ****** ****** ****** ****** ******
      ****** ****** ****** ****** ****** ****** ****** ****** ****** ******
      ****** ****** ****** ****** ****** ****** ****** ****** ****** ******
   3  ****** ****** ****** ****** ****** ****** ****** ****** ****** ******
      ****** ****** ****** ****** ****** ****** ****** ****** ****** ******
      ****** ****** ****** ****** ****** ****** ****** ****** ****** ******
   4  ****** ****** ****** ****** ****** ****** ****** ****** ****** ******
      ****** ****** ****** ****** ****** ****** ****** ****** ****** ******
      ****** ****** ****** ****** ****** ****** ****** ****** ****** ******
   5  ****** ****** ****** ****** ****** ****** ****** ****** ****** ******
      ****** ****** ****** ****** ****** ****** ****** ****** ****** ******
      ****** ****** ****** ****** ****** ****** ****** ****** ****** ******
   6  ****** ****** ****** ****** ****** ****** ****** ****** ****** ******
      ****** ****** ****** ****** ****** ****** ****** ****** ****** ******
      ****** ****** ****** ****** ****** ****** ****** ****** ****** ******
   7  ****** ****** ****** ****** ****** ****** ****** ****** ****** ******
      ****** ****** ****** ****** ****** ****** ****** ****** ****** ******
      ****** ****** ****** ****** ****** ****** ****** ****** ****** ******
   8  ****** ****** ****** ****** ****** ****** ****** ****** ****** ******
      ****** ****** ****** ****** ****** ****** ****** ****** ****** ******
      ****** ****** ****** ****** ****** ****** ****** ****** ****** ******
   9  ****** ****** ****** ****** ****** ****** ****** ****** ****** ******
      ****** ****** ****** ****** ****** ****** ****** ****** ****** ******
      ****** ****** ****** ****** ****** ****** ****** ****** ****** ******
  10  ****** ****** ****** ****** ****** ****** ****** ****** ****** ******
      ****** ****** ****** ****** ****** ****** ****** ****** ****** ******
      ****** ****** ****** ****** ****** ****** ****** ****** ****** ******
  11  ****** ****** ****** ****** ****** ****** ****** ****** ****** ******
      ****** ****** ****** ****** ****** ****** ****** ****** ****** ******
      ****** ****** ****** ****** ****** ****** ****** ****** ****** ******
  12  ****** ****** ****** ****** ****** ****** ****** ****** ****** ******
      ****** ****** ****** ****** ****** ****** ****** ****** ****** ******
      ****** ****** ****** ****** ****** ****** ****** ****** ****** ******
  13  ****** ****** ****** ****** ****** ****** ****** ****** ****** ******
      ****** ****** ****** ****** ****** ****** ****** ****** ****** ******
      ****** ****** ****** ****** ****** ****** ****** ****** ****** ******
  14  ****** ****** ****** ****** ****** ****** ****** ****** ****** ******
      ****** ****** ****** ****** ****** ****** ****** ****** ****** ******
      ****** ****** ****** ****** ****** ****** ****** ****** ****** ******
  15  ****** ****** ****** ****** ****** ****** ****** ****** ****** ******
      ****** ****** ****** ****** ****** ****** ****** ****** ****** ******
      ****** ****** ****** ****** ****** ****** ****** ****** ****** ******
  16  ****** ****** ****** ****** ****** ****** ****** ****** ****** ******
      ****** ****** ****** ****** ****** ****** ****** ****** ****** ******
      ****** ****** ****** ****** ****** ****** ****** ****** ****** ******
  17  ****** ****** ****** ****** ****** ****** ****** ****** ****** ******
      ****** ****** ****** ****** ****** ****** ****** ****** ****** ******
      ****** ****** ****** ****** ****** ****** ****** ****** ****** ******
  18  ****** ****** ****** ****** ****** ****** ****** ****** ****** ******
      ****** ****** ****** ****** ****** ****** ****** ****** ****** ******
      ****** ****** ****** ****** ****** ****** ****** ****** ****** ******
  19  ****** ****** ****** ****** ****** ****** ****** ****** ****** ******
      ****** ****** ****** ****** ****** ****** ****** ****** ****** ******
      ****** ****** ****** ****** ****** ****** ****** ****** ****** ******
  20  ****** ****** ****** ****** ****** ****** ****** ****** ****** ******
      ****** ****** ****** ****** ****** ****** ****** ****** ****** ******
      ****** ****** ****** ****** ****** ****** ****** ****** ****** ******
  21  ****** ****** ****** ****** ****** ****** ****** ****** ****** ******
      ****** ****** ****** ****** ****** ****** ****** ****** ****** ******
      ****** ****** ****** ****** ****** ****** ****** ****** ****** ******
  22  ****** ****** ****** ****** ****** ****** ****** ****** ****** ******
      ****** ****** ****** ****** ****** ****** ****** ****** ****** ******
      ****** ****** ****** ****** ****** ****** ****** ****** ****** ******
  23  ****** ****** ****** ****** ****** ****** ****** ****** ****** ******
      ****** ****** ****** ****** ****** ****** ****** ****** ****** ******
      ****** ****** ****** ****** ****** ****** ****** ****** ****** ******
  24  ****** ****** ****** ****** ****** ****** ****** ****** ****** ******
      ****** ****** ****** ****** ****** ****** ****** ****** ****** ******
      ****** ****** ****** ****** ****** ****** ****** ****** ****** ******
  25  ****** ****** ****** ****** ****** ****** ****** ****** ****** ******
      ****** ****** ****** ****** ****** ****** ****** ****** ****** ******
      ****** ****** ****** ****** ****** ****** ****** ****** ****** ******

 HEAD WILL BE SAVED ON UNIT   51 AT END OF TIME STEP    1, STRESS PERIOD    1
1
  VOLUMETRIC BUDGET FOR ENTIRE MODEL AT END OF TIME STEP    1, STRESS PERIOD   1
  ------------------------------------------------------------------------------

     CUMULATIVE VOLUMES      L**3       RATES FOR THIS TIME STEP      L**3/T
     ------------------                 ------------------------

           IN:                                      IN:
           ---                                      ---
             STORAGE =    18117437.3377               STORAGE =      196928.6667
       CONSTANT HEAD =     1210302.2520         CONSTANT HEAD =       13155.4593
               WELLS =           0.0000                 WELLS =           0.0000
            RECHARGE =     1269600.0000              RECHARGE =       13800.0000
      STREAM LEAKAGE =      369596.3227        STREAM LEAKAGE =        4017.3513

            TOTAL IN =    20966935.9124              TOTAL IN =      227901.4773

          OUT:                                     OUT:
          ----                                     ----
             STORAGE =           0.0000               STORAGE =           0.0000
       CONSTANT HEAD =           0.0000         CONSTANT HEAD =           0.0000
               WELLS =     2633820.0474                 WELLS =       28628.4788
            RECHARGE =           0.0000              RECHARGE =           0.0000
      STREAM LEAKAGE =    18333116.1538        STREAM LEAKAGE =      199273.0017

           TOTAL OUT =    20966936.2012             TOTAL OUT =      227901.4804

            IN - OUT =          -0.2889              IN - OUT =      -3.1397E-03

 PERCENT DISCREPANCY =          -0.00     PERCENT DISCREPANCY =          -0.00






         TIME SUMMARY AT END OF TIME STEP    1 IN STRESS PERIOD    1
                    SECONDS     MINUTES      HOURS       DAYS        YEARS
                    -----------------------------------------------------------
   TIME STEP LENGTH 7.94880E+06 1.32480E+05  2208.0      92.000     0.25188    
 STRESS PERIOD TIME 7.94880E+06 1.32480E+05  2208.0      92.000     0.25188    
         TOTAL TIME 7.94880E+06 1.32480E+05  2208.0      92.000     0.25188    
1
1
                            STRESS PERIOD NO.    2, LENGTH =   91.00000    
                            -----------------------------------------------

                              NUMBER OF TIME STEPS =     1

                               MULTIPLIER FOR DELT =     1.500

                            INITIAL TIME STEP SIZE =   91.00000    

 WELL NO.  LAYER   ROW   COL   STRESS RATE         
 --------------------------------------------------
      1      1     20     17     -0.1195E+05
      2      1     18     14      -7709.    
      3      1      9      3      -2375.    
      4      1     21     12      -6598.    

      4 WELLS

                 RECHARGE =  2.000000E-03

 REUSING STREAM SEGMENT DATA FROM LAST STRESS PERIOD
 
 SOLVING FOR HEAD 


     7 CALLS TO PCG ROUTINE FOR TIME STEP   1 IN STRESS PERIOD    2
    27 TOTAL ITERATIONS

 OUTPUT CONTROL FOR STRESS PERIOD    2   TIME STEP    1
    SAVE BUDGET
    SAVE HEAD FOR ALL LAYERS
    PRINT HEAD FOR ALL LAYERS
 UBDSV2 SAVING "STREAMFLOW OUT  " ON UNIT  50 AT TIME STEP  1, STRESS PERIOD   2



 STREAM LISTING     PERIOD      2   STEP        1

 LAYER ROW COL. STREAM  RCH.  FLOW INTO     FLOW TO   FLOW OUT OF   OVRLND.     DIRECT     STREAM       STREAM     STREAM     STREAM   STREAMBED  STREAMBED
                SEG.NO.  NO.  STRM. RCH.    AQUIFER    STRM. RCH.    RUNOFF     PRECIP       ET          HEAD       DEPTH      WIDTH   CONDCTNC.   GRADIENT

   1   13    1     1     1    1.0000E+05 -3.6221E+03   1.0362E+05  0.000E+00  0.000E+00  0.000E+00  4.84076E+01  1.462E-01  2.000E+01  2.000E+04 -1.811E-01
   1   13    2     1     2    1.0362E+05 -4.8580E+03   1.0848E+05  0.000E+00  0.000E+00  0.000E+00  4.79339E+01  1.498E-01  2.000E+01  2.000E+04 -2.429E-01
   1   14    3     1     3    1.0848E+05 -1.0796E+03   1.0956E+05  0.000E+00  0.000E+00  0.000E+00  4.74592E+01  1.523E-01  2.000E+01  2.000E+04 -5.398E-02
   1   15    4     1     4    1.0956E+05 -1.1025E+03   1.1066E+05  0.000E+00  0.000E+00  0.000E+00  4.69828E+01  1.533E-01  2.000E+01  2.000E+04 -5.513E-02
   1   16    5     1     5    1.1066E+05 -3.8845E+03   1.1455E+05  0.000E+00  0.000E+00  0.000E+00  4.65076E+01  1.553E-01  2.000E+01  2.000E+04 -1.942E-01
   1   16    6     1     6    1.1455E+05 -2.2146E+03   1.1676E+05  0.000E+00  0.000E+00  0.000E+00  4.60328E+01  1.578E-01  2.000E+01  2.000E+04 -1.107E-01
   1   16    7     1     7    1.1676E+05 -2.0437E+03   1.1881E+05  0.000E+00  0.000E+00  0.000E+00  4.55573E+01  1.596E-01  2.000E+01  2.000E+04 -1.022E-01
   1   16    8     1     8    1.1881E+05 -1.8987E+03   1.2070E+05  0.000E+00  0.000E+00  0.000E+00  4.50816E+01  1.612E-01  2.000E+01  2.000E+04 -9.493E-02
   1   16    9     1     9    1.2070E+05 -1.7161E+03   1.2242E+05  0.000E+00  0.000E+00  0.000E+00  4.46058E+01  1.626E-01  2.000E+01  2.000E+04 -8.580E-02
   1   16   10     1    10    1.2242E+05 -1.4652E+03   1.2389E+05  0.000E+00  0.000E+00  0.000E+00  4.41298E+01  1.639E-01  2.000E+01  2.000E+04 -7.326E-02
   1   16   11     1    11    1.2389E+05 -1.1184E+03   1.2500E+05  0.000E+00  0.000E+00  0.000E+00  4.36536E+01  1.649E-01  2.000E+01  2.000E+04 -5.592E-02
   1   16   12     1    12    1.2500E+05 -1.3503E+03   1.2635E+05  0.000E+00  0.000E+00  0.000E+00  4.31773E+01  1.659E-01  2.000E+01  2.000E+04 -6.751E-02
   1   15   13     1    13    1.2635E+05 -2.1707E+03   1.2852E+05  0.000E+00  0.000E+00  0.000E+00  4.27014E+01  1.673E-01  2.000E+01  2.000E+04 -1.085E-01
   1   14   14     1    14    1.2852E+05 -3.2183E+03   1.3174E+05  0.000E+00  0.000E+00  0.000E+00  4.22262E+01  1.694E-01  2.000E+01  2.000E+04 -1.609E-01
   1   13   15     1    15    1.3174E+05 -4.1174E+03   1.3586E+05  0.000E+00  0.000E+00  0.000E+00  4.17518E+01  1.723E-01  2.000E+01  2.000E+04 -2.059E-01
   1   12   16     1    16    1.3586E+05 -5.5179E+03   1.4138E+05  0.000E+00  0.000E+00  0.000E+00  4.12782E+01  1.760E-01  2.000E+01  2.000E+04 -2.759E-01
   1   12   17     1    17    1.4138E+05 -3.5115E+03   1.4489E+05  0.000E+00  0.000E+00  0.000E+00  4.08044E+01  1.794E-01  2.000E+01  2.000E+04 -1.756E-01
   1   12   18     1    18    1.4489E+05 -3.3731E+03   1.4826E+05  0.000E+00  0.000E+00  0.000E+00  4.03297E+01  1.820E-01  2.000E+01  2.000E+04 -1.687E-01
   1   12   19     1    19    1.4826E+05 -4.4805E+03   1.5274E+05  0.000E+00  0.000E+00  0.000E+00  3.98553E+01  1.849E-01  2.000E+01  2.000E+04 -2.240E-01
   1   13   20     1    20    1.5274E+05 -3.1728E+03   1.5592E+05  0.000E+00  0.000E+00  0.000E+00  3.93809E+01  1.877E-01  2.000E+01  2.000E+04 -1.586E-01
   1   14   21     1    21    1.5592E+05 -2.7107E+03   1.5863E+05  0.000E+00  0.000E+00  0.000E+00  3.89057E+01  1.898E-01  2.000E+01  2.000E+04 -1.355E-01
   1   14   22     1    22    1.5863E+05  4.4906E+03   1.5414E+05  0.000E+00  0.000E+00  0.000E+00  3.84278E+01  1.892E-01  2.000E+01  2.000E+04  2.245E-01
   1    9   30     2     1    5.0000E+04 -2.1590E+03   5.2159E+04  0.000E+00  0.000E+00  0.000E+00  4.02424E+01  1.174E-01  2.000E+01  2.000E+04 -1.079E-01
   1    9   29     2     2    5.2159E+04 -2.4704E+03   5.4629E+04  0.000E+00  0.000E+00  0.000E+00  3.99955E+01  1.205E-01  2.000E+01  2.000E+04 -1.235E-01
   1    9   28     2     3    5.4629E+04 -2.7790E+03   5.7408E+04  0.000E+00  0.000E+00  0.000E+00  3.97490E+01  1.240E-01  2.000E+01  2.000E+04 -1.390E-01
   1    9   27     2     4    5.7408E+04 -4.9022E+03   6.2311E+04  0.000E+00  0.000E+00  0.000E+00  3.95041E+01  1.291E-01  2.000E+01  2.000E+04 -2.451E-01
   1   10   26     2     5    6.2311E+04 -3.8021E+03   6.6113E+04  0.000E+00  0.000E+00  0.000E+00  3.92596E+01  1.346E-01  2.000E+01  2.000E+04 -1.901E-01
   1   11   25     2     6    6.6113E+04 -3.4166E+03   6.9529E+04  0.000E+00  0.000E+00  0.000E+00  3.90141E+01  1.391E-01  2.000E+01  2.000E+04 -1.708E-01
   1   12   24     2     7    6.9529E+04 -3.2869E+03   7.2816E+04  0.000E+00  0.000E+00  0.000E+00  3.87682E+01  1.432E-01  2.000E+01  2.000E+04 -1.643E-01
   1   13   23     2     8    7.2816E+04 -6.2081E+02   7.3437E+04  0.000E+00  0.000E+00  0.000E+00  3.85206E+01  1.456E-01  2.000E+01  2.000E+04 -3.104E-02
   1   14   22     2     9    7.3437E+04  1.3371E+03   7.2100E+04  0.000E+00  0.000E+00  0.000E+00  3.82701E+01  1.451E-01  2.000E+01  2.000E+04  6.685E-02
   1   14   22     3     1    2.2624E+05 -8.9897E+03   2.3523E+05  0.000E+00  0.000E+00  0.000E+00  3.77538E+01  1.982E-01  2.000E+01  2.000E+04 -4.495E-01
   1   15   23     3     2    2.3523E+05 -8.7696E+02   2.3610E+05  0.000E+00  0.000E+00  0.000E+00  3.68674E+01  2.008E-01  2.000E+01  2.000E+04 -4.385E-02
   1   15   24     3     3    2.3610E+05 -6.2731E+02   2.3673E+05  0.000E+00  0.000E+00  0.000E+00  3.59789E+01  2.011E-01  2.000E+01  2.000E+04 -3.137E-02
   1   15   25     3     4    2.3673E+05 -6.5086E+02   2.3738E+05  0.000E+00  0.000E+00  0.000E+00  3.50904E+01  2.015E-01  2.000E+01  2.000E+04 -3.254E-02
   1   15   26     3     5    2.3738E+05 -7.6318E+02   2.3814E+05  0.000E+00  0.000E+00  0.000E+00  3.42018E+01  2.018E-01  2.000E+01  2.000E+04 -3.816E-02
   1   16   27     3     6    2.3814E+05 -8.8006E+02   2.3902E+05  0.000E+00  0.000E+00  0.000E+00  3.33134E+01  2.022E-01  2.000E+01  2.000E+04 -4.400E-02
   1   17   28     3     7    2.3902E+05 -3.1664E+03   2.4219E+05  0.000E+00  0.000E+00  0.000E+00  3.24255E+01  2.033E-01  2.000E+01  2.000E+04 -1.583E-01
   1   18   29     3     8    2.4219E+05 -4.8359E+03   2.4703E+05  0.000E+00  0.000E+00  0.000E+00  3.15386E+01  2.053E-01  2.000E+01  2.000E+04 -2.418E-01
   1   18   30     3     9    2.4703E+05 -4.5573E+03   2.5158E+05  0.000E+00  0.000E+00  0.000E+00  3.06521E+01  2.077E-01  2.000E+01  2.000E+04 -2.279E-01



1
              HEAD IN LAYER   1 AT END OF TIME STEP   1 IN STRESS PERIOD    2
  ---------------------------------------------------------------------------

          1      2      3      4      5      6      7      8      9     10
         11     12     13     14     15     16     17     18     19     20
         21     22     23     24     25     26     27     28     29     30
 .........................................................................
   1  ****** ****** ****** ****** ****** ****** ****** ****** ****** ******
      ****** ****** ****** ****** ****** ****** ****** ****** ****** ******
      ****** ****** ****** ****** ****** ****** ****** ****** ****** ******
   2  ****** ****** ****** ****** ****** ****** ****** ****** ****** ******
      ****** ****** ****** ****** ****** ****** ****** ****** ****** ******
      ****** ****** ****** ****** ****** ****** ****** ****** ****** ******
   3  ****** ****** ****** ****** ****** ****** ****** ****** ****** ******
      ****** ****** ****** ****** ****** ****** ****** ****** ****** ******
      ****** ****** ****** ****** ****** ****** ****** ****** ****** ******
   4  ****** ****** ****** ****** ****** ****** ****** ****** ****** ******
      ****** ****** ****** ****** ****** ****** ****** ****** ****** ******
      ****** ****** ****** ****** ****** ****** ****** ****** ****** ******
   5  ****** ****** ****** ****** ****** ****** ****** ****** ****** ******
      ****** ****** ****** ****** ****** ****** ****** ****** ****** ******
      ****** ****** ****** ****** ****** ****** ****** ****** ****** ******
   6  ****** ****** ****** ****** ****** ****** ****** ****** ****** ******
      ****** ****** ****** ****** ****** ****** ****** ****** ****** ******
      ****** ****** ****** ****** ****** ****** ****** ****** ****** ******
   7  ****** ****** ****** ****** ****** ****** ****** ****** ****** ******
      ****** ****** ****** ****** ****** ****** ****** ****** ****** ******
      ****** ****** ****** ****** ****** ****** ****** ****** ****** ******
   8  ****** ****** ****** ****** ****** ****** ****** ****** ****** ******
      ****** ****** ****** ****** ****** ****** ****** ****** ****** ******
      ****** ****** ****** ****** ****** ****** ****** ****** ****** ******
   9  ****** ****** ****** ****** ****** ****** ****** ****** ****** ******
      ****** ****** ****** ****** ****** ****** ****** ****** ****** ******
      ****** ****** ****** ****** ****** ****** ****** ****** ****** ******
  10  ****** ****** ****** ****** ****** ****** ****** ****** ****** ******
      ****** ****** ****** ****** ****** ****** ****** ****** ****** ******
      ****** ****** ****** ****** ****** ****** ****** ****** ****** ******
  11  ****** ****** ****** ****** ****** ****** ****** ****** ****** ******
      ****** ****** ****** ****** ****** ****** ****** ****** ****** ******
      ****** ****** ****** ****** ****** ****** ****** ****** ****** ******
  12  ****** ****** ****** ****** ****** ****** ****** ****** ****** ******
      ****** ****** ****** ****** ****** ****** ****** ****** ****** ******
      ****** ****** ****** ****** ****** ****** ****** ****** ****** ******
  13  ****** ****** ****** ****** ****** ****** ****** ****** ****** ******
      ****** ****** ****** ****** ****** ****** ****** ****** ****** ******
      ****** ****** ****** ****** ****** ****** ****** ****** ****** ******
  14  ****** ****** ****** ****** ****** ****** ****** ****** ****** ******
      ****** ****** ****** ****** ****** ****** ****** ****** ****** ******
      ****** ****** ****** ****** ****** ****** ****** ****** ****** ******
  15  ****** ****** ****** ****** ****** ****** ****** ****** ****** ******
      ****** ****** ****** ****** ****** ****** ****** ****** ****** ******
      ****** ****** ****** ****** ****** ****** ****** ****** ****** ******
  16  ****** ****** ****** ****** ****** ****** ****** ****** ****** ******
      ****** ****** ****** ****** ****** ****** ****** ****** ****** ******
      ****** ****** ****** ****** ****** ****** ****** ****** ****** ******
  17  ****** ****** ****** ****** ****** ****** ****** ****** ****** ******
      ****** ****** ****** ****** ****** ****** ****** ****** ****** ******
      ****** ****** ****** ****** ****** ****** ****** ****** ****** ******
  18  ****** ****** ****** ****** ****** ****** ****** ****** ****** ******
      ****** ****** ****** ****** ****** ****** ****** ****** ****** ******
      ****** ****** ****** ****** ****** ****** ****** ****** ****** ******
  19  ****** ****** ****** ****** ****** ****** ****** ****** ****** ******
      ****** ****** ****** ****** ****** ****** ****** ****** ****** ******
      ****** ****** ****** ****** ****** ****** ****** ****** ****** ******
  20  ****** ****** ****** ****** ****** ****** ****** ****** ****** ******
      ****** ****** ****** ****** ****** ****** ****** ****** ****** ******
      ****** ****** ****** ****** ****** ****** ****** ****** ****** ******
  21  ****** ****** ****** ****** ****** ****** ****** ****** ****** ******
      ****** ****** ****** ****** ****** ****** ****** ****** ****** ******
      ****** ****** ****** ****** ****** ****** ****** ****** ****** ******
  22  ****** ****** ****** ****** ****** ****** ****** ****** ****** ******
      ****** ****** ****** ****** ****** ****** ****** ****** ****** ******
      ****** ****** ****** ****** ****** ****** ****** ****** ****** ******
  23  ****** ****** ****** ****** ****** ****** ****** ****** ****** ******
      ****** ****** ****** ****** ****** ****** ****** ****** ****** ******
      ****** ****** ****** ****** ****** ****** ****** ****** ****** ******
  24  ****** ****** ****** ****** ****** ****** ****** ****** ****** ******
      ****** ****** ****** ****** ****** ****** ****** ****** ****** ******
      ****** ****** ****** ****** ****** ****** ****** ****** ****** ******
  25  ****** ****** ****** ****** ****** ****** ****** ****** ****** ******
      ****** ****** ****** ****** ****** ****** ****** ****** ****** ******
      ****** ****** ****** ****** ****** ****** ****** ****** ****** ******

 HEAD WILL BE SAVED ON UNIT   51 AT END OF TIME STEP    1, STRESS PERIOD    2
1
  VOLUMETRIC BUDGET FOR ENTIRE MODEL AT END OF TIME STEP    1, STRESS PERIOD   2
  ------------------------------------------------------------------------------

     CUMULATIVE VOLUMES      L**3       RATES FOR THIS TIME STEP      L**3/T
     ------------------                 ------------------------

           IN:                                      IN:
           ---                                      ---
             STORAGE =    23286640.4497               STORAGE =       56804.4298
       CONSTANT HEAD =     2867191.3005         CONSTANT HEAD =       18207.5720
               WELLS =           0.0000                 WELLS =           0.0000
            RECHARGE =     6292800.0000              RECHARGE =       55200.0000
      STREAM LEAKAGE =      899917.3561        STREAM LEAKAGE =        5827.7037

            TOTAL IN =    33346549.1063              TOTAL IN =      136039.7054

          OUT:                                     OUT:
          ----                                     ----
             STORAGE =           0.0000               STORAGE =           0.0000
       CONSTANT HEAD =           0.0000         CONSTANT HEAD =           0.0000
               WELLS =     5239011.6160                 WELLS =       28628.4788
            RECHARGE =           0.0000              RECHARGE =           0.0000
      STREAM LEAKAGE =    28107538.7845        STREAM LEAKAGE =      107411.2377

           TOTAL OUT =    33346550.4005             TOTAL OUT =      136039.7165

            IN - OUT =          -1.2942              IN - OUT =      -1.1047E-02

 PERCENT DISCREPANCY =          -0.00     PERCENT DISCREPANCY =          -0.00






         TIME SUMMARY AT END OF TIME STEP    1 IN STRESS PERIOD    2
                    SECONDS     MINUTES      HOURS       DAYS        YEARS
                    -----------------------------------------------------------
   TIME STEP LENGTH 7.86240E+06 1.31040E+05  2184.0      91.000     0.24914    
 STRESS PERIOD TIME 7.86240E+06 1.31040E+05  2184.0      91.000     0.24914    
         TOTAL TIME 1.58112E+07 2.63520E+05  4392.0      183.00     0.50103    
1
1
                            STRESS PERIOD NO.    3, LENGTH =   91.00000    
                            -----------------------------------------------

                              NUMBER OF TIME STEPS =     1

                               MULTIPLIER FOR DELT =     1.500

                            INITIAL TIME STEP SIZE =   91.00000    

 WELL NO.  LAYER   ROW   COL   STRESS RATE         
 --------------------------------------------------
      1      1     20     17     -0.1195E+05
      2      1     18     14      -7709.    
      3      1      9      3      -2375.    
      4      1     21     12      -6598.    

      4 WELLS

                 RECHARGE =   0.00000    

 REUSING STREAM SEGMENT DATA FROM LAST STRESS PERIOD
 
 SOLVING FOR HEAD 


     7 CALLS TO PCG ROUTINE FOR TIME STEP   1 IN STRESS PERIOD    3
    27 TOTAL ITERATIONS

 OUTPUT CONTROL FOR STRESS PERIOD    3   TIME STEP    1
    SAVE BUDGET
    SAVE HEAD FOR ALL LAYERS
    PRINT HEAD FOR ALL LAYERS
 UBDSV2 SAVING "STREAMFLOW OUT  " ON UNIT  50 AT TIME STEP  1, STRESS PERIOD   3



 STREAM LISTING     PERIOD      3   STEP        1

 LAYER ROW COL. STREAM  RCH.  FLOW INTO     FLOW TO   FLOW OUT OF   OVRLND.     DIRECT     STREAM       STREAM     STREAM     STREAM   STREAMBED  STREAMBED
                SEG.NO.  NO.  STRM. RCH.    AQUIFER    STRM. RCH.    RUNOFF     PRECIP       ET          HEAD       DEPTH      WIDTH   CONDCTNC.   GRADIENT

   1   13    1     1     1    1.0000E+05 -2.2967E+03   1.0230E+05  0.000E+00  0.000E+00  0.000E+00  4.84070E+01  1.456E-01  2.000E+01  2.000E+04 -1.148E-01
   1   13    2     1     2    1.0230E+05 -3.3725E+03   1.0567E+05  0.000E+00  0.000E+00  0.000E+00  4.79322E+01  1.481E-01  2.000E+01  2.000E+04 -1.686E-01
   1   14    3     1     3    1.0567E+05 -6.0473E+02   1.0627E+05  0.000E+00  0.000E+00  0.000E+00  4.74566E+01  1.498E-01  2.000E+01  2.000E+04 -3.024E-02
   1   15    4     1     4    1.0627E+05 -5.8079E+02   1.0685E+05  0.000E+00  0.000E+00  0.000E+00  4.69798E+01  1.503E-01  2.000E+01  2.000E+04 -2.904E-02
   1   16    5     1     5    1.0685E+05 -1.9692E+03   1.0882E+05  0.000E+00  0.000E+00  0.000E+00  4.65036E+01  1.514E-01  2.000E+01  2.000E+04 -9.846E-02
   1   16    6     1     6    1.0882E+05 -1.1347E+03   1.0996E+05  0.000E+00  0.000E+00  0.000E+00  4.60277E+01  1.527E-01  2.000E+01  2.000E+04 -5.673E-02
   1   16    7     1     7    1.0996E+05 -1.0154E+03   1.1097E+05  0.000E+00  0.000E+00  0.000E+00  4.55513E+01  1.536E-01  2.000E+01  2.000E+04 -5.077E-02
   1   16    8     1     8    1.1097E+05 -8.7687E+02   1.1185E+05  0.000E+00  0.000E+00  0.000E+00  4.50748E+01  1.543E-01  2.000E+01  2.000E+04 -4.384E-02
   1   16    9     1     9    1.1185E+05 -6.8383E+02   1.1253E+05  0.000E+00  0.000E+00  0.000E+00  4.45982E+01  1.550E-01  2.000E+01  2.000E+04 -3.419E-02
   1   16   10     1    10    1.1253E+05 -4.1438E+02   1.1295E+05  0.000E+00  0.000E+00  0.000E+00  4.41214E+01  1.554E-01  2.000E+01  2.000E+04 -2.072E-02
   1   16   11     1    11    1.1295E+05 -3.4276E+01   1.1298E+05  0.000E+00  0.000E+00  0.000E+00  4.36443E+01  1.556E-01  2.000E+01  2.000E+04 -1.714E-03
   1   16   12     1    12    1.1298E+05  5.6003E+02   1.1242E+05  0.000E+00  0.000E+00  0.000E+00  4.31668E+01  1.554E-01  2.000E+01  2.000E+04  2.800E-02
   1   15   13     1    13    1.1242E+05 -3.1575E+02   1.1274E+05  0.000E+00  0.000E+00  0.000E+00  4.26894E+01  1.553E-01  2.000E+01  2.000E+04 -1.579E-02
   1   14   14     1    14    1.1274E+05 -1.3711E+03   1.1411E+05  0.000E+00  0.000E+00  0.000E+00  4.22128E+01  1.560E-01  2.000E+01  2.000E+04 -6.855E-02
   1   13   15     1    15    1.1411E+05 -2.3212E+03   1.1643E+05  0.000E+00  0.000E+00  0.000E+00  4.17371E+01  1.575E-01  2.000E+01  2.000E+04 -1.161E-01
   1   12   16     1    16    1.1643E+05 -3.7443E+03   1.2018E+05  0.000E+00  0.000E+00  0.000E+00  4.12623E+01  1.600E-01  2.000E+01  2.000E+04 -1.872E-01
   1   12   17     1    17    1.2018E+05 -2.1996E+03   1.2238E+05  0.000E+00  0.000E+00  0.000E+00  4.07874E+01  1.624E-01  2.000E+01  2.000E+04 -1.100E-01
   1   12   18     1    18    1.2238E+05 -2.0801E+03   1.2446E+05  0.000E+00  0.000E+00  0.000E+00  4.03118E+01  1.641E-01  2.000E+01  2.000E+04 -1.040E-01
   1   12   19     1    19    1.2446E+05 -2.8919E+03   1.2735E+05  0.000E+00  0.000E+00  0.000E+00  3.98365E+01  1.661E-01  2.000E+01  2.000E+04 -1.446E-01
   1   13   20     1    20    1.2735E+05 -1.6242E+03   1.2897E+05  0.000E+00  0.000E+00  0.000E+00  3.93611E+01  1.679E-01  2.000E+01  2.000E+04 -8.121E-02
   1   14   21     1    21    1.2897E+05 -1.0382E+03   1.3001E+05  0.000E+00  0.000E+00  0.000E+00  3.88848E+01  1.689E-01  2.000E+01  2.000E+04 -5.191E-02
   1   14   22     1    22    1.3001E+05  4.8627E+03   1.2515E+05  0.000E+00  0.000E+00  0.000E+00  3.84060E+01  1.674E-01  2.000E+01  2.000E+04  2.431E-01
   1    9   30     2     1    5.0000E+04 -9.7358E+02   5.0974E+04  0.000E+00  0.000E+00  0.000E+00  4.02415E+01  1.165E-01  2.000E+01  2.000E+04 -4.868E-02
   1    9   29     2     2    5.0974E+04 -1.2877E+03   5.2261E+04  0.000E+00  0.000E+00  0.000E+00  3.99931E+01  1.181E-01  2.000E+01  2.000E+04 -6.438E-02
   1    9   28     2     3    5.2261E+04 -1.5856E+03   5.3847E+04  0.000E+00  0.000E+00  0.000E+00  3.97451E+01  1.201E-01  2.000E+01  2.000E+04 -7.928E-02
   1    9   27     2     4    5.3847E+04 -3.1946E+03   5.7042E+04  0.000E+00  0.000E+00  0.000E+00  3.94983E+01  1.233E-01  2.000E+01  2.000E+04 -1.597E-01
   1   10   26     2     5    5.7042E+04 -2.2054E+03   5.9247E+04  0.000E+00  0.000E+00  0.000E+00  3.92518E+01  1.268E-01  2.000E+01  2.000E+04 -1.103E-01
   1   11   25     2     6    5.9247E+04 -1.9292E+03   6.1176E+04  0.000E+00  0.000E+00  0.000E+00  3.90045E+01  1.295E-01  2.000E+01  2.000E+04 -9.646E-02
   1   12   24     2     7    6.1176E+04 -1.9582E+03   6.3134E+04  0.000E+00  0.000E+00  0.000E+00  3.87570E+01  1.320E-01  2.000E+01  2.000E+04 -9.791E-02
   1   13   23     2     8    6.3134E+04 -2.8855E+02   6.3423E+04  0.000E+00  0.000E+00  0.000E+00  3.85085E+01  1.335E-01  2.000E+01  2.000E+04 -1.443E-02
   1   14   22     2     9    6.3423E+04  1.8904E+03   6.1533E+04  0.000E+00  0.000E+00  0.000E+00  3.82574E+01  1.324E-01  2.000E+01  2.000E+04  9.452E-02
   1   14   22     3     1    1.8668E+05 -8.6078E+03   1.9529E+05  0.000E+00  0.000E+00  0.000E+00  3.77325E+01  1.770E-01  2.000E+01  2.000E+04 -4.304E-01
   1   15   23     3     2    1.9529E+05 -4.4286E+02   1.9573E+05  0.000E+00  0.000E+00  0.000E+00  3.68461E+01  1.795E-01  2.000E+01  2.000E+04 -2.214E-02
   1   15   24     3     3    1.9573E+05 -2.9095E+02   1.9602E+05  0.000E+00  0.000E+00  0.000E+00  3.59575E+01  1.797E-01  2.000E+01  2.000E+04 -1.455E-02
   1   15   25     3     4    1.9602E+05 -3.0267E+02   1.9632E+05  0.000E+00  0.000E+00  0.000E+00  3.50687E+01  1.798E-01  2.000E+01  2.000E+04 -1.513E-02
   1   15   26     3     5    1.9632E+05 -3.5447E+02   1.9668E+05  0.000E+00  0.000E+00  0.000E+00  3.41800E+01  1.800E-01  2.000E+01  2.000E+04 -1.772E-02
   1   16   27     3     6    1.9668E+05 -4.0510E+02   1.9708E+05  0.000E+00  0.000E+00  0.000E+00  3.32913E+01  1.802E-01  2.000E+01  2.000E+04 -2.026E-02
   1   17   28     3     7    1.9708E+05 -1.7135E+03   1.9880E+05  0.000E+00  0.000E+00  0.000E+00  3.24030E+01  1.808E-01  2.000E+01  2.000E+04 -8.568E-02
   1   18   29     3     8    1.9880E+05 -3.2234E+03   2.0202E+05  0.000E+00  0.000E+00  0.000E+00  3.15155E+01  1.822E-01  2.000E+01  2.000E+04 -1.612E-01
   1   18   30     3     9    2.0202E+05 -3.3643E+03   2.0538E+05  0.000E+00  0.000E+00  0.000E+00  3.06284E+01  1.839E-01  2.000E+01  2.000E+04 -1.682E-01



1
              HEAD IN LAYER   1 AT END OF TIME STEP   1 IN STRESS PERIOD    3
  ---------------------------------------------------------------------------

          1      2      3      4      5      6      7      8      9     10
         11     12     13     14     15     16     17     18     19     20
         21     22     23     24     25     26     27     28     29     30
 .........................................................................
   1  ****** ****** ****** ****** ****** ****** ****** ****** ****** ******
      ****** ****** ****** ****** ****** ****** ****** ****** ****** ******
      ****** ****** ****** ****** ****** ****** ****** ****** ****** ******
   2  ****** ****** ****** ****** ****** ****** ****** ****** ****** ******
      ****** ****** ****** ****** ****** ****** ****** ****** ****** ******
      ****** ****** ****** ****** ****** ****** ****** ****** ****** ******
   3  ****** ****** ****** ****** ****** ****** ****** ****** ****** ******
      ****** ****** ****** ****** ****** ****** ****** ****** ****** ******
      ****** ****** ****** ****** ****** ****** ****** ****** ****** ******
   4  ****** ****** ****** ****** ****** ****** ****** ****** ****** ******
      ****** ****** ****** ****** ****** ****** ****** ****** ****** ******
      ****** ****** ****** ****** ****** ****** ****** ****** ****** ******
   5  ****** ****** ****** ****** ****** ****** ****** ****** ****** ******
      ****** ****** ****** ****** ****** ****** ****** ****** ****** ******
      ****** ****** ****** ****** ****** ****** ****** ****** ****** ******
   6  ****** ****** ****** ****** ****** ****** ****** ****** ****** ******
      ****** ****** ****** ****** ****** ****** ****** ****** ****** ******
      ****** ****** ****** ****** ****** ****** ****** ****** ****** ******
   7  ****** ****** ****** ****** ****** ****** ****** ****** ****** ******
      ****** ****** ****** ****** ****** ****** ****** ****** ****** ******
      ****** ****** ****** ****** ****** ****** ****** ****** ****** ******
   8  ****** ****** ****** ****** ****** ****** ****** ****** ****** ******
      ****** ****** ****** ****** ****** ****** ****** ****** ****** ******
      ****** ****** ****** ****** ****** ****** ****** ****** ****** ******
   9  ****** ****** ****** ****** ****** ****** ****** ****** ****** ******
      ****** ****** ****** ****** ****** ****** ****** ****** ****** ******
      ****** ****** ****** ****** ****** ****** ****** ****** ****** ******
  10  ****** ****** ****** ****** ****** ****** ****** ****** ****** ******
      ****** ****** ****** ****** ****** ****** ****** ****** ****** ******
      ****** ****** ****** ****** ****** ****** ****** ****** ****** ******
  11  ****** ****** ****** ****** ****** ****** ****** ****** ****** ******
      ****** ****** ****** ****** ****** ****** ****** ****** ****** ******
      ****** ****** ****** ****** ****** ****** ****** ****** ****** ******
  12  ****** ****** ****** ****** ****** ****** ****** ****** ****** ******
      ****** ****** ****** ****** ****** ****** ****** ****** ****** ******
      ****** ****** ****** ****** ****** ****** ****** ****** ****** ******
  13  ****** ****** ****** ****** ****** ****** ****** ****** ****** ******
      ****** ****** ****** ****** ****** ****** ****** ****** ****** ******
      ****** ****** ****** ****** ****** ****** ****** ****** ****** ******
  14  ****** ****** ****** ****** ****** ****** ****** ****** ****** ******
      ****** ****** ****** ****** ****** ****** ****** ****** ****** ******
      ****** ****** ****** ****** ****** ****** ****** ****** ****** ******
  15  ****** ****** ****** ****** ****** ****** ****** ****** ****** ******
      ****** ****** ****** ****** ****** ****** ****** ****** ****** ******
      ****** ****** ****** ****** ****** ****** ****** ****** ****** ******
  16  ****** ****** ****** ****** ****** ****** ****** ****** ****** ******
      ****** ****** ****** ****** ****** ****** ****** ****** ****** ******
      ****** ****** ****** ****** ****** ****** ****** ****** ****** ******
  17  ****** ****** ****** ****** ****** ****** ****** ****** ****** ******
      ****** ****** ****** ****** ****** ****** ****** ****** ****** ******
      ****** ****** ****** ****** ****** ****** ****** ****** ****** ******
  18  ****** ****** ****** ****** ****** ****** ****** ****** ****** ******
      ****** ****** ****** ****** ****** ****** ****** ****** ****** ******
      ****** ****** ****** ****** ****** ****** ****** ****** ****** ******
  19  ****** ****** ****** ****** ****** ****** ****** ****** ****** ******
      ****** ****** ****** ****** ****** ****** ****** ****** ****** ******
      ****** ****** ****** ****** ****** ****** ****** ****** ****** ******
  20  ****** ****** ****** ****** ****** ****** ****** ****** ****** ******
      ****** ****** ****** ****** ****** ****** ****** ****** ****** ******
      ****** ****** ****** ****** ****** ****** ****** ****** ****** ******
  21  ****** ****** ****** ****** ****** ****** ****** ****** ****** ******
      ****** ****** ****** ****** ****** ****** ****** ****** ****** ******
      ****** ****** ****** ****** ****** ****** ****** ****** ****** ******
  22  ****** ****** ****** ****** ****** ****** ****** ****** ****** ******
      ****** ****** ****** ****** ****** ****** ****** ****** ****** ******
      ****** ****** ****** ****** ****** ****** ****** ****** ****** ******
  23  ****** ****** ****** ****** ****** ****** ****** ****** ****** ******
      ****** ****** ****** ****** ****** ****** ****** ****** ****** ******
      ****** ****** ****** ****** ****** ****** ****** ****** ****** ******
  24  ****** ****** ****** ****** ****** ****** ****** ****** ****** ******
      ****** ****** ****** ****** ****** ****** ****** ****** ****** ******
      ****** ****** ****** ****** ****** ****** ****** ****** ****** ******
  25  ****** ****** ****** ****** ****** ****** ****** ****** ****** ******
      ****** ****** ****** ****** ****** ****** ****** ****** ****** ******
      ****** ****** ****** ****** ****** ****** ****** ****** ****** ******

 HEAD WILL BE SAVED ON UNIT   51 AT END OF TIME STEP    1, STRESS PERIOD    3
1
  VOLUMETRIC BUDGET FOR ENTIRE MODEL AT END OF TIME STEP    1, STRESS PERIOD   3
  ------------------------------------------------------------------------------

     CUMULATIVE VOLUMES      L**3       RATES FOR THIS TIME STEP      L**3/T
     ------------------                 ------------------------

           IN:                                      IN:
           ---                                      ---
             STORAGE =    28464284.3165               STORAGE =       56897.1853
       CONSTANT HEAD =     5334741.6809         CONSTANT HEAD =       27115.9382
               WELLS =           0.0000                 WELLS =           0.0000
            RECHARGE =     6292800.0000              RECHARGE =           0.0000
      STREAM LEAKAGE =     1565413.1364        STREAM LEAKAGE =        7313.1404

            TOTAL IN =    41657239.1338              TOTAL IN =       91326.2640

          OUT:                                     OUT:
          ----                                     ----
             STORAGE =           0.0000               STORAGE =           0.0000
       CONSTANT HEAD =           0.0000         CONSTANT HEAD =           0.0000
               WELLS =     7844203.1846                 WELLS =       28628.4788
            RECHARGE =           0.0000              RECHARGE =           0.0000
      STREAM LEAKAGE =    33813037.9625        STREAM LEAKAGE =       62697.7932

           TOTAL OUT =    41657241.1472             TOTAL OUT =       91326.2719

            IN - OUT =          -2.0134              IN - OUT =      -7.9032E-03

 PERCENT DISCREPANCY =          -0.00     PERCENT DISCREPANCY =          -0.00






         TIME SUMMARY AT END OF TIME STEP    1 IN STRESS PERIOD    3
                    SECONDS     MINUTES      HOURS       DAYS        YEARS
                    -----------------------------------------------------------
   TIME STEP LENGTH 7.86240E+06 1.31040E+05  2184.0      91.000     0.24914    
 STRESS PERIOD TIME 7.86240E+06 1.31040E+05  2184.0      91.000     0.24914    
         TOTAL TIME 2.36736E+07 3.94560E+05  6576.0      274.00     0.75017    
1
1
                            STRESS PERIOD NO.    4, LENGTH =   91.00000    
                            -----------------------------------------------

                              NUMBER OF TIME STEPS =     1

                               MULTIPLIER FOR DELT =     1.500

                            INITIAL TIME STEP SIZE =   91.00000    

 WELL NO.  LAYER   ROW   COL   STRESS RATE         
 --------------------------------------------------
      1      1     20     17     -0.1195E+05
      2      1     18     14      -7709.    
      3      1      9      3      -2375.    
      4      1     21     12      -6598.    

      4 WELLS

                 RECHARGE =  1.000000E-03

 REUSING STREAM SEGMENT DATA FROM LAST STRESS PERIOD
 
 SOLVING FOR HEAD 


     6 CALLS TO PCG ROUTINE FOR TIME STEP   1 IN STRESS PERIOD    4
    23 TOTAL ITERATIONS

 OUTPUT CONTROL FOR STRESS PERIOD    4   TIME STEP    1
    SAVE BUDGET
    SAVE HEAD FOR ALL LAYERS
    PRINT HEAD FOR ALL LAYERS
 UBDSV2 SAVING "STREAMFLOW OUT  " ON UNIT  50 AT TIME STEP  1, STRESS PERIOD   4



 STREAM LISTING     PERIOD      4   STEP        1

 LAYER ROW COL. STREAM  RCH.  FLOW INTO     FLOW TO   FLOW OUT OF   OVRLND.     DIRECT     STREAM       STREAM     STREAM     STREAM   STREAMBED  STREAMBED
                SEG.NO.  NO.  STRM. RCH.    AQUIFER    STRM. RCH.    RUNOFF     PRECIP       ET          HEAD       DEPTH      WIDTH   CONDCTNC.   GRADIENT

   1   13    1     1     1    1.0000E+05 -2.0223E+03   1.0202E+05  0.000E+00  0.000E+00  0.000E+00  4.84069E+01  1.455E-01  2.000E+01  2.000E+04 -1.011E-01
   1   13    2     1     2    1.0202E+05 -3.0563E+03   1.0508E+05  0.000E+00  0.000E+00  0.000E+00  4.79318E+01  1.477E-01  2.000E+01  2.000E+04 -1.528E-01
   1   14    3     1     3    1.0508E+05 -5.6739E+02   1.0565E+05  0.000E+00  0.000E+00  0.000E+00  4.74561E+01  1.493E-01  2.000E+01  2.000E+04 -2.837E-02
   1   15    4     1     4    1.0565E+05 -5.3192E+02   1.0618E+05  0.000E+00  0.000E+00  0.000E+00  4.69793E+01  1.497E-01  2.000E+01  2.000E+04 -2.660E-02
   1   16    5     1     5    1.0618E+05 -1.5968E+03   1.0777E+05  0.000E+00  0.000E+00  0.000E+00  4.65029E+01  1.506E-01  2.000E+01  2.000E+04 -7.984E-02
   1   16    6     1     6    1.0777E+05 -9.4451E+02   1.0872E+05  0.000E+00  0.000E+00  0.000E+00  4.60267E+01  1.517E-01  2.000E+01  2.000E+04 -4.723E-02
   1   16    7     1     7    1.0872E+05 -8.3547E+02   1.0955E+05  0.000E+00  0.000E+00  0.000E+00  4.55502E+01  1.524E-01  2.000E+01  2.000E+04 -4.177E-02
   1   16    8     1     8    1.0955E+05 -6.9772E+02   1.1025E+05  0.000E+00  0.000E+00  0.000E+00  4.50735E+01  1.531E-01  2.000E+01  2.000E+04 -3.489E-02
   1   16    9     1     9    1.1025E+05 -5.0259E+02   1.1076E+05  0.000E+00  0.000E+00  0.000E+00  4.45968E+01  1.536E-01  2.000E+01  2.000E+04 -2.513E-02
   1   16   10     1    10    1.1076E+05 -2.2996E+02   1.1099E+05  0.000E+00  0.000E+00  0.000E+00  4.41198E+01  1.539E-01  2.000E+01  2.000E+04 -1.150E-02
   1   16   11     1    11    1.1099E+05  1.6047E+02   1.1082E+05  0.000E+00  0.000E+00  0.000E+00  4.36426E+01  1.539E-01  2.000E+01  2.000E+04  8.024E-03
   1   16   12     1    12    1.1082E+05  9.5274E+02   1.0987E+05  0.000E+00  0.000E+00  0.000E+00  4.31648E+01  1.535E-01  2.000E+01  2.000E+04  4.764E-02
   1   15   13     1    13    1.0987E+05  1.5442E+01   1.0986E+05  0.000E+00  0.000E+00  0.000E+00  4.26871E+01  1.531E-01  2.000E+01  2.000E+04  7.721E-04
   1   14   14     1    14    1.0986E+05 -1.0418E+03   1.1090E+05  0.000E+00  0.000E+00  0.000E+00  4.22103E+01  1.535E-01  2.000E+01  2.000E+04 -5.209E-02
   1   13   15     1    15    1.1090E+05 -1.9918E+03   1.1289E+05  0.000E+00  0.000E+00  0.000E+00  4.17343E+01  1.547E-01  2.000E+01  2.000E+04 -9.959E-02
   1   12   16     1    16    1.1289E+05 -3.3587E+03   1.1625E+05  0.000E+00  0.000E+00  0.000E+00  4.12592E+01  1.570E-01  2.000E+01  2.000E+04 -1.679E-01
   1   12   17     1    17    1.1625E+05 -1.9557E+03   1.1820E+05  0.000E+00  0.000E+00  0.000E+00  4.07841E+01  1.591E-01  2.000E+01  2.000E+04 -9.778E-02
   1   12   18     1    18    1.1820E+05 -1.8524E+03   1.2006E+05  0.000E+00  0.000E+00  0.000E+00  4.03084E+01  1.607E-01  2.000E+01  2.000E+04 -9.262E-02
   1   12   19     1    19    1.2006E+05 -2.6254E+03   1.2268E+05  0.000E+00  0.000E+00  0.000E+00  3.98329E+01  1.625E-01  2.000E+01  2.000E+04 -1.313E-01
   1   13   20     1    20    1.2268E+05 -1.4087E+03   1.2409E+05  0.000E+00  0.000E+00  0.000E+00  3.93573E+01  1.641E-01  2.000E+01  2.000E+04 -7.043E-02
   1   14   21     1    21    1.2409E+05 -7.1110E+02   1.2480E+05  0.000E+00  0.000E+00  0.000E+00  3.88808E+01  1.649E-01  2.000E+01  2.000E+04 -3.555E-02
   1   14   22     1    22    1.2480E+05  4.9083E+03   1.1989E+05  0.000E+00  0.000E+00  0.000E+00  3.84019E+01  1.633E-01  2.000E+01  2.000E+04  2.454E-01
   1    9   30     2     1    5.0000E+04 -8.9476E+02   5.0895E+04  0.000E+00  0.000E+00  0.000E+00  4.02415E+01  1.165E-01  2.000E+01  2.000E+04 -4.474E-02
   1    9   29     2     2    5.0895E+04 -1.2023E+03   5.2097E+04  0.000E+00  0.000E+00  0.000E+00  3.99929E+01  1.179E-01  2.000E+01  2.000E+04 -6.012E-02
   1    9   28     2     3    5.2097E+04 -1.4814E+03   5.3578E+04  0.000E+00  0.000E+00  0.000E+00  3.97448E+01  1.198E-01  2.000E+01  2.000E+04 -7.407E-02
   1    9   27     2     4    5.3578E+04 -2.9498E+03   5.6528E+04  0.000E+00  0.000E+00  0.000E+00  3.94978E+01  1.228E-01  2.000E+01  2.000E+04 -1.475E-01
   1   10   26     2     5    5.6528E+04 -2.0672E+03   5.8595E+04  0.000E+00  0.000E+00  0.000E+00  3.92511E+01  1.261E-01  2.000E+01  2.000E+04 -1.034E-01
   1   11   25     2     6    5.8595E+04 -1.8291E+03   6.0425E+04  0.000E+00  0.000E+00  0.000E+00  3.90036E+01  1.286E-01  2.000E+01  2.000E+04 -9.146E-02
   1   12   24     2     7    6.0425E+04 -1.8738E+03   6.2298E+04  0.000E+00  0.000E+00  0.000E+00  3.87560E+01  1.310E-01  2.000E+01  2.000E+04 -9.369E-02
   1   13   23     2     8    6.2298E+04 -3.1597E+02   6.2614E+04  0.000E+00  0.000E+00  0.000E+00  3.85074E+01  1.324E-01  2.000E+01  2.000E+04 -1.580E-02
   1   14   22     2     9    6.2614E+04  1.9971E+03   6.0617E+04  0.000E+00  0.000E+00  0.000E+00  3.82563E+01  1.313E-01  2.000E+01  2.000E+04  9.986E-02
   1   14   22     3     1    1.8051E+05 -8.5485E+03   1.8906E+05  0.000E+00  0.000E+00  0.000E+00  3.77291E+01  1.735E-01  2.000E+01  2.000E+04 -4.274E-01
   1   15   23     3     2    1.8906E+05 -3.9698E+02   1.8946E+05  0.000E+00  0.000E+00  0.000E+00  3.68427E+01  1.760E-01  2.000E+01  2.000E+04 -1.985E-02
   1   15   24     3     3    1.8946E+05 -2.8150E+02   1.8974E+05  0.000E+00  0.000E+00  0.000E+00  3.59540E+01  1.762E-01  2.000E+01  2.000E+04 -1.407E-02
   1   15   25     3     4    1.8974E+05 -2.9552E+02   1.9003E+05  0.000E+00  0.000E+00  0.000E+00  3.50652E+01  1.764E-01  2.000E+01  2.000E+04 -1.478E-02
   1   15   26     3     5    1.9003E+05 -3.5992E+02   1.9039E+05  0.000E+00  0.000E+00  0.000E+00  3.41765E+01  1.765E-01  2.000E+01  2.000E+04 -1.800E-02
   1   16   27     3     6    1.9039E+05 -3.9855E+02   1.9079E+05  0.000E+00  0.000E+00  0.000E+00  3.32879E+01  1.768E-01  2.000E+01  2.000E+04 -1.993E-02
   1   17   28     3     7    1.9079E+05 -1.6224E+03   1.9241E+05  0.000E+00  0.000E+00  0.000E+00  3.23995E+01  1.773E-01  2.000E+01  2.000E+04 -8.112E-02
   1   18   29     3     8    1.9241E+05 -2.9434E+03   1.9536E+05  0.000E+00  0.000E+00  0.000E+00  3.15119E+01  1.786E-01  2.000E+01  2.000E+04 -1.472E-01
   1   18   30     3     9    1.9536E+05 -3.2191E+03   1.9858E+05  0.000E+00  0.000E+00  0.000E+00  3.06247E+01  1.803E-01  2.000E+01  2.000E+04 -1.610E-01



1
              HEAD IN LAYER   1 AT END OF TIME STEP   1 IN STRESS PERIOD    4
  ---------------------------------------------------------------------------

          1      2      3      4      5      6      7      8      9     10
         11     12     13     14     15     16     17     18     19     20
         21     22     23     24     25     26     27     28     29     30
 .........................................................................
   1  ****** ****** ****** ****** ****** ****** ****** ****** ****** ******
      ****** ****** ****** ****** ****** ****** ****** ****** ****** ******
      ****** ****** ****** ****** ****** ****** ****** ****** ****** ******
   2  ****** ****** ****** ****** ****** ****** ****** ****** ****** ******
      ****** ****** ****** ****** ****** ****** ****** ****** ****** ******
      ****** ****** ****** ****** ****** ****** ****** ****** ****** ******
   3  ****** ****** ****** ****** ****** ****** ****** ****** ****** ******
      ****** ****** ****** ****** ****** ****** ****** ****** ****** ******
      ****** ****** ****** ****** ****** ****** ****** ****** ****** ******
   4  ****** ****** ****** ****** ****** ****** ****** ****** ****** ******
      ****** ****** ****** ****** ****** ****** ****** ****** ****** ******
      ****** ****** ****** ****** ****** ****** ****** ****** ****** ******
   5  ****** ****** ****** ****** ****** ****** ****** ****** ****** ******
      ****** ****** ****** ****** ****** ****** ****** ****** ****** ******
      ****** ****** ****** ****** ****** ****** ****** ****** ****** ******
   6  ****** ****** ****** ****** ****** ****** ****** ****** ****** ******
      ****** ****** ****** ****** ****** ****** ****** ****** ****** ******
      ****** ****** ****** ****** ****** ****** ****** ****** ****** ******
   7  ****** ****** ****** ****** ****** ****** ****** ****** ****** ******
      ****** ****** ****** ****** ****** ****** ****** ****** ****** ******
      ****** ****** ****** ****** ****** ****** ****** ****** ****** ******
   8  ****** ****** ****** ****** ****** ****** ****** ****** ****** ******
      ****** ****** ****** ****** ****** ****** ****** ****** ****** ******
      ****** ****** ****** ****** ****** ****** ****** ****** ****** ******
   9  ****** ****** ****** ****** ****** ****** ****** ****** ****** ******
      ****** ****** ****** ****** ****** ****** ****** ****** ****** ******
      ****** ****** ****** ****** ****** ****** ****** ****** ****** ******
  10  ****** ****** ****** ****** ****** ****** ****** ****** ****** ******
      ****** ****** ****** ****** ****** ****** ****** ****** ****** ******
      ****** ****** ****** ****** ****** ****** ****** ****** ****** ******
  11  ****** ****** ****** ****** ****** ****** ****** ****** ****** ******
      ****** ****** ****** ****** ****** ****** ****** ****** ****** ******
      ****** ****** ****** ****** ****** ****** ****** ****** ****** ******
  12  ****** ****** ****** ****** ****** ****** ****** ****** ****** ******
      ****** ****** ****** ****** ****** ****** ****** ****** ****** ******
      ****** ****** ****** ****** ****** ****** ****** ****** ****** ******
  13  ****** ****** ****** ****** ****** ****** ****** ****** ****** ******
      ****** ****** ****** ****** ****** ****** ****** ****** ****** ******
      ****** ****** ****** ****** ****** ****** ****** ****** ****** ******
  14  ****** ****** ****** ****** ****** ****** ****** ****** ****** ******
      ****** ****** ****** ****** ****** ****** ****** ****** ****** ******
      ****** ****** ****** ****** ****** ****** ****** ****** ****** ******
  15  ****** ****** ****** ****** ****** ****** ****** ****** ****** ******
      ****** ****** ****** ****** ****** ****** ****** ****** ****** ******
      ****** ****** ****** ****** ****** ****** ****** ****** ****** ******
  16  ****** ****** ****** ****** ****** ****** ****** ****** ****** ******
      ****** ****** ****** ****** ****** ****** ****** ****** ****** ******
      ****** ****** ****** ****** ****** ****** ****** ****** ****** ******
  17  ****** ****** ****** ****** ****** ****** ****** ****** ****** ******
      ****** ****** ****** ****** ****** ****** ****** ****** ****** ******
      ****** ****** ****** ****** ****** ****** ****** ****** ****** ******
  18  ****** ****** ****** ****** ****** ****** ****** ****** ****** ******
      ****** ****** ****** ****** ****** ****** ****** ****** ****** ******
      ****** ****** ****** ****** ****** ****** ****** ****** ****** ******
  19  ****** ****** ****** ****** ****** ****** ****** ****** ****** ******
      ****** ****** ****** ****** ****** ****** ****** ****** ****** ******
      ****** ****** ****** ****** ****** ****** ****** ****** ****** ******
  20  ****** ****** ****** ****** ****** ****** ****** ****** ****** ******
      ****** ****** ****** ****** ****** ****** ****** ****** ****** ******
      ****** ****** ****** ****** ****** ****** ****** ****** ****** ******
  21  ****** ****** ****** ****** ****** ****** ****** ****** ****** ******
      ****** ****** ****** ****** ****** ****** ****** ****** ****** ******
      ****** ****** ****** ****** ****** ****** ****** ****** ****** ******
  22  ****** ****** ****** ****** ****** ****** ****** ****** ****** ******
      ****** ****** ****** ****** ****** ****** ****** ****** ****** ******
      ****** ****** ****** ****** ****** ****** ****** ****** ****** ******
  23  ****** ****** ****** ****** ****** ****** ****** ****** ****** ******
      ****** ****** ****** ****** ****** ****** ****** ****** ****** ******
      ****** ****** ****** ****** ****** ****** ****** ****** ****** ******
  24  ****** ****** ****** ****** ****** ****** ****** ****** ****** ******
      ****** ****** ****** ****** ****** ****** ****** ****** ****** ******
      ****** ****** ****** ****** ****** ****** ****** ****** ****** ******
  25  ****** ****** ****** ****** ****** ****** ****** ****** ****** ******
      ****** ****** ****** ****** ****** ****** ****** ****** ****** ******
      ****** ****** ****** ****** ****** ****** ****** ****** ****** ******

 HEAD WILL BE SAVED ON UNIT   51 AT END OF TIME STEP    1, STRESS PERIOD    4
1
  VOLUMETRIC BUDGET FOR ENTIRE MODEL AT END OF TIME STEP    1, STRESS PERIOD   4
  ------------------------------------------------------------------------------

     CUMULATIVE VOLUMES      L**3       RATES FOR THIS TIME STEP      L**3/T
     ------------------                 ------------------------

           IN:                                      IN:
           ---                                      ---
             STORAGE =    30255139.2593               STORAGE =       19679.7246
       CONSTANT HEAD =     8059165.1971         CONSTANT HEAD =       29938.7200
               WELLS =           0.0000                 WELLS =           0.0000
            RECHARGE =     8804400.0000              RECHARGE =       27600.0000
      STREAM LEAKAGE =     2296519.1109        STREAM LEAKAGE =        8034.1316

            TOTAL IN =    49415223.5673              TOTAL IN =       85252.5762

          OUT:                                     OUT:
          ----                                     ----
             STORAGE =        1229.3177               STORAGE =          13.5090
       CONSTANT HEAD =           0.0000         CONSTANT HEAD =           0.0000
               WELLS =    10449394.7532                 WELLS =       28628.4788
            RECHARGE =           0.0000              RECHARGE =           0.0000
      STREAM LEAKAGE =    38964601.6017        STREAM LEAKAGE =       56610.5894

           TOTAL OUT =    49415225.6726             TOTAL OUT =       85252.5772

            IN - OUT =          -2.1053              IN - OUT =      -1.0101E-03

 PERCENT DISCREPANCY =          -0.00     PERCENT DISCREPANCY =          -0.00






         TIME SUMMARY AT END OF TIME STEP    1 IN STRESS PERIOD    4
                    SECONDS     MINUTES      HOURS       DAYS        YEARS
                    -----------------------------------------------------------
   TIME STEP LENGTH 7.86240E+06 1.31040E+05  2184.0      91.000     0.24914    
 STRESS PERIOD TIME 7.86240E+06 1.31040E+05  2184.0      91.000     0.24914    
         TOTAL TIME 3.15360E+07 5.25600E+05  8760.0      365.00     0.99932    
1
1
                            STRESS PERIOD NO.    5, LENGTH =   92.00000    
                            -----------------------------------------------

                              NUMBER OF TIME STEPS =     1

                               MULTIPLIER FOR DELT =     1.500

                            INITIAL TIME STEP SIZE =   92.00000    

 WELL NO.  LAYER   ROW   COL   STRESS RATE         
 --------------------------------------------------
      1      1     20     17     -0.1195E+05
      2      1     18     14      -7709.    
      3      1      9      3      -2375.    
      4      1     21     12      -6598.    

      4 WELLS

                 RECHARGE =  5.000000E-04

 REUSING STREAM SEGMENT DATA FROM LAST STRESS PERIOD
 
 SOLVING FOR HEAD 


     7 CALLS TO PCG ROUTINE FOR TIME STEP   1 IN STRESS PERIOD    5
    26 TOTAL ITERATIONS

 OUTPUT CONTROL FOR STRESS PERIOD    5   TIME STEP    1
    SAVE BUDGET
    SAVE HEAD FOR ALL LAYERS
    PRINT HEAD FOR ALL LAYERS
 UBDSV2 SAVING "STREAMFLOW OUT  " ON UNIT  50 AT TIME STEP  1, STRESS PERIOD   5



 STREAM LISTING     PERIOD      5   STEP        1

 LAYER ROW COL. STREAM  RCH.  FLOW INTO     FLOW TO   FLOW OUT OF   OVRLND.     DIRECT     STREAM       STREAM     STREAM     STREAM   STREAMBED  STREAMBED
                SEG.NO.  NO.  STRM. RCH.    AQUIFER    STRM. RCH.    RUNOFF     PRECIP       ET          HEAD       DEPTH      WIDTH   CONDCTNC.   GRADIENT

   1   13    1     1     1    1.0000E+05 -1.5864E+03   1.0159E+05  0.000E+00  0.000E+00  0.000E+00  4.84067E+01  1.453E-01  2.000E+01  2.000E+04 -7.932E-02
   1   13    2     1     2    1.0159E+05 -2.5644E+03   1.0415E+05  0.000E+00  0.000E+00  0.000E+00  4.79312E+01  1.471E-01  2.000E+01  2.000E+04 -1.282E-01
   1   14    3     1     3    1.0415E+05 -4.3991E+02   1.0459E+05  0.000E+00  0.000E+00  0.000E+00  4.74552E+01  1.484E-01  2.000E+01  2.000E+04 -2.200E-02
   1   15    4     1     4    1.0459E+05 -3.9686E+02   1.0499E+05  0.000E+00  0.000E+00  0.000E+00  4.69783E+01  1.488E-01  2.000E+01  2.000E+04 -1.984E-02
   1   16    5     1     5    1.0499E+05 -1.1262E+03   1.0611E+05  0.000E+00  0.000E+00  0.000E+00  4.65017E+01  1.494E-01  2.000E+01  2.000E+04 -5.631E-02
   1   16    6     1     6    1.0611E+05 -6.6984E+02   1.0678E+05  0.000E+00  0.000E+00  0.000E+00  4.60252E+01  1.502E-01  2.000E+01  2.000E+04 -3.349E-02
   1   16    7     1     7    1.0678E+05 -5.7141E+02   1.0736E+05  0.000E+00  0.000E+00  0.000E+00  4.55484E+01  1.507E-01  2.000E+01  2.000E+04 -2.857E-02
   1   16    8     1     8    1.0736E+05 -4.3627E+02   1.0779E+05  0.000E+00  0.000E+00  0.000E+00  4.50716E+01  1.511E-01  2.000E+01  2.000E+04 -2.181E-02
   1   16    9     1     9    1.0779E+05 -2.4235E+02   1.0803E+05  0.000E+00  0.000E+00  0.000E+00  4.45946E+01  1.514E-01  2.000E+01  2.000E+04 -1.212E-02
   1   16   10     1    10    1.0803E+05  2.9491E+01   1.0800E+05  0.000E+00  0.000E+00  0.000E+00  4.41174E+01  1.515E-01  2.000E+01  2.000E+04  1.475E-03
   1   16   11     1    11    1.0800E+05  4.2487E+02   1.0758E+05  0.000E+00  0.000E+00  0.000E+00  4.36399E+01  1.513E-01  2.000E+01  2.000E+04  2.124E-02
   1   16   12     1    12    1.0758E+05  1.4278E+03   1.0615E+05  0.000E+00  0.000E+00  0.000E+00  4.31619E+01  1.505E-01  2.000E+01  2.000E+04  7.139E-02
   1   15   13     1    13    1.0615E+05  4.9243E+02   1.0566E+05  0.000E+00  0.000E+00  0.000E+00  4.26838E+01  1.497E-01  2.000E+01  2.000E+04  2.462E-02
   1   14   14     1    14    1.0566E+05 -5.4832E+02   1.0621E+05  0.000E+00  0.000E+00  0.000E+00  4.22066E+01  1.497E-01  2.000E+01  2.000E+04 -2.742E-02
   1   13   15     1    15    1.0621E+05 -1.4927E+03   1.0770E+05  0.000E+00  0.000E+00  0.000E+00  4.17302E+01  1.506E-01  2.000E+01  2.000E+04 -7.464E-02
   1   12   16     1    16    1.0770E+05 -2.8330E+03   1.1053E+05  0.000E+00  0.000E+00  0.000E+00  4.12547E+01  1.524E-01  2.000E+01  2.000E+04 -1.416E-01
   1   12   17     1    17    1.1053E+05 -1.5961E+03   1.1213E+05  0.000E+00  0.000E+00  0.000E+00  4.07793E+01  1.543E-01  2.000E+01  2.000E+04 -7.980E-02
   1   12   18     1    18    1.1213E+05 -1.5096E+03   1.1364E+05  0.000E+00  0.000E+00  0.000E+00  4.03033E+01  1.556E-01  2.000E+01  2.000E+04 -7.548E-02
   1   12   19     1    19    1.1364E+05 -2.2179E+03   1.1586E+05  0.000E+00  0.000E+00  0.000E+00  3.98276E+01  1.571E-01  2.000E+01  2.000E+04 -1.109E-01
   1   13   20     1    20    1.1586E+05 -1.0305E+03   1.1689E+05  0.000E+00  0.000E+00  0.000E+00  3.93516E+01  1.584E-01  2.000E+01  2.000E+04 -5.153E-02
   1   14   21     1    21    1.1689E+05 -2.8172E+02   1.1717E+05  0.000E+00  0.000E+00  0.000E+00  3.88749E+01  1.590E-01  2.000E+01  2.000E+04 -1.409E-02
   1   14   22     1    22    1.1717E+05  4.9916E+03   1.1218E+05  0.000E+00  0.000E+00  0.000E+00  3.83957E+01  1.570E-01  2.000E+01  2.000E+04  2.496E-01
   1    9   30     2     1    5.0000E+04 -6.6907E+02   5.0669E+04  0.000E+00  0.000E+00  0.000E+00  4.02413E+01  1.163E-01  2.000E+01  2.000E+04 -3.345E-02
   1    9   29     2     2    5.0669E+04 -9.7339E+02   5.1642E+04  0.000E+00  0.000E+00  0.000E+00  3.99925E+01  1.175E-01  2.000E+01  2.000E+04 -4.867E-02
   1    9   28     2     3    5.1642E+04 -1.2414E+03   5.2884E+04  0.000E+00  0.000E+00  0.000E+00  3.97440E+01  1.190E-01  2.000E+01  2.000E+04 -6.207E-02
   1    9   27     2     4    5.2884E+04 -2.5735E+03   5.5457E+04  0.000E+00  0.000E+00  0.000E+00  3.94966E+01  1.216E-01  2.000E+01  2.000E+04 -1.287E-01
   1   10   26     2     5    5.5457E+04 -1.7375E+03   5.7195E+04  0.000E+00  0.000E+00  0.000E+00  3.92495E+01  1.245E-01  2.000E+01  2.000E+04 -8.687E-02
   1   11   25     2     6    5.7195E+04 -1.5260E+03   5.8721E+04  0.000E+00  0.000E+00  0.000E+00  3.90016E+01  1.266E-01  2.000E+01  2.000E+04 -7.630E-02
   1   12   24     2     7    5.8721E+04 -1.5967E+03   6.0318E+04  0.000E+00  0.000E+00  0.000E+00  3.87536E+01  1.286E-01  2.000E+01  2.000E+04 -7.983E-02
   1   13   23     2     8    6.0318E+04 -2.4844E+02   6.0566E+04  0.000E+00  0.000E+00  0.000E+00  3.85048E+01  1.298E-01  2.000E+01  2.000E+04 -1.242E-02
   1   14   22     2     9    6.0566E+04  2.1502E+03   5.8416E+04  0.000E+00  0.000E+00  0.000E+00  3.82536E+01  1.286E-01  2.000E+01  2.000E+04  1.075E-01
   1   14   22     3     1    1.7059E+05 -8.4543E+03   1.7905E+05  0.000E+00  0.000E+00  0.000E+00  3.77234E+01  1.678E-01  2.000E+01  2.000E+04 -4.227E-01
   1   15   23     3     2    1.7905E+05 -2.8573E+02   1.7933E+05  0.000E+00  0.000E+00  0.000E+00  3.68370E+01  1.703E-01  2.000E+01  2.000E+04 -1.429E-02
   1   15   24     3     3    1.7933E+05 -2.0361E+02   1.7954E+05  0.000E+00  0.000E+00  0.000E+00  3.59482E+01  1.705E-01  2.000E+01  2.000E+04 -1.018E-02
   1   15   25     3     4    1.7954E+05 -2.1952E+02   1.7976E+05  0.000E+00  0.000E+00  0.000E+00  3.50595E+01  1.706E-01  2.000E+01  2.000E+04 -1.098E-02
   1   15   26     3     5    1.7976E+05 -2.8496E+02   1.8004E+05  0.000E+00  0.000E+00  0.000E+00  3.41707E+01  1.707E-01  2.000E+01  2.000E+04 -1.425E-02
   1   16   27     3     6    1.8004E+05 -3.0272E+02   1.8034E+05  0.000E+00  0.000E+00  0.000E+00  3.32820E+01  1.709E-01  2.000E+01  2.000E+04 -1.514E-02
   1   17   28     3     7    1.8034E+05 -1.3344E+03   1.8168E+05  0.000E+00  0.000E+00  0.000E+00  3.23936E+01  1.714E-01  2.000E+01  2.000E+04 -6.672E-02
   1   18   29     3     8    1.8168E+05 -2.5250E+03   1.8420E+05  0.000E+00  0.000E+00  0.000E+00  3.15058E+01  1.725E-01  2.000E+01  2.000E+04 -1.262E-01
   1   18   30     3     9    1.8420E+05 -2.9350E+03   1.8714E+05  0.000E+00  0.000E+00  0.000E+00  3.06184E+01  1.740E-01  2.000E+01  2.000E+04 -1.467E-01



1
              HEAD IN LAYER   1 AT END OF TIME STEP   1 IN STRESS PERIOD    5
  ---------------------------------------------------------------------------

          1      2      3      4      5      6      7      8      9     10
         11     12     13     14     15     16     17     18     19     20
         21     22     23     24     25     26     27     28     29     30
 .........................................................................
   1  ****** ****** ****** ****** ****** ****** ****** ****** ****** ******
      ****** ****** ****** ****** ****** ****** ****** ****** ****** ******
      ****** ****** ****** ****** ****** ****** ****** ****** ****** ******
   2  ****** ****** ****** ****** ****** ****** ****** ****** ****** ******
      ****** ****** ****** ****** ****** ****** ****** ****** ****** ******
      ****** ****** ****** ****** ****** ****** ****** ****** ****** ******
   3  ****** ****** ****** ****** ****** ****** ****** ****** ****** ******
      ****** ****** ****** ****** ****** ****** ****** ****** ****** ******
      ****** ****** ****** ****** ****** ****** ****** ****** ****** ******
   4  ****** ****** ****** ****** ****** ****** ****** ****** ****** ******
      ****** ****** ****** ****** ****** ****** ****** ****** ****** ******
      ****** ****** ****** ****** ****** ****** ****** ****** ****** ******
   5  ****** ****** ****** ****** ****** ****** ****** ****** ****** ******
      ****** ****** ****** ****** ****** ****** ****** ****** ****** ******
      ****** ****** ****** ****** ****** ****** ****** ****** ****** ******
   6  ****** ****** ****** ****** ****** ****** ****** ****** ****** ******
      ****** ****** ****** ****** ****** ****** ****** ****** ****** ******
      ****** ****** ****** ****** ****** ****** ****** ****** ****** ******
   7  ****** ****** ****** ****** ****** ****** ****** ****** ****** ******
      ****** ****** ****** ****** ****** ****** ****** ****** ****** ******
      ****** ****** ****** ****** ****** ****** ****** ****** ****** ******
   8  ****** ****** ****** ****** ****** ****** ****** ****** ****** ******
      ****** ****** ****** ****** ****** ****** ****** ****** ****** ******
      ****** ****** ****** ****** ****** ****** ****** ****** ****** ******
   9  ****** ****** ****** ****** ****** ****** ****** ****** ****** ******
      ****** ****** ****** ****** ****** ****** ****** ****** ****** ******
      ****** ****** ****** ****** ****** ****** ****** ****** ****** ******
  10  ****** ****** ****** ****** ****** ****** ****** ****** ****** ******
      ****** ****** ****** ****** ****** ****** ****** ****** ****** ******
      ****** ****** ****** ****** ****** ****** ****** ****** ****** ******
  11  ****** ****** ****** ****** ****** ****** ****** ****** ****** ******
      ****** ****** ****** ****** ****** ****** ****** ****** ****** ******
      ****** ****** ****** ****** ****** ****** ****** ****** ****** ******
  12  ****** ****** ****** ****** ****** ****** ****** ****** ****** ******
      ****** ****** ****** ****** ****** ****** ****** ****** ****** ******
      ****** ****** ****** ****** ****** ****** ****** ****** ****** ******
  13  ****** ****** ****** ****** ****** ****** ****** ****** ****** ******
      ****** ****** ****** ****** ****** ****** ****** ****** ****** ******
      ****** ****** ****** ****** ****** ****** ****** ****** ****** ******
  14  ****** ****** ****** ****** ****** ****** ****** ****** ****** ******
      ****** ****** ****** ****** ****** ****** ****** ****** ****** ******
      ****** ****** ****** ****** ****** ****** ****** ****** ****** ******
  15  ****** ****** ****** ****** ****** ****** ****** ****** ****** ******
      ****** ****** ****** ****** ****** ****** ****** ****** ****** ******
      ****** ****** ****** ****** ****** ****** ****** ****** ****** ******
  16  ****** ****** ****** ****** ****** ****** ****** ****** ****** ******
      ****** ****** ****** ****** ****** ****** ****** ****** ****** ******
      ****** ****** ****** ****** ****** ****** ****** ****** ****** ******
  17  ****** ****** ****** ****** ****** ****** ****** ****** ****** ******
      ****** ****** ****** ****** ****** ****** ****** ****** ****** ******
      ****** ****** ****** ****** ****** ****** ****** ****** ****** ******
  18  ****** ****** ****** ****** ****** ****** ****** ****** ****** ******
      ****** ****** ****** ****** ****** ****** ****** ****** ****** ******
      ****** ****** ****** ****** ****** ****** ****** ****** ****** ******
  19  ****** ****** ****** ****** ****** ****** ****** ****** ****** ******
      ****** ****** ****** ****** ****** ****** ****** ****** ****** ******
      ****** ****** ****** ****** ****** ****** ****** ****** ****** ******
  20  ****** ****** ****** ****** ****** ****** ****** ****** ****** ******
      ****** ****** ****** ****** ****** ****** ****** ****** ****** ******
      ****** ****** ****** ****** ****** ****** ****** ****** ****** ******
  21  ****** ****** ****** ****** ****** ****** ****** ****** ****** ******
      ****** ****** ****** ****** ****** ****** ****** ****** ****** ******
      ****** ****** ****** ****** ****** ****** ****** ****** ****** ******
  22  ****** ****** ****** ****** ****** ****** ****** ****** ****** ******
      ****** ****** ****** ****** ****** ****** ****** ****** ****** ******
      ****** ****** ****** ****** ****** ****** ****** ****** ****** ******
  23  ****** ****** ****** ****** ****** ****** ****** ****** ****** ******
      ****** ****** ****** ****** ****** ****** ****** ****** ****** ******
      ****** ****** ****** ****** ****** ****** ****** ****** ****** ******
  24  ****** ****** ****** ****** ****** ****** ****** ****** ****** ******
      ****** ****** ****** ****** ****** ****** ****** ****** ****** ******
      ****** ****** ****** ****** ****** ****** ****** ****** ****** ******
  25  ****** ****** ****** ****** ****** ****** ****** ****** ****** ******
      ****** ****** ****** ****** ****** ****** ****** ****** ****** ******
      ****** ****** ****** ****** ****** ****** ****** ****** ****** ******

 HEAD WILL BE SAVED ON UNIT   51 AT END OF TIME STEP    1, STRESS PERIOD    5
1
  VOLUMETRIC BUDGET FOR ENTIRE MODEL AT END OF TIME STEP    1, STRESS PERIOD   5
  ------------------------------------------------------------------------------

     CUMULATIVE VOLUMES      L**3       RATES FOR THIS TIME STEP      L**3/T
     ------------------                 ------------------------

           IN:                                      IN:
           ---                                      ---
             STORAGE =    32000808.7422               STORAGE =       18974.6683
       CONSTANT HEAD =    11094417.4989         CONSTANT HEAD =       32991.8728
               WELLS =           0.0000                 WELLS =           0.0000
            RECHARGE =    10074000.0000              RECHARGE =       13800.0000
      STREAM LEAKAGE =     3172021.2270        STREAM LEAKAGE =        9516.3273

            TOTAL IN =    56341247.4681              TOTAL IN =       75282.8685

          OUT:                                     OUT:
          ----                                     ----
             STORAGE =        1229.3177               STORAGE =           0.0000
       CONSTANT HEAD =           0.0000         CONSTANT HEAD =           0.0000
               WELLS =    13083214.8006                 WELLS =       28628.4788
            RECHARGE =           0.0000              RECHARGE =           0.0000
      STREAM LEAKAGE =    43256805.7684        STREAM LEAKAGE =       46654.3931

           TOTAL OUT =    56341249.8868             TOTAL OUT =       75282.8719

            IN - OUT =          -2.4187              IN - OUT =      -3.4064E-03

 PERCENT DISCREPANCY =          -0.00     PERCENT DISCREPANCY =          -0.00






         TIME SUMMARY AT END OF TIME STEP    1 IN STRESS PERIOD    5
                    SECONDS     MINUTES      HOURS       DAYS        YEARS
                    -----------------------------------------------------------
   TIME STEP LENGTH 7.94880E+06 1.32480E+05  2208.0      92.000     0.25188    
 STRESS PERIOD TIME 7.94880E+06 1.32480E+05  2208.0      92.000     0.25188    
         TOTAL TIME 3.94848E+07 6.58080E+05  10968.      457.00      1.2512    
1
1
                            STRESS PERIOD NO.    6, LENGTH =   91.00000    
                            -----------------------------------------------

                              NUMBER OF TIME STEPS =     1

                               MULTIPLIER FOR DELT =     1.500

                            INITIAL TIME STEP SIZE =   91.00000    

 WELL NO.  LAYER   ROW   COL   STRESS RATE         
 --------------------------------------------------
      1      1     20     17     -0.1195E+05
      2      1     18     14      -7709.    
      3      1      9      3      -2375.    
      4      1     21     12      -6598.    

      4 WELLS

                 RECHARGE =  2.000000E-03

 REUSING STREAM SEGMENT DATA FROM LAST STRESS PERIOD
 
 SOLVING FOR HEAD 


     7 CALLS TO PCG ROUTINE FOR TIME STEP   1 IN STRESS PERIOD    6
    26 TOTAL ITERATIONS

 OUTPUT CONTROL FOR STRESS PERIOD    6   TIME STEP    1
    SAVE BUDGET
    SAVE HEAD FOR ALL LAYERS
    PRINT HEAD FOR ALL LAYERS
 UBDSV2 SAVING "STREAMFLOW OUT  " ON UNIT  50 AT TIME STEP  1, STRESS PERIOD   6



 STREAM LISTING     PERIOD      6   STEP        1

 LAYER ROW COL. STREAM  RCH.  FLOW INTO     FLOW TO   FLOW OUT OF   OVRLND.     DIRECT     STREAM       STREAM     STREAM     STREAM   STREAMBED  STREAMBED
                SEG.NO.  NO.  STRM. RCH.    AQUIFER    STRM. RCH.    RUNOFF     PRECIP       ET          HEAD       DEPTH      WIDTH   CONDCTNC.   GRADIENT

   1   13    1     1     1    1.0000E+05 -1.8905E+03   1.0189E+05  0.000E+00  0.000E+00  0.000E+00  4.84068E+01  1.455E-01  2.000E+01  2.000E+04 -9.452E-02
   1   13    2     1     2    1.0189E+05 -2.8973E+03   1.0479E+05  0.000E+00  0.000E+00  0.000E+00  4.79316E+01  1.475E-01  2.000E+01  2.000E+04 -1.449E-01
   1   14    3     1     3    1.0479E+05 -5.9188E+02   1.0538E+05  0.000E+00  0.000E+00  0.000E+00  4.74558E+01  1.490E-01  2.000E+01  2.000E+04 -2.959E-02
   1   15    4     1     4    1.0538E+05 -5.5970E+02   1.0594E+05  0.000E+00  0.000E+00  0.000E+00  4.69791E+01  1.495E-01  2.000E+01  2.000E+04 -2.798E-02
   1   16    5     1     5    1.0594E+05 -1.6011E+03   1.0754E+05  0.000E+00  0.000E+00  0.000E+00  4.65027E+01  1.504E-01  2.000E+01  2.000E+04 -8.006E-02
   1   16    6     1     6    1.0754E+05 -9.4920E+02   1.0849E+05  0.000E+00  0.000E+00  0.000E+00  4.60265E+01  1.515E-01  2.000E+01  2.000E+04 -4.746E-02
   1   16    7     1     7    1.0849E+05 -8.3585E+02   1.0933E+05  0.000E+00  0.000E+00  0.000E+00  4.55500E+01  1.523E-01  2.000E+01  2.000E+04 -4.179E-02
   1   16    8     1     8    1.0933E+05 -6.9587E+02   1.1002E+05  0.000E+00  0.000E+00  0.000E+00  4.50733E+01  1.529E-01  2.000E+01  2.000E+04 -3.479E-02
   1   16    9     1     9    1.1002E+05 -5.0081E+02   1.1052E+05  0.000E+00  0.000E+00  0.000E+00  4.45966E+01  1.534E-01  2.000E+01  2.000E+04 -2.504E-02
   1   16   10     1    10    1.1052E+05 -2.2946E+02   1.1075E+05  0.000E+00  0.000E+00  0.000E+00  4.41196E+01  1.537E-01  2.000E+01  2.000E+04 -1.147E-02
   1   16   11     1    11    1.1075E+05  1.6470E+02   1.1059E+05  0.000E+00  0.000E+00  0.000E+00  4.36424E+01  1.537E-01  2.000E+01  2.000E+04  8.235E-03
   1   16   12     1    12    1.1059E+05  1.0112E+03   1.0958E+05  0.000E+00  0.000E+00  0.000E+00  4.31646E+01  1.532E-01  2.000E+01  2.000E+04  5.056E-02
   1   15   13     1    13    1.0958E+05  5.6311E+01   1.0952E+05  0.000E+00  0.000E+00  0.000E+00  4.26869E+01  1.528E-01  2.000E+01  2.000E+04  2.816E-03
   1   14   14     1    14    1.0952E+05 -9.8482E+02   1.1050E+05  0.000E+00  0.000E+00  0.000E+00  4.22100E+01  1.532E-01  2.000E+01  2.000E+04 -4.924E-02
   1   13   15     1    15    1.1050E+05 -1.9155E+03   1.1242E+05  0.000E+00  0.000E+00  0.000E+00  4.17339E+01  1.544E-01  2.000E+01  2.000E+04 -9.577E-02
   1   12   16     1    16    1.1242E+05 -3.2192E+03   1.1564E+05  0.000E+00  0.000E+00  0.000E+00  4.12588E+01  1.565E-01  2.000E+01  2.000E+04 -1.610E-01
   1   12   17     1    17    1.1564E+05 -1.9074E+03   1.1755E+05  0.000E+00  0.000E+00  0.000E+00  4.07836E+01  1.586E-01  2.000E+01  2.000E+04 -9.537E-02
   1   12   18     1    18    1.1755E+05 -1.8245E+03   1.1937E+05  0.000E+00  0.000E+00  0.000E+00  4.03079E+01  1.601E-01  2.000E+01  2.000E+04 -9.122E-02
   1   12   19     1    19    1.1937E+05 -2.6132E+03   1.2198E+05  0.000E+00  0.000E+00  0.000E+00  3.98324E+01  1.619E-01  2.000E+01  2.000E+04 -1.307E-01
   1   13   20     1    20    1.2198E+05 -1.4412E+03   1.2343E+05  0.000E+00  0.000E+00  0.000E+00  3.93567E+01  1.635E-01  2.000E+01  2.000E+04 -7.206E-02
   1   14   21     1    21    1.2343E+05 -6.6759E+02   1.2409E+05  0.000E+00  0.000E+00  0.000E+00  3.88803E+01  1.644E-01  2.000E+01  2.000E+04 -3.338E-02
   1   14   22     1    22    1.2409E+05  4.8904E+03   1.1920E+05  0.000E+00  0.000E+00  0.000E+00  3.84013E+01  1.627E-01  2.000E+01  2.000E+04  2.445E-01
   1    9   30     2     1    5.0000E+04 -1.0361E+03   5.1036E+04  0.000E+00  0.000E+00  0.000E+00  4.02416E+01  1.166E-01  2.000E+01  2.000E+04 -5.180E-02
   1    9   29     2     2    5.1036E+04 -1.3362E+03   5.2372E+04  0.000E+00  0.000E+00  0.000E+00  3.99932E+01  1.182E-01  2.000E+01  2.000E+04 -6.681E-02
   1    9   28     2     3    5.2372E+04 -1.5978E+03   5.3970E+04  0.000E+00  0.000E+00  0.000E+00  3.97452E+01  1.202E-01  2.000E+01  2.000E+04 -7.989E-02
   1    9   27     2     4    5.3970E+04 -3.0267E+03   5.6997E+04  0.000E+00  0.000E+00  0.000E+00  3.94983E+01  1.233E-01  2.000E+01  2.000E+04 -1.513E-01
   1   10   26     2     5    5.6997E+04 -2.2130E+03   5.9210E+04  0.000E+00  0.000E+00  0.000E+00  3.92518E+01  1.268E-01  2.000E+01  2.000E+04 -1.107E-01
   1   11   25     2     6    5.9210E+04 -1.9862E+03   6.1196E+04  0.000E+00  0.000E+00  0.000E+00  3.90045E+01  1.295E-01  2.000E+01  2.000E+04 -9.931E-02
   1   12   24     2     7    6.1196E+04 -2.0116E+03   6.3208E+04  0.000E+00  0.000E+00  0.000E+00  3.87571E+01  1.321E-01  2.000E+01  2.000E+04 -1.006E-01
   1   13   23     2     8    6.3208E+04 -3.8699E+02   6.3595E+04  0.000E+00  0.000E+00  0.000E+00  3.85086E+01  1.336E-01  2.000E+01  2.000E+04 -1.935E-02
   1   14   22     2     9    6.3595E+04  2.0152E+03   6.1579E+04  0.000E+00  0.000E+00  0.000E+00  3.82576E+01  1.326E-01  2.000E+01  2.000E+04  1.008E-01
   1   14   22     3     1    1.8078E+05 -8.5521E+03   1.8933E+05  0.000E+00  0.000E+00  0.000E+00  3.77292E+01  1.737E-01  2.000E+01  2.000E+04 -4.276E-01
   1   15   23     3     2    1.8933E+05 -4.1656E+02   1.8975E+05  0.000E+00  0.000E+00  0.000E+00  3.68428E+01  1.762E-01  2.000E+01  2.000E+04 -2.083E-02
   1   15   24     3     3    1.8975E+05 -3.2244E+02   1.9007E+05  0.000E+00  0.000E+00  0.000E+00  3.59542E+01  1.764E-01  2.000E+01  2.000E+04 -1.612E-02
   1   15   25     3     4    1.9007E+05 -3.4342E+02   1.9042E+05  0.000E+00  0.000E+00  0.000E+00  3.50654E+01  1.766E-01  2.000E+01  2.000E+04 -1.717E-02
   1   15   26     3     5    1.9042E+05 -4.3481E+02   1.9085E+05  0.000E+00  0.000E+00  0.000E+00  3.41768E+01  1.768E-01  2.000E+01  2.000E+04 -2.174E-02
   1   16   27     3     6    1.9085E+05 -4.6859E+02   1.9132E+05  0.000E+00  0.000E+00  0.000E+00  3.32881E+01  1.770E-01  2.000E+01  2.000E+04 -2.343E-02
   1   17   28     3     7    1.9132E+05 -1.7868E+03   1.9311E+05  0.000E+00  0.000E+00  0.000E+00  3.23999E+01  1.777E-01  2.000E+01  2.000E+04 -8.934E-02
   1   18   29     3     8    1.9311E+05 -2.9419E+03   1.9605E+05  0.000E+00  0.000E+00  0.000E+00  3.15123E+01  1.790E-01  2.000E+01  2.000E+04 -1.471E-01
   1   18   30     3     9    1.9605E+05 -3.2777E+03   1.9933E+05  0.000E+00  0.000E+00  0.000E+00  3.06251E+01  1.807E-01  2.000E+01  2.000E+04 -1.639E-01



1
              HEAD IN LAYER   1 AT END OF TIME STEP   1 IN STRESS PERIOD    6
  ---------------------------------------------------------------------------

          1      2      3      4      5      6      7      8      9     10
         11     12     13     14     15     16     17     18     19     20
         21     22     23     24     25     26     27     28     29     30
 .........................................................................
   1  ****** ****** ****** ****** ****** ****** ****** ****** ****** ******
      ****** ****** ****** ****** ****** ****** ****** ****** ****** ******
      ****** ****** ****** ****** ****** ****** ****** ****** ****** ******
   2  ****** ****** ****** ****** ****** ****** ****** ****** ****** ******
      ****** ****** ****** ****** ****** ****** ****** ****** ****** ******
      ****** ****** ****** ****** ****** ****** ****** ****** ****** ******
   3  ****** ****** ****** ****** ****** ****** ****** ****** ****** ******
      ****** ****** ****** ****** ****** ****** ****** ****** ****** ******
      ****** ****** ****** ****** ****** ****** ****** ****** ****** ******
   4  ****** ****** ****** ****** ****** ****** ****** ****** ****** ******
      ****** ****** ****** ****** ****** ****** ****** ****** ****** ******
      ****** ****** ****** ****** ****** ****** ****** ****** ****** ******
   5  ****** ****** ****** ****** ****** ****** ****** ****** ****** ******
      ****** ****** ****** ****** ****** ****** ****** ****** ****** ******
      ****** ****** ****** ****** ****** ****** ****** ****** ****** ******
   6  ****** ****** ****** ****** ****** ****** ****** ****** ****** ******
      ****** ****** ****** ****** ****** ****** ****** ****** ****** ******
      ****** ****** ****** ****** ****** ****** ****** ****** ****** ******
   7  ****** ****** ****** ****** ****** ****** ****** ****** ****** ******
      ****** ****** ****** ****** ****** ****** ****** ****** ****** ******
      ****** ****** ****** ****** ****** ****** ****** ****** ****** ******
   8  ****** ****** ****** ****** ****** ****** ****** ****** ****** ******
      ****** ****** ****** ****** ****** ****** ****** ****** ****** ******
      ****** ****** ****** ****** ****** ****** ****** ****** ****** ******
   9  ****** ****** ****** ****** ****** ****** ****** ****** ****** ******
      ****** ****** ****** ****** ****** ****** ****** ****** ****** ******
      ****** ****** ****** ****** ****** ****** ****** ****** ****** ******
  10  ****** ****** ****** ****** ****** ****** ****** ****** ****** ******
      ****** ****** ****** ****** ****** ****** ****** ****** ****** ******
      ****** ****** ****** ****** ****** ****** ****** ****** ****** ******
  11  ****** ****** ****** ****** ****** ****** ****** ****** ****** ******
      ****** ****** ****** ****** ****** ****** ****** ****** ****** ******
      ****** ****** ****** ****** ****** ****** ****** ****** ****** ******
  12  ****** ****** ****** ****** ****** ****** ****** ****** ****** ******
      ****** ****** ****** ****** ****** ****** ****** ****** ****** ******
      ****** ****** ****** ****** ****** ****** ****** ****** ****** ******
  13  ****** ****** ****** ****** ****** ****** ****** ****** ****** ******
      ****** ****** ****** ****** ****** ****** ****** ****** ****** ******
      ****** ****** ****** ****** ****** ****** ****** ****** ****** ******
  14  ****** ****** ****** ****** ****** ****** ****** ****** ****** ******
      ****** ****** ****** ****** ****** ****** ****** ****** ****** ******
      ****** ****** ****** ****** ****** ****** ****** ****** ****** ******
  15  ****** ****** ****** ****** ****** ****** ****** ****** ****** ******
      ****** ****** ****** ****** ****** ****** ****** ****** ****** ******
      ****** ****** ****** ****** ****** ****** ****** ****** ****** ******
  16  ****** ****** ****** ****** ****** ****** ****** ****** ****** ******
      ****** ****** ****** ****** ****** ****** ****** ****** ****** ******
      ****** ****** ****** ****** ****** ****** ****** ****** ****** ******
  17  ****** ****** ****** ****** ****** ****** ****** ****** ****** ******
      ****** ****** ****** ****** ****** ****** ****** ****** ****** ******
      ****** ****** ****** ****** ****** ****** ****** ****** ****** ******
  18  ****** ****** ****** ****** ****** ****** ****** ****** ****** ******
      ****** ****** ****** ****** ****** ****** ****** ****** ****** ******
      ****** ****** ****** ****** ****** ****** ****** ****** ****** ******
  19  ****** ****** ****** ****** ****** ****** ****** ****** ****** ******
      ****** ****** ****** ****** ****** ****** ****** ****** ****** ******
      ****** ****** ****** ****** ****** ****** ****** ****** ****** ******
  20  ****** ****** ****** ****** ****** ****** ****** ****** ****** ******
      ****** ****** ****** ****** ****** ****** ****** ****** ****** ******
      ****** ****** ****** ****** ****** ****** ****** ****** ****** ******
  21  ****** ****** ****** ****** ****** ****** ****** ****** ****** ******
      ****** ****** ****** ****** ****** ****** ****** ****** ****** ******
      ****** ****** ****** ****** ****** ****** ****** ****** ****** ******
  22  ****** ****** ****** ****** ****** ****** ****** ****** ****** ******
      ****** ****** ****** ****** ****** ****** ****** ****** ****** ******
      ****** ****** ****** ****** ****** ****** ****** ****** ****** ******
  23  ****** ****** ****** ****** ****** ****** ****** ****** ****** ******
      ****** ****** ****** ****** ****** ****** ****** ****** ****** ******
      ****** ****** ****** ****** ****** ****** ****** ****** ****** ******
  24  ****** ****** ****** ****** ****** ****** ****** ****** ****** ******
      ****** ****** ****** ****** ****** ****** ****** ****** ****** ******
      ****** ****** ****** ****** ****** ****** ****** ****** ****** ******
  25  ****** ****** ****** ****** ****** ****** ****** ****** ****** ******
      ****** ****** ****** ****** ****** ****** ****** ****** ****** ******
      ****** ****** ****** ****** ****** ****** ****** ****** ****** ******

 HEAD WILL BE SAVED ON UNIT   51 AT END OF TIME STEP    1, STRESS PERIOD    6
1
  VOLUMETRIC BUDGET FOR ENTIRE MODEL AT END OF TIME STEP    1, STRESS PERIOD   6
  ------------------------------------------------------------------------------

     CUMULATIVE VOLUMES      L**3       RATES FOR THIS TIME STEP      L**3/T
     ------------------                 ------------------------

           IN:                                      IN:
           ---                                      ---
             STORAGE =    32000808.7422               STORAGE =           0.0000
       CONSTANT HEAD =    13929829.7846         CONSTANT HEAD =       31158.3768
               WELLS =           0.0000                 WELLS =           0.0000
            RECHARGE =    15097200.0000              RECHARGE =       55200.0000
      STREAM LEAKAGE =     3912567.9519        STREAM LEAKAGE =        8137.8761

            TOTAL IN =    64940406.4787              TOTAL IN =       94496.2529

          OUT:                                     OUT:
          ----                                     ----
             STORAGE =      765986.3109               STORAGE =        8403.9230
       CONSTANT HEAD =           0.0000         CONSTANT HEAD =           0.0000
               WELLS =    15688406.3692                 WELLS =       28628.4788
            RECHARGE =           0.0000              RECHARGE =           0.0000
      STREAM LEAKAGE =    48486015.9546        STREAM LEAKAGE =       57463.8482

           TOTAL OUT =    64940408.6347             TOTAL OUT =       94496.2500

            IN - OUT =          -2.1560              IN - OUT =       2.8860E-03

 PERCENT DISCREPANCY =          -0.00     PERCENT DISCREPANCY =           0.00






         TIME SUMMARY AT END OF TIME STEP    1 IN STRESS PERIOD    6
                    SECONDS     MINUTES      HOURS       DAYS        YEARS
                    -----------------------------------------------------------
   TIME STEP LENGTH 7.86240E+06 1.31040E+05  2184.0      91.000     0.24914    
 STRESS PERIOD TIME 7.86240E+06 1.31040E+05  2184.0      91.000     0.24914    
         TOTAL TIME 4.73472E+07 7.89120E+05  13152.      548.00      1.5003    
1
1
                            STRESS PERIOD NO.    7, LENGTH =   91.00000    
                            -----------------------------------------------

                              NUMBER OF TIME STEPS =     1

                               MULTIPLIER FOR DELT =     1.500

                            INITIAL TIME STEP SIZE =   91.00000    

 WELL NO.  LAYER   ROW   COL   STRESS RATE         
 --------------------------------------------------
      1      1     20     17     -0.1195E+05
      2      1     18     14      -7709.    
      3      1      9      3      -2375.    
      4      1     21     12      -6598.    

      4 WELLS

                 RECHARGE =   0.00000    

 REUSING STREAM SEGMENT DATA FROM LAST STRESS PERIOD
 
 SOLVING FOR HEAD 


     7 CALLS TO PCG ROUTINE FOR TIME STEP   1 IN STRESS PERIOD    7
    26 TOTAL ITERATIONS

 OUTPUT CONTROL FOR STRESS PERIOD    7   TIME STEP    1
    SAVE BUDGET
    SAVE HEAD FOR ALL LAYERS
    PRINT HEAD FOR ALL LAYERS
 UBDSV2 SAVING "STREAMFLOW OUT  " ON UNIT  50 AT TIME STEP  1, STRESS PERIOD   7



 STREAM LISTING     PERIOD      7   STEP        1

 LAYER ROW COL. STREAM  RCH.  FLOW INTO     FLOW TO   FLOW OUT OF   OVRLND.     DIRECT     STREAM       STREAM     STREAM     STREAM   STREAMBED  STREAMBED
                SEG.NO.  NO.  STRM. RCH.    AQUIFER    STRM. RCH.    RUNOFF     PRECIP       ET          HEAD       DEPTH      WIDTH   CONDCTNC.   GRADIENT

   1   13    1     1     1    1.0000E+05 -1.2191E+03   1.0122E+05  0.000E+00  0.000E+00  0.000E+00  4.84065E+01  1.452E-01  2.000E+01  2.000E+04 -6.096E-02
   1   13    2     1     2    1.0122E+05 -2.1463E+03   1.0337E+05  0.000E+00  0.000E+00  0.000E+00  4.79307E+01  1.466E-01  2.000E+01  2.000E+04 -1.073E-01
   1   14    3     1     3    1.0337E+05 -3.3837E+02   1.0370E+05  0.000E+00  0.000E+00  0.000E+00  4.74545E+01  1.477E-01  2.000E+01  2.000E+04 -1.692E-02
   1   15    4     1     4    1.0370E+05 -2.9507E+02   1.0400E+05  0.000E+00  0.000E+00  0.000E+00  4.69775E+01  1.480E-01  2.000E+01  2.000E+04 -1.475E-02
   1   16    5     1     5    1.0400E+05 -8.3613E+02   1.0483E+05  0.000E+00  0.000E+00  0.000E+00  4.65007E+01  1.485E-01  2.000E+01  2.000E+04 -4.181E-02
   1   16    6     1     6    1.0483E+05 -4.8846E+02   1.0532E+05  0.000E+00  0.000E+00  0.000E+00  4.60240E+01  1.490E-01  2.000E+01  2.000E+04 -2.442E-02
   1   16    7     1     7    1.0532E+05 -3.9376E+02   1.0572E+05  0.000E+00  0.000E+00  0.000E+00  4.55471E+01  1.494E-01  2.000E+01  2.000E+04 -1.969E-02
   1   16    8     1     8    1.0572E+05 -2.5962E+02   1.0598E+05  0.000E+00  0.000E+00  0.000E+00  4.50701E+01  1.497E-01  2.000E+01  2.000E+04 -1.298E-02
   1   16    9     1     9    1.0598E+05 -6.7411E+01   1.0604E+05  0.000E+00  0.000E+00  0.000E+00  4.45930E+01  1.498E-01  2.000E+01  2.000E+04 -3.371E-03
   1   16   10     1    10    1.0604E+05  2.0202E+02   1.0584E+05  0.000E+00  0.000E+00  0.000E+00  4.41157E+01  1.498E-01  2.000E+01  2.000E+04  1.010E-02
   1   16   11     1    11    1.0584E+05  5.9846E+02   1.0524E+05  0.000E+00  0.000E+00  0.000E+00  4.36380E+01  1.494E-01  2.000E+01  2.000E+04  2.992E-02
   1   16   12     1    12    1.0524E+05  1.7415E+03   1.0350E+05  0.000E+00  0.000E+00  0.000E+00  4.31598E+01  1.484E-01  2.000E+01  2.000E+04  8.707E-02
   1   15   13     1    13    1.0350E+05  8.3358E+02   1.0267E+05  0.000E+00  0.000E+00  0.000E+00  4.26814E+01  1.473E-01  2.000E+01  2.000E+04  4.168E-02
   1   14   14     1    14    1.0267E+05 -1.8259E+02   1.0285E+05  0.000E+00  0.000E+00  0.000E+00  4.22039E+01  1.470E-01  2.000E+01  2.000E+04 -9.130E-03
   1   13   15     1    15    1.0285E+05 -1.1142E+03   1.0397E+05  0.000E+00  0.000E+00  0.000E+00  4.17271E+01  1.476E-01  2.000E+01  2.000E+04 -5.571E-02
   1   12   16     1    16    1.0397E+05 -2.4295E+03   1.0639E+05  0.000E+00  0.000E+00  0.000E+00  4.12514E+01  1.491E-01  2.000E+01  2.000E+04 -1.215E-01
   1   12   17     1    17    1.0639E+05 -1.3309E+03   1.0773E+05  0.000E+00  0.000E+00  0.000E+00  4.07757E+01  1.507E-01  2.000E+01  2.000E+04 -6.655E-02
   1   12   18     1    18    1.0773E+05 -1.2617E+03   1.0899E+05  0.000E+00  0.000E+00  0.000E+00  4.02995E+01  1.518E-01  2.000E+01  2.000E+04 -6.309E-02
   1   12   19     1    19    1.0899E+05 -1.9278E+03   1.1092E+05  0.000E+00  0.000E+00  0.000E+00  3.98236E+01  1.531E-01  2.000E+01  2.000E+04 -9.639E-02
   1   13   20     1    20    1.1092E+05 -7.6664E+02   1.1168E+05  0.000E+00  0.000E+00  0.000E+00  3.93474E+01  1.542E-01  2.000E+01  2.000E+04 -3.833E-02
   1   14   21     1    21    1.1168E+05  6.0492E+00   1.1168E+05  0.000E+00  0.000E+00  0.000E+00  3.88705E+01  1.546E-01  2.000E+01  2.000E+04  3.025E-04
   1   14   22     1    22    1.1168E+05  5.0455E+03   1.0663E+05  0.000E+00  0.000E+00  0.000E+00  3.83911E+01  1.525E-01  2.000E+01  2.000E+04  2.523E-01
   1    9   30     2     1    5.0000E+04 -5.2429E+02   5.0524E+04  0.000E+00  0.000E+00  0.000E+00  4.02412E+01  1.162E-01  2.000E+01  2.000E+04 -2.621E-02
   1    9   29     2     2    5.0524E+04 -8.2629E+02   5.1351E+04  0.000E+00  0.000E+00  0.000E+00  3.99922E+01  1.172E-01  2.000E+01  2.000E+04 -4.131E-02
   1    9   28     2     3    5.1351E+04 -1.0869E+03   5.2437E+04  0.000E+00  0.000E+00  0.000E+00  3.97435E+01  1.185E-01  2.000E+01  2.000E+04 -5.434E-02
   1    9   27     2     4    5.2437E+04 -2.3336E+03   5.4771E+04  0.000E+00  0.000E+00  0.000E+00  3.94958E+01  1.208E-01  2.000E+01  2.000E+04 -1.167E-01
   1   10   26     2     5    5.4771E+04 -1.5170E+03   5.6288E+04  0.000E+00  0.000E+00  0.000E+00  3.92484E+01  1.234E-01  2.000E+01  2.000E+04 -7.585E-02
   1   11   25     2     6    5.6288E+04 -1.3184E+03   5.7606E+04  0.000E+00  0.000E+00  0.000E+00  3.90003E+01  1.253E-01  2.000E+01  2.000E+04 -6.592E-02
   1   12   24     2     7    5.7606E+04 -1.4027E+03   5.9009E+04  0.000E+00  0.000E+00  0.000E+00  3.87521E+01  1.271E-01  2.000E+01  2.000E+04 -7.013E-02
   1   13   23     2     8    5.9009E+04 -1.9544E+02   5.9205E+04  0.000E+00  0.000E+00  0.000E+00  3.85031E+01  1.281E-01  2.000E+01  2.000E+04 -9.772E-03
   1   14   22     2     9    5.9205E+04  2.2587E+03   5.6946E+04  0.000E+00  0.000E+00  0.000E+00  3.82518E+01  1.268E-01  2.000E+01  2.000E+04  1.129E-01
   1   14   22     3     1    1.6358E+05 -8.3906E+03   1.7197E+05  0.000E+00  0.000E+00  0.000E+00  3.77193E+01  1.637E-01  2.000E+01  2.000E+04 -4.195E-01
   1   15   23     3     2    1.7197E+05 -2.0699E+02   1.7217E+05  0.000E+00  0.000E+00  0.000E+00  3.68329E+01  1.662E-01  2.000E+01  2.000E+04 -1.035E-02
   1   15   24     3     3    1.7217E+05 -1.4726E+02   1.7232E+05  0.000E+00  0.000E+00  0.000E+00  3.59441E+01  1.663E-01  2.000E+01  2.000E+04 -7.363E-03
   1   15   25     3     4    1.7232E+05 -1.6545E+02   1.7249E+05  0.000E+00  0.000E+00  0.000E+00  3.50553E+01  1.664E-01  2.000E+01  2.000E+04 -8.272E-03
   1   15   26     3     5    1.7249E+05 -2.3283E+02   1.7272E+05  0.000E+00  0.000E+00  0.000E+00  3.41665E+01  1.665E-01  2.000E+01  2.000E+04 -1.164E-02
   1   16   27     3     6    1.7272E+05 -2.3479E+02   1.7295E+05  0.000E+00  0.000E+00  0.000E+00  3.32778E+01  1.667E-01  2.000E+01  2.000E+04 -1.174E-02
   1   17   28     3     7    1.7295E+05 -1.1400E+03   1.7409E+05  0.000E+00  0.000E+00  0.000E+00  3.23893E+01  1.671E-01  2.000E+01  2.000E+04 -5.700E-02
   1   18   29     3     8    1.7409E+05 -2.2441E+03   1.7634E+05  0.000E+00  0.000E+00  0.000E+00  3.15014E+01  1.681E-01  2.000E+01  2.000E+04 -1.122E-01
   1   18   30     3     9    1.7634E+05 -2.7421E+03   1.7908E+05  0.000E+00  0.000E+00  0.000E+00  3.06139E+01  1.695E-01  2.000E+01  2.000E+04 -1.371E-01



1
              HEAD IN LAYER   1 AT END OF TIME STEP   1 IN STRESS PERIOD    7
  ---------------------------------------------------------------------------

          1      2      3      4      5      6      7      8      9     10
         11     12     13     14     15     16     17     18     19     20
         21     22     23     24     25     26     27     28     29     30
 .........................................................................
   1  ****** ****** ****** ****** ****** ****** ****** ****** ****** ******
      ****** ****** ****** ****** ****** ****** ****** ****** ****** ******
      ****** ****** ****** ****** ****** ****** ****** ****** ****** ******
   2  ****** ****** ****** ****** ****** ****** ****** ****** ****** ******
      ****** ****** ****** ****** ****** ****** ****** ****** ****** ******
      ****** ****** ****** ****** ****** ****** ****** ****** ****** ******
   3  ****** ****** ****** ****** ****** ****** ****** ****** ****** ******
      ****** ****** ****** ****** ****** ****** ****** ****** ****** ******
      ****** ****** ****** ****** ****** ****** ****** ****** ****** ******
   4  ****** ****** ****** ****** ****** ****** ****** ****** ****** ******
      ****** ****** ****** ****** ****** ****** ****** ****** ****** ******
      ****** ****** ****** ****** ****** ****** ****** ****** ****** ******
   5  ****** ****** ****** ****** ****** ****** ****** ****** ****** ******
      ****** ****** ****** ****** ****** ****** ****** ****** ****** ******
      ****** ****** ****** ****** ****** ****** ****** ****** ****** ******
   6  ****** ****** ****** ****** ****** ****** ****** ****** ****** ******
      ****** ****** ****** ****** ****** ****** ****** ****** ****** ******
      ****** ****** ****** ****** ****** ****** ****** ****** ****** ******
   7  ****** ****** ****** ****** ****** ****** ****** ****** ****** ******
      ****** ****** ****** ****** ****** ****** ****** ****** ****** ******
      ****** ****** ****** ****** ****** ****** ****** ****** ****** ******
   8  ****** ****** ****** ****** ****** ****** ****** ****** ****** ******
      ****** ****** ****** ****** ****** ****** ****** ****** ****** ******
      ****** ****** ****** ****** ****** ****** ****** ****** ****** ******
   9  ****** ****** ****** ****** ****** ****** ****** ****** ****** ******
      ****** ****** ****** ****** ****** ****** ****** ****** ****** ******
      ****** ****** ****** ****** ****** ****** ****** ****** ****** ******
  10  ****** ****** ****** ****** ****** ****** ****** ****** ****** ******
      ****** ****** ****** ****** ****** ****** ****** ****** ****** ******
      ****** ****** ****** ****** ****** ****** ****** ****** ****** ******
  11  ****** ****** ****** ****** ****** ****** ****** ****** ****** ******
      ****** ****** ****** ****** ****** ****** ****** ****** ****** ******
      ****** ****** ****** ****** ****** ****** ****** ****** ****** ******
  12  ****** ****** ****** ****** ****** ****** ****** ****** ****** ******
      ****** ****** ****** ****** ****** ****** ****** ****** ****** ******
      ****** ****** ****** ****** ****** ****** ****** ****** ****** ******
  13  ****** ****** ****** ****** ****** ****** ****** ****** ****** ******
      ****** ****** ****** ****** ****** ****** ****** ****** ****** ******
      ****** ****** ****** ****** ****** ****** ****** ****** ****** ******
  14  ****** ****** ****** ****** ****** ****** ****** ****** ****** ******
      ****** ****** ****** ****** ****** ****** ****** ****** ****** ******
      ****** ****** ****** ****** ****** ****** ****** ****** ****** ******
  15  ****** ****** ****** ****** ****** ****** ****** ****** ****** ******
      ****** ****** ****** ****** ****** ****** ****** ****** ****** ******
      ****** ****** ****** ****** ****** ****** ****** ****** ****** ******
  16  ****** ****** ****** ****** ****** ****** ****** ****** ****** ******
      ****** ****** ****** ****** ****** ****** ****** ****** ****** ******
      ****** ****** ****** ****** ****** ****** ****** ****** ****** ******
  17  ****** ****** ****** ****** ****** ****** ****** ****** ****** ******
      ****** ****** ****** ****** ****** ****** ****** ****** ****** ******
      ****** ****** ****** ****** ****** ****** ****** ****** ****** ******
  18  ****** ****** ****** ****** ****** ****** ****** ****** ****** ******
      ****** ****** ****** ****** ****** ****** ****** ****** ****** ******
      ****** ****** ****** ****** ****** ****** ****** ****** ****** ******
  19  ****** ****** ****** ****** ****** ****** ****** ****** ****** ******
      ****** ****** ****** ****** ****** ****** ****** ****** ****** ******
      ****** ****** ****** ****** ****** ****** ****** ****** ****** ******
  20  ****** ****** ****** ****** ****** ****** ****** ****** ****** ******
      ****** ****** ****** ****** ****** ****** ****** ****** ****** ******
      ****** ****** ****** ****** ****** ****** ****** ****** ****** ******
  21  ****** ****** ****** ****** ****** ****** ****** ****** ****** ******
      ****** ****** ****** ****** ****** ****** ****** ****** ****** ******
      ****** ****** ****** ****** ****** ****** ****** ****** ****** ******
  22  ****** ****** ****** ****** ****** ****** ****** ****** ****** ******
      ****** ****** ****** ****** ****** ****** ****** ****** ****** ******
      ****** ****** ****** ****** ****** ****** ****** ****** ****** ******
  23  ****** ****** ****** ****** ****** ****** ****** ****** ****** ******
      ****** ****** ****** ****** ****** ****** ****** ****** ****** ******
      ****** ****** ****** ****** ****** ****** ****** ****** ****** ******
  24  ****** ****** ****** ****** ****** ****** ****** ****** ****** ******
      ****** ****** ****** ****** ****** ****** ****** ****** ****** ******
      ****** ****** ****** ****** ****** ****** ****** ****** ****** ******
  25  ****** ****** ****** ****** ****** ****** ****** ****** ****** ******
      ****** ****** ****** ****** ****** ****** ****** ****** ****** ******
      ****** ****** ****** ****** ****** ****** ****** ****** ****** ******

 HEAD WILL BE SAVED ON UNIT   51 AT END OF TIME STEP    1, STRESS PERIOD    7
1
  VOLUMETRIC BUDGET FOR ENTIRE MODEL AT END OF TIME STEP    1, STRESS PERIOD   7
  ------------------------------------------------------------------------------

     CUMULATIVE VOLUMES      L**3       RATES FOR THIS TIME STEP      L**3/T
     ------------------                 ------------------------

           IN:                                      IN:
           ---                                      ---
             STORAGE =    34055874.4191               STORAGE =       22583.1393
       CONSTANT HEAD =    17126281.5336         CONSTANT HEAD =       35125.8434
               WELLS =           0.0000                 WELLS =           0.0000
            RECHARGE =    15097200.0000              RECHARGE =           0.0000
      STREAM LEAKAGE =     4884977.8063        STREAM LEAKAGE =       10685.8226

            TOTAL IN =    71164333.7590              TOTAL IN =       68394.8053

          OUT:                                     OUT:
          ----                                     ----
             STORAGE =      765986.3109               STORAGE =           0.0000
       CONSTANT HEAD =           0.0000         CONSTANT HEAD =           0.0000
               WELLS =    18293597.9378                 WELLS =       28628.4788
            RECHARGE =           0.0000              RECHARGE =           0.0000
      STREAM LEAKAGE =    52104752.1883        STREAM LEAKAGE =       39766.3322

           TOTAL OUT =    71164336.4370             TOTAL OUT =       68394.8110

            IN - OUT =          -2.6779              IN - OUT =      -5.7353E-03

 PERCENT DISCREPANCY =          -0.00     PERCENT DISCREPANCY =          -0.00






         TIME SUMMARY AT END OF TIME STEP    1 IN STRESS PERIOD    7
                    SECONDS     MINUTES      HOURS       DAYS        YEARS
                    -----------------------------------------------------------
   TIME STEP LENGTH 7.86240E+06 1.31040E+05  2184.0      91.000     0.24914    
 STRESS PERIOD TIME 7.86240E+06 1.31040E+05  2184.0      91.000     0.24914    
         TOTAL TIME 5.52096E+07 9.20160E+05  15336.      639.00      1.7495    
1
1
                            STRESS PERIOD NO.    8, LENGTH =   91.00000    
                            -----------------------------------------------

                              NUMBER OF TIME STEPS =     1

                               MULTIPLIER FOR DELT =     1.500

                            INITIAL TIME STEP SIZE =   91.00000    

 WELL NO.  LAYER   ROW   COL   STRESS RATE         
 --------------------------------------------------
      1      1     20     17     -0.1195E+05
      2      1     18     14      -7709.    
      3      1      9      3      -2375.    
      4      1     21     12      -6598.    

      4 WELLS

                 RECHARGE =  1.000000E-03

 REUSING STREAM SEGMENT DATA FROM LAST STRESS PERIOD
 
 SOLVING FOR HEAD 


     6 CALLS TO PCG ROUTINE FOR TIME STEP   1 IN STRESS PERIOD    8
    22 TOTAL ITERATIONS

 OUTPUT CONTROL FOR STRESS PERIOD    8   TIME STEP    1
    SAVE BUDGET
    SAVE HEAD FOR ALL LAYERS
    PRINT HEAD FOR ALL LAYERS
 UBDSV2 SAVING "STREAMFLOW OUT  " ON UNIT  50 AT TIME STEP  1, STRESS PERIOD   8



 STREAM LISTING     PERIOD      8   STEP        1

 LAYER ROW COL. STREAM  RCH.  FLOW INTO     FLOW TO   FLOW OUT OF   OVRLND.     DIRECT     STREAM       STREAM     STREAM     STREAM   STREAMBED  STREAMBED
                SEG.NO.  NO.  STRM. RCH.    AQUIFER    STRM. RCH.    RUNOFF     PRECIP       ET          HEAD       DEPTH      WIDTH   CONDCTNC.   GRADIENT

   1   13    1     1     1    1.0000E+05 -1.2899E+03   1.0129E+05  0.000E+00  0.000E+00  0.000E+00  4.84066E+01  1.452E-01  2.000E+01  2.000E+04 -6.450E-02
   1   13    2     1     2    1.0129E+05 -2.2164E+03   1.0351E+05  0.000E+00  0.000E+00  0.000E+00  4.79308E+01  1.467E-01  2.000E+01  2.000E+04 -1.108E-01
   1   14    3     1     3    1.0351E+05 -4.0155E+02   1.0391E+05  0.000E+00  0.000E+00  0.000E+00  4.74547E+01  1.478E-01  2.000E+01  2.000E+04 -2.008E-02
   1   15    4     1     4    1.0391E+05 -3.6268E+02   1.0427E+05  0.000E+00  0.000E+00  0.000E+00  4.69777E+01  1.482E-01  2.000E+01  2.000E+04 -1.813E-02
   1   16    5     1     5    1.0427E+05 -1.0037E+03   1.0527E+05  0.000E+00  0.000E+00  0.000E+00  4.65010E+01  1.488E-01  2.000E+01  2.000E+04 -5.019E-02
   1   16    6     1     6    1.0527E+05 -5.9202E+02   1.0587E+05  0.000E+00  0.000E+00  0.000E+00  4.60244E+01  1.494E-01  2.000E+01  2.000E+04 -2.960E-02
   1   16    7     1     7    1.0587E+05 -4.9247E+02   1.0636E+05  0.000E+00  0.000E+00  0.000E+00  4.55476E+01  1.499E-01  2.000E+01  2.000E+04 -2.462E-02
   1   16    8     1     8    1.0636E+05 -3.5749E+02   1.0672E+05  0.000E+00  0.000E+00  0.000E+00  4.50707E+01  1.503E-01  2.000E+01  2.000E+04 -1.787E-02
   1   16    9     1     9    1.0672E+05 -1.6632E+02   1.0688E+05  0.000E+00  0.000E+00  0.000E+00  4.45937E+01  1.505E-01  2.000E+01  2.000E+04 -8.316E-03
   1   16   10     1    10    1.0688E+05  1.0083E+02   1.0678E+05  0.000E+00  0.000E+00  0.000E+00  4.41164E+01  1.505E-01  2.000E+01  2.000E+04  5.042E-03
   1   16   11     1    11    1.0678E+05  4.9470E+02   1.0629E+05  0.000E+00  0.000E+00  0.000E+00  4.36389E+01  1.503E-01  2.000E+01  2.000E+04  2.473E-02
   1   16   12     1    12    1.0629E+05  1.5877E+03   1.0470E+05  0.000E+00  0.000E+00  0.000E+00  4.31607E+01  1.494E-01  2.000E+01  2.000E+04  7.939E-02
   1   15   13     1    13    1.0470E+05  6.7071E+02   1.0403E+05  0.000E+00  0.000E+00  0.000E+00  4.26825E+01  1.484E-01  2.000E+01  2.000E+04  3.354E-02
   1   14   14     1    14    1.0403E+05 -3.3964E+02   1.0437E+05  0.000E+00  0.000E+00  0.000E+00  4.22051E+01  1.483E-01  2.000E+01  2.000E+04 -1.698E-02
   1   13   15     1    15    1.0437E+05 -1.2597E+03   1.0563E+05  0.000E+00  0.000E+00  0.000E+00  4.17285E+01  1.489E-01  2.000E+01  2.000E+04 -6.298E-02
   1   12   16     1    16    1.0563E+05 -2.5390E+03   1.0817E+05  0.000E+00  0.000E+00  0.000E+00  4.12528E+01  1.506E-01  2.000E+01  2.000E+04 -1.270E-01
   1   12   17     1    17    1.0817E+05 -1.4404E+03   1.0961E+05  0.000E+00  0.000E+00  0.000E+00  4.07772E+01  1.522E-01  2.000E+01  2.000E+04 -7.202E-02
   1   12   18     1    18    1.0961E+05 -1.3780E+03   1.1099E+05  0.000E+00  0.000E+00  0.000E+00  4.03011E+01  1.534E-01  2.000E+01  2.000E+04 -6.890E-02
   1   12   19     1    19    1.1099E+05 -2.0756E+03   1.1306E+05  0.000E+00  0.000E+00  0.000E+00  3.98253E+01  1.548E-01  2.000E+01  2.000E+04 -1.038E-01
   1   13   20     1    20    1.1306E+05 -9.4103E+02   1.1400E+05  0.000E+00  0.000E+00  0.000E+00  3.93493E+01  1.561E-01  2.000E+01  2.000E+04 -4.705E-02
   1   14   21     1    21    1.1400E+05 -1.4502E+02   1.1415E+05  0.000E+00  0.000E+00  0.000E+00  3.88725E+01  1.565E-01  2.000E+01  2.000E+04 -7.251E-03
   1   14   22     1    22    1.1415E+05  4.9998E+03   1.0915E+05  0.000E+00  0.000E+00  0.000E+00  3.83932E+01  1.545E-01  2.000E+01  2.000E+04  2.500E-01
   1    9   30     2     1    5.0000E+04 -6.8801E+02   5.0688E+04  0.000E+00  0.000E+00  0.000E+00  4.02413E+01  1.163E-01  2.000E+01  2.000E+04 -3.440E-02
   1    9   29     2     2    5.0688E+04 -9.8724E+02   5.1675E+04  0.000E+00  0.000E+00  0.000E+00  3.99925E+01  1.175E-01  2.000E+01  2.000E+04 -4.936E-02
   1    9   28     2     3    5.1675E+04 -1.2423E+03   5.2918E+04  0.000E+00  0.000E+00  0.000E+00  3.97440E+01  1.190E-01  2.000E+01  2.000E+04 -6.211E-02
   1    9   27     2     4    5.2918E+04 -2.5126E+03   5.5430E+04  0.000E+00  0.000E+00  0.000E+00  3.94966E+01  1.216E-01  2.000E+01  2.000E+04 -1.256E-01
   1   10   26     2     5    5.5430E+04 -1.7229E+03   5.7153E+04  0.000E+00  0.000E+00  0.000E+00  3.92494E+01  1.244E-01  2.000E+01  2.000E+04 -8.614E-02
   1   11   25     2     6    5.7153E+04 -1.5226E+03   5.8676E+04  0.000E+00  0.000E+00  0.000E+00  3.90015E+01  1.265E-01  2.000E+01  2.000E+04 -7.613E-02
   1   12   24     2     7    5.8676E+04 -1.5880E+03   6.0264E+04  0.000E+00  0.000E+00  0.000E+00  3.87536E+01  1.286E-01  2.000E+01  2.000E+04 -7.940E-02
   1   13   23     2     8    6.0264E+04 -2.6976E+02   6.0533E+04  0.000E+00  0.000E+00  0.000E+00  3.85048E+01  1.298E-01  2.000E+01  2.000E+04 -1.349E-02
   1   14   22     2     9    6.0533E+04  2.2068E+03   5.8327E+04  0.000E+00  0.000E+00  0.000E+00  3.82535E+01  1.285E-01  2.000E+01  2.000E+04  1.103E-01
   1   14   22     3     1    1.6747E+05 -8.4323E+03   1.7591E+05  0.000E+00  0.000E+00  0.000E+00  3.77216E+01  1.660E-01  2.000E+01  2.000E+04 -4.216E-01
   1   15   23     3     2    1.7591E+05 -2.6931E+02   1.7618E+05  0.000E+00  0.000E+00  0.000E+00  3.68352E+01  1.685E-01  2.000E+01  2.000E+04 -1.347E-02
   1   15   24     3     3    1.7618E+05 -2.0677E+02   1.7638E+05  0.000E+00  0.000E+00  0.000E+00  3.59464E+01  1.687E-01  2.000E+01  2.000E+04 -1.034E-02
   1   15   25     3     4    1.7638E+05 -2.2682E+02   1.7661E+05  0.000E+00  0.000E+00  0.000E+00  3.50577E+01  1.688E-01  2.000E+01  2.000E+04 -1.134E-02
   1   15   26     3     5    1.7661E+05 -3.0694E+02   1.7692E+05  0.000E+00  0.000E+00  0.000E+00  3.41689E+01  1.689E-01  2.000E+01  2.000E+04 -1.535E-02
   1   16   27     3     6    1.7692E+05 -3.1562E+02   1.7723E+05  0.000E+00  0.000E+00  0.000E+00  3.32802E+01  1.691E-01  2.000E+01  2.000E+04 -1.578E-02
   1   17   28     3     7    1.7723E+05 -1.3402E+03   1.7857E+05  0.000E+00  0.000E+00  0.000E+00  3.23918E+01  1.696E-01  2.000E+01  2.000E+04 -6.701E-02
   1   18   29     3     8    1.7857E+05 -2.4019E+03   1.8097E+05  0.000E+00  0.000E+00  0.000E+00  3.15040E+01  1.707E-01  2.000E+01  2.000E+04 -1.201E-01
   1   18   30     3     9    1.8097E+05 -2.8842E+03   1.8386E+05  0.000E+00  0.000E+00  0.000E+00  3.06166E+01  1.722E-01  2.000E+01  2.000E+04 -1.442E-01



1
              HEAD IN LAYER   1 AT END OF TIME STEP   1 IN STRESS PERIOD    8
  ---------------------------------------------------------------------------

          1      2      3      4      5      6      7      8      9     10
         11     12     13     14     15     16     17     18     19     20
         21     22     23     24     25     26     27     28     29     30
 .........................................................................
   1  ****** ****** ****** ****** ****** ****** ****** ****** ****** ******
      ****** ****** ****** ****** ****** ****** ****** ****** ****** ******
      ****** ****** ****** ****** ****** ****** ****** ****** ****** ******
   2  ****** ****** ****** ****** ****** ****** ****** ****** ****** ******
      ****** ****** ****** ****** ****** ****** ****** ****** ****** ******
      ****** ****** ****** ****** ****** ****** ****** ****** ****** ******
   3  ****** ****** ****** ****** ****** ****** ****** ****** ****** ******
      ****** ****** ****** ****** ****** ****** ****** ****** ****** ******
      ****** ****** ****** ****** ****** ****** ****** ****** ****** ******
   4  ****** ****** ****** ****** ****** ****** ****** ****** ****** ******
      ****** ****** ****** ****** ****** ****** ****** ****** ****** ******
      ****** ****** ****** ****** ****** ****** ****** ****** ****** ******
   5  ****** ****** ****** ****** ****** ****** ****** ****** ****** ******
      ****** ****** ****** ****** ****** ****** ****** ****** ****** ******
      ****** ****** ****** ****** ****** ****** ****** ****** ****** ******
   6  ****** ****** ****** ****** ****** ****** ****** ****** ****** ******
      ****** ****** ****** ****** ****** ****** ****** ****** ****** ******
      ****** ****** ****** ****** ****** ****** ****** ****** ****** ******
   7  ****** ****** ****** ****** ****** ****** ****** ****** ****** ******
      ****** ****** ****** ****** ****** ****** ****** ****** ****** ******
      ****** ****** ****** ****** ****** ****** ****** ****** ****** ******
   8  ****** ****** ****** ****** ****** ****** ****** ****** ****** ******
      ****** ****** ****** ****** ****** ****** ****** ****** ****** ******
      ****** ****** ****** ****** ****** ****** ****** ****** ****** ******
   9  ****** ****** ****** ****** ****** ****** ****** ****** ****** ******
      ****** ****** ****** ****** ****** ****** ****** ****** ****** ******
      ****** ****** ****** ****** ****** ****** ****** ****** ****** ******
  10  ****** ****** ****** ****** ****** ****** ****** ****** ****** ******
      ****** ****** ****** ****** ****** ****** ****** ****** ****** ******
      ****** ****** ****** ****** ****** ****** ****** ****** ****** ******
  11  ****** ****** ****** ****** ****** ****** ****** ****** ****** ******
      ****** ****** ****** ****** ****** ****** ****** ****** ****** ******
      ****** ****** ****** ****** ****** ****** ****** ****** ****** ******
  12  ****** ****** ****** ****** ****** ****** ****** ****** ****** ******
      ****** ****** ****** ****** ****** ****** ****** ****** ****** ******
      ****** ****** ****** ****** ****** ****** ****** ****** ****** ******
  13  ****** ****** ****** ****** ****** ****** ****** ****** ****** ******
      ****** ****** ****** ****** ****** ****** ****** ****** ****** ******
      ****** ****** ****** ****** ****** ****** ****** ****** ****** ******
  14  ****** ****** ****** ****** ****** ****** ****** ****** ****** ******
      ****** ****** ****** ****** ****** ****** ****** ****** ****** ******
      ****** ****** ****** ****** ****** ****** ****** ****** ****** ******
  15  ****** ****** ****** ****** ****** ****** ****** ****** ****** ******
      ****** ****** ****** ****** ****** ****** ****** ****** ****** ******
      ****** ****** ****** ****** ****** ****** ****** ****** ****** ******
  16  ****** ****** ****** ****** ****** ****** ****** ****** ****** ******
      ****** ****** ****** ****** ****** ****** ****** ****** ****** ******
      ****** ****** ****** ****** ****** ****** ****** ****** ****** ******
  17  ****** ****** ****** ****** ****** ****** ****** ****** ****** ******
      ****** ****** ****** ****** ****** ****** ****** ****** ****** ******
      ****** ****** ****** ****** ****** ****** ****** ****** ****** ******
  18  ****** ****** ****** ****** ****** ****** ****** ****** ****** ******
      ****** ****** ****** ****** ****** ****** ****** ****** ****** ******
      ****** ****** ****** ****** ****** ****** ****** ****** ****** ******
  19  ****** ****** ****** ****** ****** ****** ****** ****** ****** ******
      ****** ****** ****** ****** ****** ****** ****** ****** ****** ******
      ****** ****** ****** ****** ****** ****** ****** ****** ****** ******
  20  ****** ****** ****** ****** ****** ****** ****** ****** ****** ******
      ****** ****** ****** ****** ****** ****** ****** ****** ****** ******
      ****** ****** ****** ****** ****** ****** ****** ****** ****** ******
  21  ****** ****** ****** ****** ****** ****** ****** ****** ****** ******
      ****** ****** ****** ****** ****** ****** ****** ****** ****** ******
      ****** ****** ****** ****** ****** ****** ****** ****** ****** ******
  22  ****** ****** ****** ****** ****** ****** ****** ****** ****** ******
      ****** ****** ****** ****** ****** ****** ****** ****** ****** ******
      ****** ****** ****** ****** ****** ****** ****** ****** ****** ******
  23  ****** ****** ****** ****** ****** ****** ****** ****** ****** ******
      ****** ****** ****** ****** ****** ****** ****** ****** ****** ******
      ****** ****** ****** ****** ****** ****** ****** ****** ****** ******
  24  ****** ****** ****** ****** ****** ****** ****** ****** ****** ******
      ****** ****** ****** ****** ****** ****** ****** ****** ****** ******
      ****** ****** ****** ****** ****** ****** ****** ****** ****** ******
  25  ****** ****** ****** ****** ****** ****** ****** ****** ****** ******
      ****** ****** ****** ****** ****** ****** ****** ****** ****** ******
      ****** ****** ****** ****** ****** ****** ****** ****** ****** ******

 HEAD WILL BE SAVED ON UNIT   51 AT END OF TIME STEP    1, STRESS PERIOD    8
1
  VOLUMETRIC BUDGET FOR ENTIRE MODEL AT END OF TIME STEP    1, STRESS PERIOD   8
  ------------------------------------------------------------------------------

     CUMULATIVE VOLUMES      L**3       RATES FOR THIS TIME STEP      L**3/T
     ------------------                 ------------------------

           IN:                                      IN:
           ---                                      ---
             STORAGE =    34189641.5410               STORAGE =        1469.9684
       CONSTANT HEAD =    20297975.7623         CONSTANT HEAD =       34853.7827
               WELLS =           0.0000                 WELLS =           0.0000
            RECHARGE =    17608800.0000              RECHARGE =       27600.0000
      STREAM LEAKAGE =     5800485.2550        STREAM LEAKAGE =       10060.5214

            TOTAL IN =    77896902.5583              TOTAL IN =       73984.2725

          OUT:                                     OUT:
          ----                                     ----
             STORAGE =      896790.1693               STORAGE =        1437.4050
       CONSTANT HEAD =           0.0000         CONSTANT HEAD =           0.0000
               WELLS =    20898789.5064                 WELLS =       28628.4788
            RECHARGE =           0.0000              RECHARGE =           0.0000
      STREAM LEAKAGE =    56101324.8080        STREAM LEAKAGE =       43918.3804

           TOTAL OUT =    77896904.4837             TOTAL OUT =       73984.2642

            IN - OUT =          -1.9254              IN - OUT =       8.2697E-03

 PERCENT DISCREPANCY =          -0.00     PERCENT DISCREPANCY =           0.00






         TIME SUMMARY AT END OF TIME STEP    1 IN STRESS PERIOD    8
                    SECONDS     MINUTES      HOURS       DAYS        YEARS
                    -----------------------------------------------------------
   TIME STEP LENGTH 7.86240E+06 1.31040E+05  2184.0      91.000     0.24914    
 STRESS PERIOD TIME 7.86240E+06 1.31040E+05  2184.0      91.000     0.24914    
         TOTAL TIME 6.30720E+07 1.05120E+06  17520.      730.00      1.9986    
1
1
                            STRESS PERIOD NO.    9, LENGTH =   92.00000    
                            -----------------------------------------------

                              NUMBER OF TIME STEPS =     1

                               MULTIPLIER FOR DELT =     1.500

                            INITIAL TIME STEP SIZE =   92.00000    

 WELL NO.  LAYER   ROW   COL   STRESS RATE         
 --------------------------------------------------
      1      1     20     17     -0.1195E+05
      2      1     18     14      -7709.    
      3      1      9      3      -2375.    
      4      1     21     12      -6598.    

      4 WELLS

                 RECHARGE =  5.000000E-04

 REUSING STREAM SEGMENT DATA FROM LAST STRESS PERIOD
 
 SOLVING FOR HEAD 


     6 CALLS TO PCG ROUTINE FOR TIME STEP   1 IN STRESS PERIOD    9
    23 TOTAL ITERATIONS

 OUTPUT CONTROL FOR STRESS PERIOD    9   TIME STEP    1
    SAVE BUDGET
    SAVE HEAD FOR ALL LAYERS
    PRINT HEAD FOR ALL LAYERS
 UBDSV2 SAVING "STREAMFLOW OUT  " ON UNIT  50 AT TIME STEP  1, STRESS PERIOD   9



 STREAM LISTING     PERIOD      9   STEP        1

 LAYER ROW COL. STREAM  RCH.  FLOW INTO     FLOW TO   FLOW OUT OF   OVRLND.     DIRECT     STREAM       STREAM     STREAM     STREAM   STREAMBED  STREAMBED
                SEG.NO.  NO.  STRM. RCH.    AQUIFER    STRM. RCH.    RUNOFF     PRECIP       ET          HEAD       DEPTH      WIDTH   CONDCTNC.   GRADIENT

   1   13    1     1     1    1.0000E+05 -1.0742E+03   1.0107E+05  0.000E+00  0.000E+00  0.000E+00  4.84065E+01  1.451E-01  2.000E+01  2.000E+04 -5.371E-02
   1   13    2     1     2    1.0107E+05 -1.9721E+03   1.0305E+05  0.000E+00  0.000E+00  0.000E+00  4.79305E+01  1.464E-01  2.000E+01  2.000E+04 -9.861E-02
   1   14    3     1     3    1.0305E+05 -3.3026E+02   1.0338E+05  0.000E+00  0.000E+00  0.000E+00  4.74542E+01  1.474E-01  2.000E+01  2.000E+04 -1.651E-02
   1   15    4     1     4    1.0338E+05 -2.9028E+02   1.0367E+05  0.000E+00  0.000E+00  0.000E+00  4.69772E+01  1.477E-01  2.000E+01  2.000E+04 -1.451E-02
   1   16    5     1     5    1.0367E+05 -8.0802E+02   1.0447E+05  0.000E+00  0.000E+00  0.000E+00  4.65004E+01  1.482E-01  2.000E+01  2.000E+04 -4.040E-02
   1   16    6     1     6    1.0447E+05 -4.7028E+02   1.0495E+05  0.000E+00  0.000E+00  0.000E+00  4.60237E+01  1.487E-01  2.000E+01  2.000E+04 -2.351E-02
   1   16    7     1     7    1.0495E+05 -3.7455E+02   1.0532E+05  0.000E+00  0.000E+00  0.000E+00  4.55468E+01  1.491E-01  2.000E+01  2.000E+04 -1.873E-02
   1   16    8     1     8    1.0532E+05 -2.4109E+02   1.0556E+05  0.000E+00  0.000E+00  0.000E+00  4.50698E+01  1.493E-01  2.000E+01  2.000E+04 -1.205E-02
   1   16    9     1     9    1.0556E+05 -5.1488E+01   1.0561E+05  0.000E+00  0.000E+00  0.000E+00  4.45926E+01  1.494E-01  2.000E+01  2.000E+04 -2.574E-03
   1   16   10     1    10    1.0561E+05  2.1377E+02   1.0540E+05  0.000E+00  0.000E+00  0.000E+00  4.41153E+01  1.494E-01  2.000E+01  2.000E+04  1.069E-02
   1   16   11     1    11    1.0540E+05  6.0687E+02   1.0479E+05  0.000E+00  0.000E+00  0.000E+00  4.36377E+01  1.490E-01  2.000E+01  2.000E+04  3.034E-02
   1   16   12     1    12    1.0479E+05  1.7800E+03   1.0301E+05  0.000E+00  0.000E+00  0.000E+00  4.31594E+01  1.480E-01  2.000E+01  2.000E+04  8.900E-02
   1   15   13     1    13    1.0301E+05  8.8296E+02   1.0213E+05  0.000E+00  0.000E+00  0.000E+00  4.26810E+01  1.469E-01  2.000E+01  2.000E+04  4.415E-02
   1   14   14     1    14    1.0213E+05 -1.1467E+02   1.0224E+05  0.000E+00  0.000E+00  0.000E+00  4.22034E+01  1.465E-01  2.000E+01  2.000E+04 -5.733E-03
   1   13   15     1    15    1.0224E+05 -1.0296E+03   1.0327E+05  0.000E+00  0.000E+00  0.000E+00  4.17266E+01  1.470E-01  2.000E+01  2.000E+04 -5.148E-02
   1   12   16     1    16    1.0327E+05 -2.3021E+03   1.0558E+05  0.000E+00  0.000E+00  0.000E+00  4.12507E+01  1.485E-01  2.000E+01  2.000E+04 -1.151E-01
   1   12   17     1    17    1.0558E+05 -1.2773E+03   1.0685E+05  0.000E+00  0.000E+00  0.000E+00  4.07750E+01  1.500E-01  2.000E+01  2.000E+04 -6.386E-02
   1   12   18     1    18    1.0685E+05 -1.2223E+03   1.0807E+05  0.000E+00  0.000E+00  0.000E+00  4.02988E+01  1.510E-01  2.000E+01  2.000E+04 -6.112E-02
   1   12   19     1    19    1.0807E+05 -1.8887E+03   1.0996E+05  0.000E+00  0.000E+00  0.000E+00  3.98228E+01  1.523E-01  2.000E+01  2.000E+04 -9.443E-02
   1   13   20     1    20    1.0996E+05 -7.6585E+02   1.1073E+05  0.000E+00  0.000E+00  0.000E+00  3.93466E+01  1.535E-01  2.000E+01  2.000E+04 -3.829E-02
   1   14   21     1    21    1.1073E+05  3.0270E+01   1.1070E+05  0.000E+00  0.000E+00  0.000E+00  3.88697E+01  1.538E-01  2.000E+01  2.000E+04  1.513E-03
   1   14   22     1    22    1.1070E+05  5.0373E+03   1.0566E+05  0.000E+00  0.000E+00  0.000E+00  3.83903E+01  1.516E-01  2.000E+01  2.000E+04  2.519E-01
   1    9   30     2     1    5.0000E+04 -5.6510E+02   5.0565E+04  0.000E+00  0.000E+00  0.000E+00  4.02413E+01  1.163E-01  2.000E+01  2.000E+04 -2.825E-02
   1    9   29     2     2    5.0565E+04 -8.6412E+02   5.1429E+04  0.000E+00  0.000E+00  0.000E+00  3.99922E+01  1.172E-01  2.000E+01  2.000E+04 -4.321E-02
   1    9   28     2     3    5.1429E+04 -1.1173E+03   5.2547E+04  0.000E+00  0.000E+00  0.000E+00  3.97436E+01  1.186E-01  2.000E+01  2.000E+04 -5.587E-02
   1    9   27     2     4    5.2547E+04 -2.3370E+03   5.4884E+04  0.000E+00  0.000E+00  0.000E+00  3.94960E+01  1.210E-01  2.000E+01  2.000E+04 -1.168E-01
   1   10   26     2     5    5.4884E+04 -1.5499E+03   5.6433E+04  0.000E+00  0.000E+00  0.000E+00  3.92486E+01  1.236E-01  2.000E+01  2.000E+04 -7.749E-02
   1   11   25     2     6    5.6433E+04 -1.3570E+03   5.7790E+04  0.000E+00  0.000E+00  0.000E+00  3.90005E+01  1.255E-01  2.000E+01  2.000E+04 -6.785E-02
   1   12   24     2     7    5.7790E+04 -1.4356E+03   5.9226E+04  0.000E+00  0.000E+00  0.000E+00  3.87523E+01  1.273E-01  2.000E+01  2.000E+04 -7.178E-02
   1   13   23     2     8    5.9226E+04 -2.2270E+02   5.9449E+04  0.000E+00  0.000E+00  0.000E+00  3.85034E+01  1.284E-01  2.000E+01  2.000E+04 -1.114E-02
   1   14   22     2     9    5.9449E+04  2.2731E+03   5.7176E+04  0.000E+00  0.000E+00  0.000E+00  3.82521E+01  1.271E-01  2.000E+01  2.000E+04  1.137E-01
   1   14   22     3     1    1.6284E+05 -8.3912E+03   1.7123E+05  0.000E+00  0.000E+00  0.000E+00  3.77189E+01  1.633E-01  2.000E+01  2.000E+04 -4.196E-01
   1   15   23     3     2    1.7123E+05 -2.1577E+02   1.7144E+05  0.000E+00  0.000E+00  0.000E+00  3.68325E+01  1.658E-01  2.000E+01  2.000E+04 -1.079E-02
   1   15   24     3     3    1.7144E+05 -1.6323E+02   1.7161E+05  0.000E+00  0.000E+00  0.000E+00  3.59437E+01  1.659E-01  2.000E+01  2.000E+04 -8.162E-03
   1   15   25     3     4    1.7161E+05 -1.8311E+02   1.7179E+05  0.000E+00  0.000E+00  0.000E+00  3.50549E+01  1.660E-01  2.000E+01  2.000E+04 -9.155E-03
   1   15   26     3     5    1.7179E+05 -2.5907E+02   1.7205E+05  0.000E+00  0.000E+00  0.000E+00  3.41661E+01  1.661E-01  2.000E+01  2.000E+04 -1.295E-02
   1   16   27     3     6    1.7205E+05 -2.5909E+02   1.7231E+05  0.000E+00  0.000E+00  0.000E+00  3.32774E+01  1.663E-01  2.000E+01  2.000E+04 -1.295E-02
   1   17   28     3     7    1.7231E+05 -1.1848E+03   1.7349E+05  0.000E+00  0.000E+00  0.000E+00  3.23889E+01  1.667E-01  2.000E+01  2.000E+04 -5.924E-02
   1   18   29     3     8    1.7349E+05 -2.2219E+03   1.7572E+05  0.000E+00  0.000E+00  0.000E+00  3.15010E+01  1.677E-01  2.000E+01  2.000E+04 -1.111E-01
   1   18   30     3     9    1.7572E+05 -2.7495E+03   1.7846E+05  0.000E+00  0.000E+00  0.000E+00  3.06136E+01  1.691E-01  2.000E+01  2.000E+04 -1.375E-01



1
              HEAD IN LAYER   1 AT END OF TIME STEP   1 IN STRESS PERIOD    9
  ---------------------------------------------------------------------------

          1      2      3      4      5      6      7      8      9     10
         11     12     13     14     15     16     17     18     19     20
         21     22     23     24     25     26     27     28     29     30
 .........................................................................
   1  ****** ****** ****** ****** ****** ****** ****** ****** ****** ******
      ****** ****** ****** ****** ****** ****** ****** ****** ****** ******
      ****** ****** ****** ****** ****** ****** ****** ****** ****** ******
   2  ****** ****** ****** ****** ****** ****** ****** ****** ****** ******
      ****** ****** ****** ****** ****** ****** ****** ****** ****** ******
      ****** ****** ****** ****** ****** ****** ****** ****** ****** ******
   3  ****** ****** ****** ****** ****** ****** ****** ****** ****** ******
      ****** ****** ****** ****** ****** ****** ****** ****** ****** ******
      ****** ****** ****** ****** ****** ****** ****** ****** ****** ******
   4  ****** ****** ****** ****** ****** ****** ****** ****** ****** ******
      ****** ****** ****** ****** ****** ****** ****** ****** ****** ******
      ****** ****** ****** ****** ****** ****** ****** ****** ****** ******
   5  ****** ****** ****** ****** ****** ****** ****** ****** ****** ******
      ****** ****** ****** ****** ****** ****** ****** ****** ****** ******
      ****** ****** ****** ****** ****** ****** ****** ****** ****** ******
   6  ****** ****** ****** ****** ****** ****** ****** ****** ****** ******
      ****** ****** ****** ****** ****** ****** ****** ****** ****** ******
      ****** ****** ****** ****** ****** ****** ****** ****** ****** ******
   7  ****** ****** ****** ****** ****** ****** ****** ****** ****** ******
      ****** ****** ****** ****** ****** ****** ****** ****** ****** ******
      ****** ****** ****** ****** ****** ****** ****** ****** ****** ******
   8  ****** ****** ****** ****** ****** ****** ****** ****** ****** ******
      ****** ****** ****** ****** ****** ****** ****** ****** ****** ******
      ****** ****** ****** ****** ****** ****** ****** ****** ****** ******
   9  ****** ****** ****** ****** ****** ****** ****** ****** ****** ******
      ****** ****** ****** ****** ****** ****** ****** ****** ****** ******
      ****** ****** ****** ****** ****** ****** ****** ****** ****** ******
  10  ****** ****** ****** ****** ****** ****** ****** ****** ****** ******
      ****** ****** ****** ****** ****** ****** ****** ****** ****** ******
      ****** ****** ****** ****** ****** ****** ****** ****** ****** ******
  11  ****** ****** ****** ****** ****** ****** ****** ****** ****** ******
      ****** ****** ****** ****** ****** ****** ****** ****** ****** ******
      ****** ****** ****** ****** ****** ****** ****** ****** ****** ******
  12  ****** ****** ****** ****** ****** ****** ****** ****** ****** ******
      ****** ****** ****** ****** ****** ****** ****** ****** ****** ******
      ****** ****** ****** ****** ****** ****** ****** ****** ****** ******
  13  ****** ****** ****** ****** ****** ****** ****** ****** ****** ******
      ****** ****** ****** ****** ****** ****** ****** ****** ****** ******
      ****** ****** ****** ****** ****** ****** ****** ****** ****** ******
  14  ****** ****** ****** ****** ****** ****** ****** ****** ****** ******
      ****** ****** ****** ****** ****** ****** ****** ****** ****** ******
      ****** ****** ****** ****** ****** ****** ****** ****** ****** ******
  15  ****** ****** ****** ****** ****** ****** ****** ****** ****** ******
      ****** ****** ****** ****** ****** ****** ****** ****** ****** ******
      ****** ****** ****** ****** ****** ****** ****** ****** ****** ******
  16  ****** ****** ****** ****** ****** ****** ****** ****** ****** ******
      ****** ****** ****** ****** ****** ****** ****** ****** ****** ******
      ****** ****** ****** ****** ****** ****** ****** ****** ****** ******
  17  ****** ****** ****** ****** ****** ****** ****** ****** ****** ******
      ****** ****** ****** ****** ****** ****** ****** ****** ****** ******
      ****** ****** ****** ****** ****** ****** ****** ****** ****** ******
  18  ****** ****** ****** ****** ****** ****** ****** ****** ****** ******
      ****** ****** ****** ****** ****** ****** ****** ****** ****** ******
      ****** ****** ****** ****** ****** ****** ****** ****** ****** ******
  19  ****** ****** ****** ****** ****** ****** ****** ****** ****** ******
      ****** ****** ****** ****** ****** ****** ****** ****** ****** ******
      ****** ****** ****** ****** ****** ****** ****** ****** ****** ******
  20  ****** ****** ****** ****** ****** ****** ****** ****** ****** ******
      ****** ****** ****** ****** ****** ****** ****** ****** ****** ******
      ****** ****** ****** ****** ****** ****** ****** ****** ****** ******
  21  ****** ****** ****** ****** ****** ****** ****** ****** ****** ******
      ****** ****** ****** ****** ****** ****** ****** ****** ****** ******
      ****** ****** ****** ****** ****** ****** ****** ****** ****** ******
  22  ****** ****** ****** ****** ****** ****** ****** ****** ****** ******
      ****** ****** ****** ****** ****** ****** ****** ****** ****** ******
      ****** ****** ****** ****** ****** ****** ****** ****** ****** ******
  23  ****** ****** ****** ****** ****** ****** ****** ****** ****** ******
      ****** ****** ****** ****** ****** ****** ****** ****** ****** ******
      ****** ****** ****** ****** ****** ****** ****** ****** ****** ******
  24  ****** ****** ****** ****** ****** ****** ****** ****** ****** ******
      ****** ****** ****** ****** ****** ****** ****** ****** ****** ******
      ****** ****** ****** ****** ****** ****** ****** ****** ****** ******
  25  ****** ****** ****** ****** ****** ****** ****** ****** ****** ******
      ****** ****** ****** ****** ****** ****** ****** ****** ****** ******
      ****** ****** ****** ****** ****** ****** ****** ****** ****** ******

 HEAD WILL BE SAVED ON UNIT   51 AT END OF TIME STEP    1, STRESS PERIOD    9
1
  VOLUMETRIC BUDGET FOR ENTIRE MODEL AT END OF TIME STEP    1, STRESS PERIOD   9
  ------------------------------------------------------------------------------

     CUMULATIVE VOLUMES      L**3       RATES FOR THIS TIME STEP      L**3/T
     ------------------                 ------------------------

           IN:                                      IN:
           ---                                      ---
             STORAGE =    34857678.3093               STORAGE =        7261.2692
       CONSTANT HEAD =    23612933.2657         CONSTANT HEAD =       36032.1468
               WELLS =           0.0000                 WELLS =           0.0000
            RECHARGE =    18878400.0000              RECHARGE =       13800.0000
      STREAM LEAKAGE =     6796308.7884        STREAM LEAKAGE =       10824.1688

            TOTAL IN =    84145320.3633              TOTAL IN =       67917.5848

          OUT:                                     OUT:
          ----                                     ----
             STORAGE =      896790.1693               STORAGE =           0.0000
       CONSTANT HEAD =           0.0000         CONSTANT HEAD =           0.0000
               WELLS =    23532609.5538                 WELLS =       28628.4788
            RECHARGE =           0.0000              RECHARGE =           0.0000
      STREAM LEAKAGE =    59715922.6395        STREAM LEAKAGE =       39289.1069

           TOTAL OUT =    84145322.3626             TOTAL OUT =       67917.5856

            IN - OUT =          -1.9993              IN - OUT =      -8.0305E-04

 PERCENT DISCREPANCY =          -0.00     PERCENT DISCREPANCY =          -0.00






         TIME SUMMARY AT END OF TIME STEP    1 IN STRESS PERIOD    9
                    SECONDS     MINUTES      HOURS       DAYS        YEARS
                    -----------------------------------------------------------
   TIME STEP LENGTH 7.94880E+06 1.32480E+05  2208.0      92.000     0.25188    
 STRESS PERIOD TIME 7.94880E+06 1.32480E+05  2208.0      92.000     0.25188    
         TOTAL TIME 7.10208E+07 1.18368E+06  19728.      822.00      2.2505    
1
1
                            STRESS PERIOD NO.   10, LENGTH =   91.00000    
                            -----------------------------------------------

                              NUMBER OF TIME STEPS =     1

                               MULTIPLIER FOR DELT =     1.500

                            INITIAL TIME STEP SIZE =   91.00000    

 WELL NO.  LAYER   ROW   COL   STRESS RATE         
 --------------------------------------------------
      1      1     20     17     -0.1195E+05
      2      1     18     14      -7709.    
      3      1      9      3      -2375.    
      4      1     21     12      -6598.    

      4 WELLS

                 RECHARGE =  2.000000E-03

 REUSING STREAM SEGMENT DATA FROM LAST STRESS PERIOD
 
 SOLVING FOR HEAD 


     7 CALLS TO PCG ROUTINE FOR TIME STEP   1 IN STRESS PERIOD   10
    26 TOTAL ITERATIONS

 OUTPUT CONTROL FOR STRESS PERIOD   10   TIME STEP    1
    SAVE BUDGET
    SAVE HEAD FOR ALL LAYERS
    PRINT HEAD FOR ALL LAYERS
 UBDSV2 SAVING "STREAMFLOW OUT  " ON UNIT  50 AT TIME STEP  1, STRESS PERIOD  10



 STREAM LISTING     PERIOD     10   STEP        1

 LAYER ROW COL. STREAM  RCH.  FLOW INTO     FLOW TO   FLOW OUT OF   OVRLND.     DIRECT     STREAM       STREAM     STREAM     STREAM   STREAMBED  STREAMBED
                SEG.NO.  NO.  STRM. RCH.    AQUIFER    STRM. RCH.    RUNOFF     PRECIP       ET          HEAD       DEPTH      WIDTH   CONDCTNC.   GRADIENT

   1   13    1     1     1    1.0000E+05 -1.5260E+03   1.0153E+05  0.000E+00  0.000E+00  0.000E+00  4.84067E+01  1.453E-01  2.000E+01  2.000E+04 -7.630E-02
   1   13    2     1     2    1.0153E+05 -2.4728E+03   1.0400E+05  0.000E+00  0.000E+00  0.000E+00  4.79311E+01  1.470E-01  2.000E+01  2.000E+04 -1.236E-01
   1   14    3     1     3    1.0400E+05 -5.1654E+02   1.0452E+05  0.000E+00  0.000E+00  0.000E+00  4.74551E+01  1.483E-01  2.000E+01  2.000E+04 -2.583E-02
   1   15    4     1     4    1.0452E+05 -4.8940E+02   1.0500E+05  0.000E+00  0.000E+00  0.000E+00  4.69783E+01  1.487E-01  2.000E+01  2.000E+04 -2.447E-02
   1   16    5     1     5    1.0500E+05 -1.4253E+03   1.0643E+05  0.000E+00  0.000E+00  0.000E+00  4.65018E+01  1.496E-01  2.000E+01  2.000E+04 -7.126E-02
   1   16    6     1     6    1.0643E+05 -8.3159E+02   1.0726E+05  0.000E+00  0.000E+00  0.000E+00  4.60255E+01  1.505E-01  2.000E+01  2.000E+04 -4.158E-02
   1   16    7     1     7    1.0726E+05 -7.1811E+02   1.0798E+05  0.000E+00  0.000E+00  0.000E+00  4.55489E+01  1.512E-01  2.000E+01  2.000E+04 -3.591E-02
   1   16    8     1     8    1.0798E+05 -5.7920E+02   1.0856E+05  0.000E+00  0.000E+00  0.000E+00  4.50722E+01  1.517E-01  2.000E+01  2.000E+04 -2.896E-02
   1   16    9     1     9    1.0856E+05 -3.8804E+02   1.0895E+05  0.000E+00  0.000E+00  0.000E+00  4.45953E+01  1.521E-01  2.000E+01  2.000E+04 -1.940E-02
   1   16   10     1    10    1.0895E+05 -1.2291E+02   1.0907E+05  0.000E+00  0.000E+00  0.000E+00  4.41182E+01  1.523E-01  2.000E+01  2.000E+04 -6.145E-03
   1   16   11     1    11    1.0907E+05  2.6687E+02   1.0880E+05  0.000E+00  0.000E+00  0.000E+00  4.36409E+01  1.523E-01  2.000E+01  2.000E+04  1.334E-02
   1   16   12     1    12    1.0880E+05  1.2126E+03   1.0759E+05  0.000E+00  0.000E+00  0.000E+00  4.31630E+01  1.517E-01  2.000E+01  2.000E+04  6.063E-02
   1   15   13     1    13    1.0759E+05  2.9793E+02   1.0729E+05  0.000E+00  0.000E+00  0.000E+00  4.26851E+01  1.510E-01  2.000E+01  2.000E+04  1.490E-02
   1   14   14     1    14    1.0729E+05 -7.0727E+02   1.0800E+05  0.000E+00  0.000E+00  0.000E+00  4.22080E+01  1.512E-01  2.000E+01  2.000E+04 -3.536E-02
   1   13   15     1    15    1.0800E+05 -1.6126E+03   1.0961E+05  0.000E+00  0.000E+00  0.000E+00  4.17317E+01  1.522E-01  2.000E+01  2.000E+04 -8.063E-02
   1   12   16     1    16    1.0961E+05 -2.8644E+03   1.1248E+05  0.000E+00  0.000E+00  0.000E+00  4.12563E+01  1.540E-01  2.000E+01  2.000E+04 -1.432E-01
   1   12   17     1    17    1.1248E+05 -1.7027E+03   1.1418E+05  0.000E+00  0.000E+00  0.000E+00  4.07809E+01  1.559E-01  2.000E+01  2.000E+04 -8.514E-02
   1   12   18     1    18    1.1418E+05 -1.6436E+03   1.1582E+05  0.000E+00  0.000E+00  0.000E+00  4.03050E+01  1.573E-01  2.000E+01  2.000E+04 -8.218E-02
   1   12   19     1    19    1.1582E+05 -2.4074E+03   1.1823E+05  0.000E+00  0.000E+00  0.000E+00  3.98294E+01  1.590E-01  2.000E+01  2.000E+04 -1.204E-01
   1   13   20     1    20    1.1823E+05 -1.2862E+03   1.1952E+05  0.000E+00  0.000E+00  0.000E+00  3.93536E+01  1.605E-01  2.000E+01  2.000E+04 -6.431E-02
   1   14   21     1    21    1.1952E+05 -4.9259E+02   1.2001E+05  0.000E+00  0.000E+00  0.000E+00  3.88771E+01  1.612E-01  2.000E+01  2.000E+04 -2.463E-02
   1   14   22     1    22    1.2001E+05  4.9142E+03   1.1510E+05  0.000E+00  0.000E+00  0.000E+00  3.83980E+01  1.594E-01  2.000E+01  2.000E+04  2.457E-01
   1    9   30     2     1    5.0000E+04 -9.7956E+02   5.0980E+04  0.000E+00  0.000E+00  0.000E+00  4.02415E+01  1.165E-01  2.000E+01  2.000E+04 -4.898E-02
   1    9   29     2     2    5.0980E+04 -1.2763E+03   5.2256E+04  0.000E+00  0.000E+00  0.000E+00  3.99931E+01  1.181E-01  2.000E+01  2.000E+04 -6.382E-02
   1    9   28     2     3    5.2256E+04 -1.5287E+03   5.3785E+04  0.000E+00  0.000E+00  0.000E+00  3.97450E+01  1.200E-01  2.000E+01  2.000E+04 -7.644E-02
   1    9   27     2     4    5.3785E+04 -2.8905E+03   5.6675E+04  0.000E+00  0.000E+00  0.000E+00  3.94980E+01  1.230E-01  2.000E+01  2.000E+04 -1.445E-01
   1   10   26     2     5    5.6675E+04 -2.1033E+03   5.8778E+04  0.000E+00  0.000E+00  0.000E+00  3.92513E+01  1.263E-01  2.000E+01  2.000E+04 -1.052E-01
   1   11   25     2     6    5.8778E+04 -1.8858E+03   6.0664E+04  0.000E+00  0.000E+00  0.000E+00  3.90039E+01  1.289E-01  2.000E+01  2.000E+04 -9.429E-02
   1   12   24     2     7    6.0664E+04 -1.9143E+03   6.2578E+04  0.000E+00  0.000E+00  0.000E+00  3.87563E+01  1.313E-01  2.000E+01  2.000E+04 -9.572E-02
   1   13   23     2     8    6.2578E+04 -3.7149E+02   6.2950E+04  0.000E+00  0.000E+00  0.000E+00  3.85078E+01  1.328E-01  2.000E+01  2.000E+04 -1.857E-02
   1   14   22     2     9    6.2950E+04  2.0878E+03   6.0862E+04  0.000E+00  0.000E+00  0.000E+00  3.82567E+01  1.317E-01  2.000E+01  2.000E+04  1.044E-01
   1   14   22     3     1    1.7596E+05 -8.5170E+03   1.8447E+05  0.000E+00  0.000E+00  0.000E+00  3.77265E+01  1.709E-01  2.000E+01  2.000E+04 -4.258E-01
   1   15   23     3     2    1.8447E+05 -3.7777E+02   1.8485E+05  0.000E+00  0.000E+00  0.000E+00  3.68401E+01  1.734E-01  2.000E+01  2.000E+04 -1.889E-02
   1   15   24     3     3    1.8485E+05 -3.0011E+02   1.8515E+05  0.000E+00  0.000E+00  0.000E+00  3.59514E+01  1.736E-01  2.000E+01  2.000E+04 -1.501E-02
   1   15   25     3     4    1.8515E+05 -3.2343E+02   1.8548E+05  0.000E+00  0.000E+00  0.000E+00  3.50627E+01  1.738E-01  2.000E+01  2.000E+04 -1.617E-02
   1   15   26     3     5    1.8548E+05 -4.2114E+02   1.8590E+05  0.000E+00  0.000E+00  0.000E+00  3.41740E+01  1.740E-01  2.000E+01  2.000E+04 -2.106E-02
   1   16   27     3     6    1.8590E+05 -4.4464E+02   1.8634E+05  0.000E+00  0.000E+00  0.000E+00  3.32854E+01  1.743E-01  2.000E+01  2.000E+04 -2.223E-02
   1   17   28     3     7    1.8634E+05 -1.7043E+03   1.8805E+05  0.000E+00  0.000E+00  0.000E+00  3.23971E+01  1.749E-01  2.000E+01  2.000E+04 -8.522E-02
   1   18   29     3     8    1.8805E+05 -2.7710E+03   1.9082E+05  0.000E+00  0.000E+00  0.000E+00  3.15094E+01  1.761E-01  2.000E+01  2.000E+04 -1.385E-01
   1   18   30     3     9    1.9082E+05 -3.1735E+03   1.9399E+05  0.000E+00  0.000E+00  0.000E+00  3.06222E+01  1.778E-01  2.000E+01  2.000E+04 -1.587E-01



1
              HEAD IN LAYER   1 AT END OF TIME STEP   1 IN STRESS PERIOD   10
  ---------------------------------------------------------------------------

          1      2      3      4      5      6      7      8      9     10
         11     12     13     14     15     16     17     18     19     20
         21     22     23     24     25     26     27     28     29     30
 .........................................................................
   1  ****** ****** ****** ****** ****** ****** ****** ****** ****** ******
      ****** ****** ****** ****** ****** ****** ****** ****** ****** ******
      ****** ****** ****** ****** ****** ****** ****** ****** ****** ******
   2  ****** ****** ****** ****** ****** ****** ****** ****** ****** ******
      ****** ****** ****** ****** ****** ****** ****** ****** ****** ******
      ****** ****** ****** ****** ****** ****** ****** ****** ****** ******
   3  ****** ****** ****** ****** ****** ****** ****** ****** ****** ******
      ****** ****** ****** ****** ****** ****** ****** ****** ****** ******
      ****** ****** ****** ****** ****** ****** ****** ****** ****** ******
   4  ****** ****** ****** ****** ****** ****** ****** ****** ****** ******
      ****** ****** ****** ****** ****** ****** ****** ****** ****** ******
      ****** ****** ****** ****** ****** ****** ****** ****** ****** ******
   5  ****** ****** ****** ****** ****** ****** ****** ****** ****** ******
      ****** ****** ****** ****** ****** ****** ****** ****** ****** ******
      ****** ****** ****** ****** ****** ****** ****** ****** ****** ******
   6  ****** ****** ****** ****** ****** ****** ****** ****** ****** ******
      ****** ****** ****** ****** ****** ****** ****** ****** ****** ******
      ****** ****** ****** ****** ****** ****** ****** ****** ****** ******
   7  ****** ****** ****** ****** ****** ****** ****** ****** ****** ******
      ****** ****** ****** ****** ****** ****** ****** ****** ****** ******
      ****** ****** ****** ****** ****** ****** ****** ****** ****** ******
   8  ****** ****** ****** ****** ****** ****** ****** ****** ****** ******
      ****** ****** ****** ****** ****** ****** ****** ****** ****** ******
      ****** ****** ****** ****** ****** ****** ****** ****** ****** ******
   9  ****** ****** ****** ****** ****** ****** ****** ****** ****** ******
      ****** ****** ****** ****** ****** ****** ****** ****** ****** ******
      ****** ****** ****** ****** ****** ****** ****** ****** ****** ******
  10  ****** ****** ****** ****** ****** ****** ****** ****** ****** ******
      ****** ****** ****** ****** ****** ****** ****** ****** ****** ******
      ****** ****** ****** ****** ****** ****** ****** ****** ****** ******
  11  ****** ****** ****** ****** ****** ****** ****** ****** ****** ******
      ****** ****** ****** ****** ****** ****** ****** ****** ****** ******
      ****** ****** ****** ****** ****** ****** ****** ****** ****** ******
  12  ****** ****** ****** ****** ****** ****** ****** ****** ****** ******
      ****** ****** ****** ****** ****** ****** ****** ****** ****** ******
      ****** ****** ****** ****** ****** ****** ****** ****** ****** ******
  13  ****** ****** ****** ****** ****** ****** ****** ****** ****** ******
      ****** ****** ****** ****** ****** ****** ****** ****** ****** ******
      ****** ****** ****** ****** ****** ****** ****** ****** ****** ******
  14  ****** ****** ****** ****** ****** ****** ****** ****** ****** ******
      ****** ****** ****** ****** ****** ****** ****** ****** ****** ******
      ****** ****** ****** ****** ****** ****** ****** ****** ****** ******
  15  ****** ****** ****** ****** ****** ****** ****** ****** ****** ******
      ****** ****** ****** ****** ****** ****** ****** ****** ****** ******
      ****** ****** ****** ****** ****** ****** ****** ****** ****** ******
  16  ****** ****** ****** ****** ****** ****** ****** ****** ****** ******
      ****** ****** ****** ****** ****** ****** ****** ****** ****** ******
      ****** ****** ****** ****** ****** ****** ****** ****** ****** ******
  17  ****** ****** ****** ****** ****** ****** ****** ****** ****** ******
      ****** ****** ****** ****** ****** ****** ****** ****** ****** ******
      ****** ****** ****** ****** ****** ****** ****** ****** ****** ******
  18  ****** ****** ****** ****** ****** ****** ****** ****** ****** ******
      ****** ****** ****** ****** ****** ****** ****** ****** ****** ******
      ****** ****** ****** ****** ****** ****** ****** ****** ****** ******
  19  ****** ****** ****** ****** ****** ****** ****** ****** ****** ******
      ****** ****** ****** ****** ****** ****** ****** ****** ****** ******
      ****** ****** ****** ****** ****** ****** ****** ****** ****** ******
  20  ****** ****** ****** ****** ****** ****** ****** ****** ****** ******
      ****** ****** ****** ****** ****** ****** ****** ****** ****** ******
      ****** ****** ****** ****** ****** ****** ****** ****** ****** ******
  21  ****** ****** ****** ****** ****** ****** ****** ****** ****** ******
      ****** ****** ****** ****** ****** ****** ****** ****** ****** ******
      ****** ****** ****** ****** ****** ****** ****** ****** ****** ******
  22  ****** ****** ****** ****** ****** ****** ****** ****** ****** ******
      ****** ****** ****** ****** ****** ****** ****** ****** ****** ******
      ****** ****** ****** ****** ****** ****** ****** ****** ****** ******
  23  ****** ****** ****** ****** ****** ****** ****** ****** ****** ******
      ****** ****** ****** ****** ****** ****** ****** ****** ****** ******
      ****** ****** ****** ****** ****** ****** ****** ****** ****** ******
  24  ****** ****** ****** ****** ****** ****** ****** ****** ****** ******
      ****** ****** ****** ****** ****** ****** ****** ****** ****** ******
      ****** ****** ****** ****** ****** ****** ****** ****** ****** ******
  25  ****** ****** ****** ****** ****** ****** ****** ****** ****** ******
      ****** ****** ****** ****** ****** ****** ****** ****** ****** ******
      ****** ****** ****** ****** ****** ****** ****** ****** ****** ******

 HEAD WILL BE SAVED ON UNIT   51 AT END OF TIME STEP    1, STRESS PERIOD   10
1
  VOLUMETRIC BUDGET FOR ENTIRE MODEL AT END OF TIME STEP    1, STRESS PERIOD  10
  ------------------------------------------------------------------------------

     CUMULATIVE VOLUMES      L**3       RATES FOR THIS TIME STEP      L**3/T
     ------------------                 ------------------------

           IN:                                      IN:
           ---                                      ---
             STORAGE =    34857678.3093               STORAGE =           0.0000
       CONSTANT HEAD =    26623647.2293         CONSTANT HEAD =       33084.7688
               WELLS =           0.0000                 WELLS =           0.0000
            RECHARGE =    23901600.0000              RECHARGE =       55200.0000
      STREAM LEAKAGE =     7595231.1129        STREAM LEAKAGE =        8779.3662

            TOTAL IN =    92978156.6515              TOTAL IN =       97064.1350

          OUT:                                     OUT:
          ----                                     ----
             STORAGE =     2322398.5057               STORAGE =       15666.0257
       CONSTANT HEAD =           0.0000         CONSTANT HEAD =           0.0000
               WELLS =    26137801.1224                 WELLS =       28628.4788
            RECHARGE =           0.0000              RECHARGE =           0.0000
      STREAM LEAKAGE =    64517958.6686        STREAM LEAKAGE =       52769.6267

           TOTAL OUT =    92978158.2967             TOTAL OUT =       97064.1311

            IN - OUT =          -1.6453              IN - OUT =       3.8901E-03

 PERCENT DISCREPANCY =          -0.00     PERCENT DISCREPANCY =           0.00






         TIME SUMMARY AT END OF TIME STEP    1 IN STRESS PERIOD   10
                    SECONDS     MINUTES      HOURS       DAYS        YEARS
                    -----------------------------------------------------------
   TIME STEP LENGTH 7.86240E+06 1.31040E+05  2184.0      91.000     0.24914    
 STRESS PERIOD TIME 7.86240E+06 1.31040E+05  2184.0      91.000     0.24914    
         TOTAL TIME 7.88832E+07 1.31472E+06  21912.      913.00      2.4997    
1
1
                            STRESS PERIOD NO.   11, LENGTH =   91.00000    
                            -----------------------------------------------

                              NUMBER OF TIME STEPS =     1

                               MULTIPLIER FOR DELT =     1.500

                            INITIAL TIME STEP SIZE =   91.00000    

 WELL NO.  LAYER   ROW   COL   STRESS RATE         
 --------------------------------------------------
      1      1     20     17     -0.1195E+05
      2      1     18     14      -7709.    
      3      1      9      3      -2375.    
      4      1     21     12      -6598.    

      4 WELLS

                 RECHARGE =   0.00000    

 REUSING STREAM SEGMENT DATA FROM LAST STRESS PERIOD
 
 SOLVING FOR HEAD 


     7 CALLS TO PCG ROUTINE FOR TIME STEP   1 IN STRESS PERIOD   11
    26 TOTAL ITERATIONS

 OUTPUT CONTROL FOR STRESS PERIOD   11   TIME STEP    1
    SAVE BUDGET
    SAVE HEAD FOR ALL LAYERS
    PRINT HEAD FOR ALL LAYERS
 UBDSV2 SAVING "STREAMFLOW OUT  " ON UNIT  50 AT TIME STEP  1, STRESS PERIOD  11



 STREAM LISTING     PERIOD     11   STEP        1

 LAYER ROW COL. STREAM  RCH.  FLOW INTO     FLOW TO   FLOW OUT OF   OVRLND.     DIRECT     STREAM       STREAM     STREAM     STREAM   STREAMBED  STREAMBED
                SEG.NO.  NO.  STRM. RCH.    AQUIFER    STRM. RCH.    RUNOFF     PRECIP       ET          HEAD       DEPTH      WIDTH   CONDCTNC.   GRADIENT

   1   13    1     1     1    1.0000E+05 -9.5792E+02   1.0096E+05  0.000E+00  0.000E+00  0.000E+00  4.84064E+01  1.451E-01  2.000E+01  2.000E+04 -4.790E-02
   1   13    2     1     2    1.0096E+05 -1.8403E+03   1.0280E+05  0.000E+00  0.000E+00  0.000E+00  4.79304E+01  1.463E-01  2.000E+01  2.000E+04 -9.201E-02
   1   14    3     1     3    1.0280E+05 -2.8552E+02   1.0308E+05  0.000E+00  0.000E+00  0.000E+00  4.74540E+01  1.472E-01  2.000E+01  2.000E+04 -1.428E-02
   1   15    4     1     4    1.0308E+05 -2.4734E+02   1.0333E+05  0.000E+00  0.000E+00  0.000E+00  4.69770E+01  1.474E-01  2.000E+01  2.000E+04 -1.237E-02
   1   16    5     1     5    1.0333E+05 -7.3659E+02   1.0407E+05  0.000E+00  0.000E+00  0.000E+00  4.65001E+01  1.478E-01  2.000E+01  2.000E+04 -3.683E-02
   1   16    6     1     6    1.0407E+05 -4.1683E+02   1.0448E+05  0.000E+00  0.000E+00  0.000E+00  4.60233E+01  1.483E-01  2.000E+01  2.000E+04 -2.084E-02
   1   16    7     1     7    1.0448E+05 -3.2097E+02   1.0481E+05  0.000E+00  0.000E+00  0.000E+00  4.55464E+01  1.486E-01  2.000E+01  2.000E+04 -1.605E-02
   1   16    8     1     8    1.0481E+05 -1.8758E+02   1.0499E+05  0.000E+00  0.000E+00  0.000E+00  4.50693E+01  1.489E-01  2.000E+01  2.000E+04 -9.379E-03
   1   16    9     1     9    1.0499E+05  1.3607E+00   1.0499E+05  0.000E+00  0.000E+00  0.000E+00  4.45921E+01  1.489E-01  2.000E+01  2.000E+04  6.804E-05
   1   16   10     1    10    1.0499E+05  2.6545E+02   1.0473E+05  0.000E+00  0.000E+00  0.000E+00  4.41147E+01  1.488E-01  2.000E+01  2.000E+04  1.327E-02
   1   16   11     1    11    1.0473E+05  6.5711E+02   1.0407E+05  0.000E+00  0.000E+00  0.000E+00  4.36371E+01  1.484E-01  2.000E+01  2.000E+04  3.286E-02
   1   16   12     1    12    1.0407E+05  1.8593E+03   1.0221E+05  0.000E+00  0.000E+00  0.000E+00  4.31587E+01  1.474E-01  2.000E+01  2.000E+04  9.297E-02
   1   15   13     1    13    1.0221E+05  9.8711E+02   1.0122E+05  0.000E+00  0.000E+00  0.000E+00  4.26802E+01  1.461E-01  2.000E+01  2.000E+04  4.936E-02
   1   14   14     1    14    1.0122E+05 -5.8844E-01   1.0122E+05  0.000E+00  0.000E+00  0.000E+00  4.22025E+01  1.457E-01  2.000E+01  2.000E+04 -2.942E-05
   1   13   15     1    15    1.0122E+05 -9.1179E+02   1.0214E+05  0.000E+00  0.000E+00  0.000E+00  4.17256E+01  1.461E-01  2.000E+01  2.000E+04 -4.559E-02
   1   12   16     1    16    1.0214E+05 -2.1875E+03   1.0432E+05  0.000E+00  0.000E+00  0.000E+00  4.12497E+01  1.474E-01  2.000E+01  2.000E+04 -1.094E-01
   1   12   17     1    17    1.0432E+05 -1.1961E+03   1.0552E+05  0.000E+00  0.000E+00  0.000E+00  4.07739E+01  1.489E-01  2.000E+01  2.000E+04 -5.980E-02
   1   12   18     1    18    1.0552E+05 -1.1446E+03   1.0666E+05  0.000E+00  0.000E+00  0.000E+00  4.02976E+01  1.499E-01  2.000E+01  2.000E+04 -5.723E-02
   1   12   19     1    19    1.0666E+05 -1.7950E+03   1.0846E+05  0.000E+00  0.000E+00  0.000E+00  3.98216E+01  1.511E-01  2.000E+01  2.000E+04 -8.975E-02
   1   13   20     1    20    1.0846E+05 -6.7362E+02   1.0913E+05  0.000E+00  0.000E+00  0.000E+00  3.93453E+01  1.522E-01  2.000E+01  2.000E+04 -3.368E-02
   1   14   21     1    21    1.0913E+05  1.0513E+02   1.0903E+05  0.000E+00  0.000E+00  0.000E+00  3.88683E+01  1.524E-01  2.000E+01  2.000E+04  5.257E-03
   1   14   22     1    22    1.0903E+05  5.0567E+03   1.0397E+05  0.000E+00  0.000E+00  0.000E+00  3.83889E+01  1.502E-01  2.000E+01  2.000E+04  2.528E-01
   1    9   30     2     1    5.0000E+04 -4.9168E+02   5.0492E+04  0.000E+00  0.000E+00  0.000E+00  4.02412E+01  1.162E-01  2.000E+01  2.000E+04 -2.458E-02
   1    9   29     2     2    5.0492E+04 -7.9149E+02   5.1283E+04  0.000E+00  0.000E+00  0.000E+00  3.99921E+01  1.171E-01  2.000E+01  2.000E+04 -3.957E-02
   1    9   28     2     3    5.1283E+04 -1.0461E+03   5.2329E+04  0.000E+00  0.000E+00  0.000E+00  3.97434E+01  1.184E-01  2.000E+01  2.000E+04 -5.231E-02
   1    9   27     2     4    5.2329E+04 -2.2511E+03   5.4580E+04  0.000E+00  0.000E+00  0.000E+00  3.94956E+01  1.206E-01  2.000E+01  2.000E+04 -1.126E-01
   1   10   26     2     5    5.4580E+04 -1.4494E+03   5.6030E+04  0.000E+00  0.000E+00  0.000E+00  3.92481E+01  1.231E-01  2.000E+01  2.000E+04 -7.247E-02
   1   11   25     2     6    5.6030E+04 -1.2557E+03   5.7285E+04  0.000E+00  0.000E+00  0.000E+00  3.89999E+01  1.249E-01  2.000E+01  2.000E+04 -6.278E-02
   1   12   24     2     7    5.7285E+04 -1.3411E+03   5.8627E+04  0.000E+00  0.000E+00  0.000E+00  3.87516E+01  1.266E-01  2.000E+01  2.000E+04 -6.705E-02
   1   13   23     2     8    5.8627E+04 -1.8561E+02   5.8812E+04  0.000E+00  0.000E+00  0.000E+00  3.85026E+01  1.276E-01  2.000E+01  2.000E+04 -9.280E-03
   1   14   22     2     9    5.8812E+04  2.3038E+03   5.6508E+04  0.000E+00  0.000E+00  0.000E+00  3.82512E+01  1.262E-01  2.000E+01  2.000E+04  1.152E-01
   1   14   22     3     1    1.6048E+05 -8.3713E+03   1.6885E+05  0.000E+00  0.000E+00  0.000E+00  3.77175E+01  1.619E-01  2.000E+01  2.000E+04 -4.186E-01
   1   15   23     3     2    1.6885E+05 -1.8545E+02   1.6904E+05  0.000E+00  0.000E+00  0.000E+00  3.68311E+01  1.644E-01  2.000E+01  2.000E+04 -9.273E-03
   1   15   24     3     3    1.6904E+05 -1.3483E+02   1.6917E+05  0.000E+00  0.000E+00  0.000E+00  3.59423E+01  1.645E-01  2.000E+01  2.000E+04 -6.742E-03
   1   15   25     3     4    1.6917E+05 -1.5434E+02   1.6932E+05  0.000E+00  0.000E+00  0.000E+00  3.50535E+01  1.646E-01  2.000E+01  2.000E+04 -7.717E-03
   1   15   26     3     5    1.6932E+05 -2.2537E+02   1.6955E+05  0.000E+00  0.000E+00  0.000E+00  3.41647E+01  1.647E-01  2.000E+01  2.000E+04 -1.127E-02
   1   16   27     3     6    1.6955E+05 -2.2147E+02   1.6977E+05  0.000E+00  0.000E+00  0.000E+00  3.32759E+01  1.648E-01  2.000E+01  2.000E+04 -1.107E-02
   1   17   28     3     7    1.6977E+05 -1.0940E+03   1.7087E+05  0.000E+00  0.000E+00  0.000E+00  3.23874E+01  1.652E-01  2.000E+01  2.000E+04 -5.470E-02
   1   18   29     3     8    1.7087E+05 -2.1479E+03   1.7301E+05  0.000E+00  0.000E+00  0.000E+00  3.14995E+01  1.662E-01  2.000E+01  2.000E+04 -1.074E-01
   1   18   30     3     9    1.7301E+05 -2.6836E+03   1.7570E+05  0.000E+00  0.000E+00  0.000E+00  3.06120E+01  1.676E-01  2.000E+01  2.000E+04 -1.342E-01



1
              HEAD IN LAYER   1 AT END OF TIME STEP   1 IN STRESS PERIOD   11
  ---------------------------------------------------------------------------

          1      2      3      4      5      6      7      8      9     10
         11     12     13     14     15     16     17     18     19     20
         21     22     23     24     25     26     27     28     29     30
 .........................................................................
   1  ****** ****** ****** ****** ****** ****** ****** ****** ****** ******
      ****** ****** ****** ****** ****** ****** ****** ****** ****** ******
      ****** ****** ****** ****** ****** ****** ****** ****** ****** ******
   2  ****** ****** ****** ****** ****** ****** ****** ****** ****** ******
      ****** ****** ****** ****** ****** ****** ****** ****** ****** ******
      ****** ****** ****** ****** ****** ****** ****** ****** ****** ******
   3  ****** ****** ****** ****** ****** ****** ****** ****** ****** ******
      ****** ****** ****** ****** ****** ****** ****** ****** ****** ******
      ****** ****** ****** ****** ****** ****** ****** ****** ****** ******
   4  ****** ****** ****** ****** ****** ****** ****** ****** ****** ******
      ****** ****** ****** ****** ****** ****** ****** ****** ****** ******
      ****** ****** ****** ****** ****** ****** ****** ****** ****** ******
   5  ****** ****** ****** ****** ****** ****** ****** ****** ****** ******
      ****** ****** ****** ****** ****** ****** ****** ****** ****** ******
      ****** ****** ****** ****** ****** ****** ****** ****** ****** ******
   6  ****** ****** ****** ****** ****** ****** ****** ****** ****** ******
      ****** ****** ****** ****** ****** ****** ****** ****** ****** ******
      ****** ****** ****** ****** ****** ****** ****** ****** ****** ******
   7  ****** ****** ****** ****** ****** ****** ****** ****** ****** ******
      ****** ****** ****** ****** ****** ****** ****** ****** ****** ******
      ****** ****** ****** ****** ****** ****** ****** ****** ****** ******
   8  ****** ****** ****** ****** ****** ****** ****** ****** ****** ******
      ****** ****** ****** ****** ****** ****** ****** ****** ****** ******
      ****** ****** ****** ****** ****** ****** ****** ****** ****** ******
   9  ****** ****** ****** ****** ****** ****** ****** ****** ****** ******
      ****** ****** ****** ****** ****** ****** ****** ****** ****** ******
      ****** ****** ****** ****** ****** ****** ****** ****** ****** ******
  10  ****** ****** ****** ****** ****** ****** ****** ****** ****** ******
      ****** ****** ****** ****** ****** ****** ****** ****** ****** ******
      ****** ****** ****** ****** ****** ****** ****** ****** ****** ******
  11  ****** ****** ****** ****** ****** ****** ****** ****** ****** ******
      ****** ****** ****** ****** ****** ****** ****** ****** ****** ******
      ****** ****** ****** ****** ****** ****** ****** ****** ****** ******
  12  ****** ****** ****** ****** ****** ****** ****** ****** ****** ******
      ****** ****** ****** ****** ****** ****** ****** ****** ****** ******
      ****** ****** ****** ****** ****** ****** ****** ****** ****** ******
  13  ****** ****** ****** ****** ****** ****** ****** ****** ****** ******
      ****** ****** ****** ****** ****** ****** ****** ****** ****** ******
      ****** ****** ****** ****** ****** ****** ****** ****** ****** ******
  14  ****** ****** ****** ****** ****** ****** ****** ****** ****** ******
      ****** ****** ****** ****** ****** ****** ****** ****** ****** ******
      ****** ****** ****** ****** ****** ****** ****** ****** ****** ******
  15  ****** ****** ****** ****** ****** ****** ****** ****** ****** ******
      ****** ****** ****** ****** ****** ****** ****** ****** ****** ******
      ****** ****** ****** ****** ****** ****** ****** ****** ****** ******
  16  ****** ****** ****** ****** ****** ****** ****** ****** ****** ******
      ****** ****** ****** ****** ****** ****** ****** ****** ****** ******
      ****** ****** ****** ****** ****** ****** ****** ****** ****** ******
  17  ****** ****** ****** ****** ****** ****** ****** ****** ****** ******
      ****** ****** ****** ****** ****** ****** ****** ****** ****** ******
      ****** ****** ****** ****** ****** ****** ****** ****** ****** ******
  18  ****** ****** ****** ****** ****** ****** ****** ****** ****** ******
      ****** ****** ****** ****** ****** ****** ****** ****** ****** ******
      ****** ****** ****** ****** ****** ****** ****** ****** ****** ******
  19  ****** ****** ****** ****** ****** ****** ****** ****** ****** ******
      ****** ****** ****** ****** ****** ****** ****** ****** ****** ******
      ****** ****** ****** ****** ****** ****** ****** ****** ****** ******
  20  ****** ****** ****** ****** ****** ****** ****** ****** ****** ******
      ****** ****** ****** ****** ****** ****** ****** ****** ****** ******
      ****** ****** ****** ****** ****** ****** ****** ****** ****** ******
  21  ****** ****** ****** ****** ****** ****** ****** ****** ****** ******
      ****** ****** ****** ****** ****** ****** ****** ****** ****** ******
      ****** ****** ****** ****** ****** ****** ****** ****** ****** ******
  22  ****** ****** ****** ****** ****** ****** ****** ****** ****** ******
      ****** ****** ****** ****** ****** ****** ****** ****** ****** ******
      ****** ****** ****** ****** ****** ****** ****** ****** ****** ******
  23  ****** ****** ****** ****** ****** ****** ****** ****** ****** ******
      ****** ****** ****** ****** ****** ****** ****** ****** ****** ******
      ****** ****** ****** ****** ****** ****** ****** ****** ****** ******
  24  ****** ****** ****** ****** ****** ****** ****** ****** ****** ******
      ****** ****** ****** ****** ****** ****** ****** ****** ****** ******
      ****** ****** ****** ****** ****** ****** ****** ****** ****** ******
  25  ****** ****** ****** ****** ****** ****** ****** ****** ****** ******
      ****** ****** ****** ****** ****** ****** ****** ****** ****** ******
      ****** ****** ****** ****** ****** ****** ****** ****** ****** ******

 HEAD WILL BE SAVED ON UNIT   51 AT END OF TIME STEP    1, STRESS PERIOD   11
1
  VOLUMETRIC BUDGET FOR ENTIRE MODEL AT END OF TIME STEP    1, STRESS PERIOD  11
  ------------------------------------------------------------------------------

     CUMULATIVE VOLUMES      L**3       RATES FOR THIS TIME STEP      L**3/T
     ------------------                 ------------------------

           IN:                                      IN:
           ---                                      ---
             STORAGE =    36491281.4134               STORAGE =       17951.6825
       CONSTANT HEAD =    29933625.1376         CONSTANT HEAD =       36373.3836
               WELLS =           0.0000                 WELLS =           0.0000
            RECHARGE =    23901600.0000              RECHARGE =           0.0000
      STREAM LEAKAGE =     8617697.7426        STREAM LEAKAGE =       11235.8970

            TOTAL IN =    98944204.2936              TOTAL IN =       65560.9631

          OUT:                                     OUT:
          ----                                     ----
             STORAGE =     2322398.5057               STORAGE =           0.0000
       CONSTANT HEAD =           0.0000         CONSTANT HEAD =           0.0000
               WELLS =    28742992.6910                 WELLS =       28628.4788
            RECHARGE =           0.0000              RECHARGE =           0.0000
      STREAM LEAKAGE =    67878815.2057        STREAM LEAKAGE =       36932.4894

           TOTAL OUT =    98944206.4025             TOTAL OUT =       65560.9682

            IN - OUT =          -2.1089              IN - OUT =      -5.0943E-03

 PERCENT DISCREPANCY =          -0.00     PERCENT DISCREPANCY =          -0.00






         TIME SUMMARY AT END OF TIME STEP    1 IN STRESS PERIOD   11
                    SECONDS     MINUTES      HOURS       DAYS        YEARS
                    -----------------------------------------------------------
   TIME STEP LENGTH 7.86240E+06 1.31040E+05  2184.0      91.000     0.24914    
 STRESS PERIOD TIME 7.86240E+06 1.31040E+05  2184.0      91.000     0.24914    
         TOTAL TIME 8.67456E+07 1.44576E+06  24096.      1004.0      2.7488    
1
1
                            STRESS PERIOD NO.   12, LENGTH =   91.00000    
                            -----------------------------------------------

                              NUMBER OF TIME STEPS =     1

                               MULTIPLIER FOR DELT =     1.500

                            INITIAL TIME STEP SIZE =   91.00000    

 WELL NO.  LAYER   ROW   COL   STRESS RATE         
 --------------------------------------------------
      1      1     20     17     -0.1195E+05
      2      1     18     14      -7709.    
      3      1      9      3      -2375.    
      4      1     21     12      -6598.    

      4 WELLS

                 RECHARGE =  1.000000E-03

 REUSING STREAM SEGMENT DATA FROM LAST STRESS PERIOD
 
 SOLVING FOR HEAD 


     7 CALLS TO PCG ROUTINE FOR TIME STEP   1 IN STRESS PERIOD   12
    24 TOTAL ITERATIONS

 OUTPUT CONTROL FOR STRESS PERIOD   12   TIME STEP    1
    SAVE BUDGET
    SAVE HEAD FOR ALL LAYERS
    PRINT HEAD FOR ALL LAYERS
 UBDSV2 SAVING "STREAMFLOW OUT  " ON UNIT  50 AT TIME STEP  1, STRESS PERIOD  12



 STREAM LISTING     PERIOD     12   STEP        1

 LAYER ROW COL. STREAM  RCH.  FLOW INTO     FLOW TO   FLOW OUT OF   OVRLND.     DIRECT     STREAM       STREAM     STREAM     STREAM   STREAMBED  STREAMBED
                SEG.NO.  NO.  STRM. RCH.    AQUIFER    STRM. RCH.    RUNOFF     PRECIP       ET          HEAD       DEPTH      WIDTH   CONDCTNC.   GRADIENT

   1   13    1     1     1    1.0000E+05 -1.1020E+03   1.0110E+05  0.000E+00  0.000E+00  0.000E+00  4.84065E+01  1.451E-01  2.000E+01  2.000E+04 -5.510E-02
   1   13    2     1     2    1.0110E+05 -1.9952E+03   1.0310E+05  0.000E+00  0.000E+00  0.000E+00  4.79306E+01  1.465E-01  2.000E+01  2.000E+04 -9.976E-02
   1   14    3     1     3    1.0310E+05 -3.6400E+02   1.0346E+05  0.000E+00  0.000E+00  0.000E+00  4.74543E+01  1.475E-01  2.000E+01  2.000E+04 -1.820E-02
   1   15    4     1     4    1.0346E+05 -3.2962E+02   1.0379E+05  0.000E+00  0.000E+00  0.000E+00  4.69773E+01  1.478E-01  2.000E+01  2.000E+04 -1.648E-02
   1   16    5     1     5    1.0379E+05 -9.4589E+02   1.0474E+05  0.000E+00  0.000E+00  0.000E+00  4.65006E+01  1.483E-01  2.000E+01  2.000E+04 -4.729E-02
   1   16    6     1     6    1.0474E+05 -5.4703E+02   1.0528E+05  0.000E+00  0.000E+00  0.000E+00  4.60240E+01  1.490E-01  2.000E+01  2.000E+04 -2.735E-02
   1   16    7     1     7    1.0528E+05 -4.4611E+02   1.0573E+05  0.000E+00  0.000E+00  0.000E+00  4.55471E+01  1.494E-01  2.000E+01  2.000E+04 -2.231E-02
   1   16    8     1     8    1.0573E+05 -3.1167E+02   1.0604E+05  0.000E+00  0.000E+00  0.000E+00  4.50702E+01  1.497E-01  2.000E+01  2.000E+04 -1.558E-02
   1   16    9     1     9    1.0604E+05 -1.2314E+02   1.0616E+05  0.000E+00  0.000E+00  0.000E+00  4.45931E+01  1.499E-01  2.000E+01  2.000E+04 -6.157E-03
   1   16   10     1    10    1.0616E+05  1.3965E+02   1.0602E+05  0.000E+00  0.000E+00  0.000E+00  4.41158E+01  1.499E-01  2.000E+01  2.000E+04  6.982E-03
   1   16   11     1    11    1.0602E+05  5.2913E+02   1.0550E+05  0.000E+00  0.000E+00  0.000E+00  4.36382E+01  1.496E-01  2.000E+01  2.000E+04  2.646E-02
   1   16   12     1    12    1.0550E+05  1.6582E+03   1.0384E+05  0.000E+00  0.000E+00  0.000E+00  4.31600E+01  1.487E-01  2.000E+01  2.000E+04  8.291E-02
   1   15   13     1    13    1.0384E+05  7.7056E+02   1.0307E+05  0.000E+00  0.000E+00  0.000E+00  4.26817E+01  1.476E-01  2.000E+01  2.000E+04  3.853E-02
   1   14   14     1    14    1.0307E+05 -2.1784E+02   1.0328E+05  0.000E+00  0.000E+00  0.000E+00  4.22042E+01  1.474E-01  2.000E+01  2.000E+04 -1.089E-02
   1   13   15     1    15    1.0328E+05 -1.1219E+03   1.0441E+05  0.000E+00  0.000E+00  0.000E+00  4.17275E+01  1.480E-01  2.000E+01  2.000E+04 -5.609E-02
   1   12   16     1    16    1.0441E+05 -2.3714E+03   1.0678E+05  0.000E+00  0.000E+00  0.000E+00  4.12517E+01  1.495E-01  2.000E+01  2.000E+04 -1.186E-01
   1   12   17     1    17    1.0678E+05 -1.3497E+03   1.0813E+05  0.000E+00  0.000E+00  0.000E+00  4.07760E+01  1.510E-01  2.000E+01  2.000E+04 -6.748E-02
   1   12   18     1    18    1.0813E+05 -1.3003E+03   1.0943E+05  0.000E+00  0.000E+00  0.000E+00  4.02999E+01  1.521E-01  2.000E+01  2.000E+04 -6.502E-02
   1   12   19     1    19    1.0943E+05 -1.9876E+03   1.1142E+05  0.000E+00  0.000E+00  0.000E+00  3.98240E+01  1.535E-01  2.000E+01  2.000E+04 -9.938E-02
   1   13   20     1    20    1.1142E+05 -8.8378E+02   1.1230E+05  0.000E+00  0.000E+00  0.000E+00  3.93479E+01  1.547E-01  2.000E+01  2.000E+04 -4.419E-02
   1   14   21     1    21    1.1230E+05 -8.8306E+01   1.1239E+05  0.000E+00  0.000E+00  0.000E+00  3.88710E+01  1.551E-01  2.000E+01  2.000E+04 -4.415E-03
   1   14   22     1    22    1.1239E+05  5.0051E+03   1.0738E+05  0.000E+00  0.000E+00  0.000E+00  3.83917E+01  1.531E-01  2.000E+01  2.000E+04  2.503E-01
   1    9   30     2     1    5.0000E+04 -6.6820E+02   5.0668E+04  0.000E+00  0.000E+00  0.000E+00  4.02413E+01  1.163E-01  2.000E+01  2.000E+04 -3.341E-02
   1    9   29     2     2    5.0668E+04 -9.6596E+02   5.1634E+04  0.000E+00  0.000E+00  0.000E+00  3.99925E+01  1.175E-01  2.000E+01  2.000E+04 -4.830E-02
   1    9   28     2     3    5.1634E+04 -1.2171E+03   5.2851E+04  0.000E+00  0.000E+00  0.000E+00  3.97440E+01  1.190E-01  2.000E+01  2.000E+04 -6.085E-02
   1    9   27     2     4    5.2851E+04 -2.4605E+03   5.5312E+04  0.000E+00  0.000E+00  0.000E+00  3.94965E+01  1.215E-01  2.000E+01  2.000E+04 -1.230E-01
   1   10   26     2     5    5.5312E+04 -1.6794E+03   5.6991E+04  0.000E+00  0.000E+00  0.000E+00  3.92492E+01  1.242E-01  2.000E+01  2.000E+04 -8.397E-02
   1   11   25     2     6    5.6991E+04 -1.4818E+03   5.8473E+04  0.000E+00  0.000E+00  0.000E+00  3.90013E+01  1.263E-01  2.000E+01  2.000E+04 -7.409E-02
   1   12   24     2     7    5.8473E+04 -1.5475E+03   6.0020E+04  0.000E+00  0.000E+00  0.000E+00  3.87533E+01  1.283E-01  2.000E+01  2.000E+04 -7.738E-02
   1   13   23     2     8    6.0020E+04 -2.6329E+02   6.0284E+04  0.000E+00  0.000E+00  0.000E+00  3.85045E+01  1.295E-01  2.000E+01  2.000E+04 -1.316E-02
   1   14   22     2     9    6.0284E+04  2.2346E+03   5.8049E+04  0.000E+00  0.000E+00  0.000E+00  3.82532E+01  1.282E-01  2.000E+01  2.000E+04  1.117E-01
   1   14   22     3     1    1.6543E+05 -8.4214E+03   1.7385E+05  0.000E+00  0.000E+00  0.000E+00  3.77204E+01  1.648E-01  2.000E+01  2.000E+04 -4.211E-01
   1   15   23     3     2    1.7385E+05 -2.5733E+02   1.7411E+05  0.000E+00  0.000E+00  0.000E+00  3.68340E+01  1.673E-01  2.000E+01  2.000E+04 -1.287E-02
   1   15   24     3     3    1.7411E+05 -1.9983E+02   1.7431E+05  0.000E+00  0.000E+00  0.000E+00  3.59453E+01  1.675E-01  2.000E+01  2.000E+04 -9.991E-03
   1   15   25     3     4    1.7431E+05 -2.2062E+02   1.7453E+05  0.000E+00  0.000E+00  0.000E+00  3.50565E+01  1.676E-01  2.000E+01  2.000E+04 -1.103E-02
   1   15   26     3     5    1.7453E+05 -3.0280E+02   1.7483E+05  0.000E+00  0.000E+00  0.000E+00  3.41677E+01  1.677E-01  2.000E+01  2.000E+04 -1.514E-02
   1   16   27     3     6    1.7483E+05 -3.0816E+02   1.7514E+05  0.000E+00  0.000E+00  0.000E+00  3.32790E+01  1.679E-01  2.000E+01  2.000E+04 -1.541E-02
   1   17   28     3     7    1.7514E+05 -1.3145E+03   1.7646E+05  0.000E+00  0.000E+00  0.000E+00  3.23906E+01  1.684E-01  2.000E+01  2.000E+04 -6.572E-02
   1   18   29     3     8    1.7646E+05 -2.3478E+03   1.7880E+05  0.000E+00  0.000E+00  0.000E+00  3.15028E+01  1.694E-01  2.000E+01  2.000E+04 -1.174E-01
   1   18   30     3     9    1.7880E+05 -2.8513E+03   1.8166E+05  0.000E+00  0.000E+00  0.000E+00  3.06154E+01  1.709E-01  2.000E+01  2.000E+04 -1.426E-01



1
              HEAD IN LAYER   1 AT END OF TIME STEP   1 IN STRESS PERIOD   12
  ---------------------------------------------------------------------------

          1      2      3      4      5      6      7      8      9     10
         11     12     13     14     15     16     17     18     19     20
         21     22     23     24     25     26     27     28     29     30
 .........................................................................
   1  ****** ****** ****** ****** ****** ****** ****** ****** ****** ******
      ****** ****** ****** ****** ****** ****** ****** ****** ****** ******
      ****** ****** ****** ****** ****** ****** ****** ****** ****** ******
   2  ****** ****** ****** ****** ****** ****** ****** ****** ****** ******
      ****** ****** ****** ****** ****** ****** ****** ****** ****** ******
      ****** ****** ****** ****** ****** ****** ****** ****** ****** ******
   3  ****** ****** ****** ****** ****** ****** ****** ****** ****** ******
      ****** ****** ****** ****** ****** ****** ****** ****** ****** ******
      ****** ****** ****** ****** ****** ****** ****** ****** ****** ******
   4  ****** ****** ****** ****** ****** ****** ****** ****** ****** ******
      ****** ****** ****** ****** ****** ****** ****** ****** ****** ******
      ****** ****** ****** ****** ****** ****** ****** ****** ****** ******
   5  ****** ****** ****** ****** ****** ****** ****** ****** ****** ******
      ****** ****** ****** ****** ****** ****** ****** ****** ****** ******
      ****** ****** ****** ****** ****** ****** ****** ****** ****** ******
   6  ****** ****** ****** ****** ****** ****** ****** ****** ****** ******
      ****** ****** ****** ****** ****** ****** ****** ****** ****** ******
      ****** ****** ****** ****** ****** ****** ****** ****** ****** ******
   7  ****** ****** ****** ****** ****** ****** ****** ****** ****** ******
      ****** ****** ****** ****** ****** ****** ****** ****** ****** ******
      ****** ****** ****** ****** ****** ****** ****** ****** ****** ******
   8  ****** ****** ****** ****** ****** ****** ****** ****** ****** ******
      ****** ****** ****** ****** ****** ****** ****** ****** ****** ******
      ****** ****** ****** ****** ****** ****** ****** ****** ****** ******
   9  ****** ****** ****** ****** ****** ****** ****** ****** ****** ******
      ****** ****** ****** ****** ****** ****** ****** ****** ****** ******
      ****** ****** ****** ****** ****** ****** ****** ****** ****** ******
  10  ****** ****** ****** ****** ****** ****** ****** ****** ****** ******
      ****** ****** ****** ****** ****** ****** ****** ****** ****** ******
      ****** ****** ****** ****** ****** ****** ****** ****** ****** ******
  11  ****** ****** ****** ****** ****** ****** ****** ****** ****** ******
      ****** ****** ****** ****** ****** ****** ****** ****** ****** ******
      ****** ****** ****** ****** ****** ****** ****** ****** ****** ******
  12  ****** ****** ****** ****** ****** ****** ****** ****** ****** ******
      ****** ****** ****** ****** ****** ****** ****** ****** ****** ******
      ****** ****** ****** ****** ****** ****** ****** ****** ****** ******
  13  ****** ****** ****** ****** ****** ****** ****** ****** ****** ******
      ****** ****** ****** ****** ****** ****** ****** ****** ****** ******
      ****** ****** ****** ****** ****** ****** ****** ****** ****** ******
  14  ****** ****** ****** ****** ****** ****** ****** ****** ****** ******
      ****** ****** ****** ****** ****** ****** ****** ****** ****** ******
      ****** ****** ****** ****** ****** ****** ****** ****** ****** ******
  15  ****** ****** ****** ****** ****** ****** ****** ****** ****** ******
      ****** ****** ****** ****** ****** ****** ****** ****** ****** ******
      ****** ****** ****** ****** ****** ****** ****** ****** ****** ******
  16  ****** ****** ****** ****** ****** ****** ****** ****** ****** ******
      ****** ****** ****** ****** ****** ****** ****** ****** ****** ******
      ****** ****** ****** ****** ****** ****** ****** ****** ****** ******
  17  ****** ****** ****** ****** ****** ****** ****** ****** ****** ******
      ****** ****** ****** ****** ****** ****** ****** ****** ****** ******
      ****** ****** ****** ****** ****** ****** ****** ****** ****** ******
  18  ****** ****** ****** ****** ****** ****** ****** ****** ****** ******
      ****** ****** ****** ****** ****** ****** ****** ****** ****** ******
      ****** ****** ****** ****** ****** ****** ****** ****** ****** ******
  19  ****** ****** ****** ****** ****** ****** ****** ****** ****** ******
      ****** ****** ****** ****** ****** ****** ****** ****** ****** ******
      ****** ****** ****** ****** ****** ****** ****** ****** ****** ******
  20  ****** ****** ****** ****** ****** ****** ****** ****** ****** ******
      ****** ****** ****** ****** ****** ****** ****** ****** ****** ******
      ****** ****** ****** ****** ****** ****** ****** ****** ****** ******
  21  ****** ****** ****** ****** ****** ****** ****** ****** ****** ******
      ****** ****** ****** ****** ****** ****** ****** ****** ****** ******
      ****** ****** ****** ****** ****** ****** ****** ****** ****** ******
  22  ****** ****** ****** ****** ****** ****** ****** ****** ****** ******
      ****** ****** ****** ****** ****** ****** ****** ****** ****** ******
      ****** ****** ****** ****** ****** ****** ****** ****** ****** ******
  23  ****** ****** ****** ****** ****** ****** ****** ****** ****** ******
      ****** ****** ****** ****** ****** ****** ****** ****** ****** ******
      ****** ****** ****** ****** ****** ****** ****** ****** ****** ******
  24  ****** ****** ****** ****** ****** ****** ****** ****** ****** ******
      ****** ****** ****** ****** ****** ****** ****** ****** ****** ******
      ****** ****** ****** ****** ****** ****** ****** ****** ****** ******
  25  ****** ****** ****** ****** ****** ****** ****** ****** ****** ******
      ****** ****** ****** ****** ****** ****** ****** ****** ****** ******
      ****** ****** ****** ****** ****** ****** ****** ****** ****** ******

 HEAD WILL BE SAVED ON UNIT   51 AT END OF TIME STEP    1, STRESS PERIOD   12
1
  VOLUMETRIC BUDGET FOR ENTIRE MODEL AT END OF TIME STEP    1, STRESS PERIOD  12
  ------------------------------------------------------------------------------

     CUMULATIVE VOLUMES      L**3       RATES FOR THIS TIME STEP      L**3/T
     ------------------                 ------------------------

           IN:                                      IN:
           ---                                      ---
             STORAGE =    36492240.8751               STORAGE =          10.5435
       CONSTANT HEAD =    33180387.6930         CONSTANT HEAD =       35678.7094
               WELLS =           0.0000                 WELLS =           0.0000
            RECHARGE =    26413200.0000              RECHARGE =       27600.0000
      STREAM LEAKAGE =     9558390.8722        STREAM LEAKAGE =       10337.2871

            TOTAL IN =   105644219.4403              TOTAL IN =       73626.5401

          OUT:                                     OUT:
          ----                                     ----
             STORAGE =     2595879.3656               STORAGE =        3005.2842
       CONSTANT HEAD =           0.0000         CONSTANT HEAD =           0.0000
               WELLS =    31348184.2596                 WELLS =       28628.4788
            RECHARGE =           0.0000              RECHARGE =           0.0000
      STREAM LEAKAGE =    71700157.8334        STREAM LEAKAGE =       41992.7761

           TOTAL OUT =   105644221.4587             TOTAL OUT =       73626.5391

            IN - OUT =          -2.0185              IN - OUT =       9.9355E-04

 PERCENT DISCREPANCY =          -0.00     PERCENT DISCREPANCY =           0.00






         TIME SUMMARY AT END OF TIME STEP    1 IN STRESS PERIOD   12
                    SECONDS     MINUTES      HOURS       DAYS        YEARS
                    -----------------------------------------------------------
   TIME STEP LENGTH 7.86240E+06 1.31040E+05  2184.0      91.000     0.24914    
 STRESS PERIOD TIME 7.86240E+06 1.31040E+05  2184.0      91.000     0.24914    
         TOTAL TIME 9.46080E+07 1.57680E+06  26280.      1095.0      2.9979    
1

 Run end date and time (yyyy/mm/dd hh:mm:ss): 2019/08/04 17:20:36
 Elapsed run time:  0.041 Seconds

