                                  MODFLOW-2005     
      U.S. GEOLOGICAL SURVEY MODULAR FINITE-DIFFERENCE GROUND-WATER FLOW MODEL
                            VERSION 1.11.00 8/8/2013

 LIST FILE: supply2.lst
                         UNIT   10

 OPENING ..\data\supply.dis
 FILE TYPE:DIS   UNIT   11   STATUS:OLD    
 FORMAT:FORMATTED              ACCESS:SEQUENTIAL          

 OPENING ..\data\supply.ba6
 FILE TYPE:BAS6   UNIT   12   STATUS:OLD    
 FORMAT:FORMATTED              ACCESS:SEQUENTIAL          

 OPENING ..\data\supply_het.bc6
 FILE TYPE:BCF6   UNIT   13   STATUS:OLD    
 FORMAT:FORMATTED              ACCESS:SEQUENTIAL          

 OPENING ..\data\supply.rch
 FILE TYPE:RCH   UNIT   15   STATUS:OLD    
 FORMAT:FORMATTED              ACCESS:SEQUENTIAL          

 OPENING ..\data\supply2.sfr
 FILE TYPE:SFR   UNIT   16   STATUS:OLD    
 FORMAT:FORMATTED              ACCESS:SEQUENTIAL          

 OPENING ..\data\supply.oc
 FILE TYPE:OC   UNIT   17   STATUS:OLD    
 FORMAT:FORMATTED              ACCESS:SEQUENTIAL          

 OPENING ..\data\supply.pcg
 FILE TYPE:PCG   UNIT   18   STATUS:OLD    
 FORMAT:FORMATTED              ACCESS:SEQUENTIAL          

 OPENING supply2.wel
 FILE TYPE:WEL   UNIT   19   STATUS:OLD    
 FORMAT:FORMATTED              ACCESS:SEQUENTIAL          

 OPENING supply2sf.cbc
 FILE TYPE:DATA(BINARY)   UNIT   50   STATUS:UNKNOWN
 FORMAT:BINARY                 ACCESS:SEQUENTIAL          

 OPENING supply2hd.bhd
 FILE TYPE:DATA(BINARY)   UNIT   51   STATUS:UNKNOWN
 FORMAT:BINARY                 ACCESS:SEQUENTIAL          

 BAS -- BASIC PACKAGE, VERSION 7, 5/2/2005 INPUT READ FROM UNIT   12
 
 MODFLOW was compiled using uniform precision
 Precision of REAL and DOUBLE PRECISION variables:          15

 DISCRETIZATION INPUT DATA READ FROM UNIT   11
    1 LAYERS        25 ROWS        30 COLUMNS
   12 STRESS PERIOD(S) IN SIMULATION
 MODEL TIME UNIT IS DAYS
 MODEL LENGTH UNIT IS UNDEFINED
  Confining bed flag for each layer:
   0

                     DELR =   200.000    

                     DELC =   200.000    

 TOP ELEVATION OF LAYER 1 =  100.0000    

   MODEL LAYER BOTTOM EL. =   0.00000     FOR LAYER   1


 STRESS PERIOD     LENGTH       TIME STEPS     MULTIPLIER FOR DELT    SS FLAG
 ----------------------------------------------------------------------------
        1         92.00000          1                    1.500         TR
        2         91.00000          1                    1.500         TR
        3         91.00000          1                    1.500         TR
        4         91.00000          1                    1.500         TR
        5         92.00000          1                    1.500         TR
        6         91.00000          1                    1.500         TR
        7         91.00000          1                    1.500         TR
        8         91.00000          1                    1.500         TR
        9         92.00000          1                    1.500         TR
       10         91.00000          1                    1.500         TR
       11         91.00000          1                    1.500         TR
       12         91.00000          1                    1.500         TR

 TRANSIENT SIMULATION



 
 #MODOFC transient water supply sample problem                                   
 #                                                                               
 THE FREE FORMAT OPTION HAS BEEN SELECTED



                     BOUNDARY ARRAY FOR LAYER   1
 READING ON UNIT   12 WITH FORMAT: (20I4)              

 AQUIFER HEAD WILL BE SET TO   0.0000     AT ALL NO-FLOW NODES (IBOUND=0).



                       INITIAL HEAD FOR LAYER   1
 READING ON UNIT   12 WITH FORMAT: (10F13.0)           

 OUTPUT CONTROL IS SPECIFIED ONLY AT TIME STEPS FOR WHICH OUTPUT IS DESIRED
 COMPACT CELL-BY-CELL BUDGET FILES WILL BE WRITTEN
 HEAD PRINT FORMAT CODE IS  18    DRAWDOWN PRINT FORMAT CODE IS   0
 HEADS WILL BE SAVED ON UNIT   51    DRAWDOWNS WILL BE SAVED ON UNIT    0

 BCF -- BLOCK-CENTERED FLOW PACKAGE, VERSION 7, 5/2/2005
         INPUT READ FROM UNIT 13
 TRANSIENT SIMULATION
 HEAD AT CELLS THAT CONVERT TO DRY=   0.0000    
 WETTING CAPABILITY IS NOT ACTIVE
      LAYER  LAYER-TYPE CODE     INTERBLOCK T
      --------------------------------------------
         1            0          0 -- HARMONIC    

 COLUMN TO ROW ANISOTROPY =  1.000000    

     PRIMARY STORAGE COEF =  5.000000E-02 FOR LAYER   1



               TRANSMIS. ALONG ROWS FOR LAYER   1
 READING ON UNIT   13 WITH FORMAT: (FREE)              

 WEL -- WELL PACKAGE, VERSION 7, 5/2/2005 INPUT READ FROM UNIT   19
 # Well package input file written by MMProc
 No named parameters
 MAXIMUM OF      4 ACTIVE WELLS AT ONE TIME


     0 Well parameters

 RCH -- RECHARGE PACKAGE, VERSION 7, 5/2/2005 INPUT READ FROM UNIT   15
 No named parameters
 OPTION 1 -- RECHARGE TO TOP LAYER


     0 Recharge parameters

 SFR7 -- STREAMFLOW ROUTING PACKAGE, VERSION 1.0.7, 2013-01-15
         INPUT READ FROM UNIT  16
 #  Supply2 test problem for GWM-VI
 #  The eighth entry in the first data line is ISTCB2 -
 #    Setting this to a negative number indicates that
 #    streamflows out of the reach will be saved to a
 #    binary file.  The absolute value of ISTCB2 is the
 #    unit to which unformatted flows will be written.
 #
 No named parameters
 Segment information will not be 
 read by reach
 No named parameters
 No specifed inflow files


 NUMBER OF STREAM REACHES IS   40

 NUMBER OF STREAM SEGMENTS IS    3

 NUMBER OF STREAM PARAMETERS IS    0

 NUMBER OF STREAM SEGMENTS DEFINED USING PARAMETERS IS              0

 MAXIMUM ERROR FOR STREAM LEAKAGE RATES IS  1.00E-04

 CONSTANT FOR MANNINGS EQUATION IS  1.2839E+05





   STREAM NETWORK DESCRIPTION: 

   LAYER    ROW    COL   SEGMENT   REACH     LENGTH
                          NUMBER   NUMBER    IN CELL        
   --------------------------------------------------
      1     13      1       1        1    2.0000E+02
      1     13      2       1        2    2.0000E+02
      1     14      3       1        3    2.0000E+02
      1     15      4       1        4    2.0000E+02
      1     16      5       1        5    2.0000E+02
      1     16      6       1        6    2.0000E+02
      1     16      7       1        7    2.0000E+02
      1     16      8       1        8    2.0000E+02
      1     16      9       1        9    2.0000E+02
      1     16     10       1       10    2.0000E+02
      1     16     11       1       11    2.0000E+02
      1     16     12       1       12    2.0000E+02
      1     15     13       1       13    2.0000E+02
      1     14     14       1       14    2.0000E+02
      1     13     15       1       15    2.0000E+02
      1     12     16       1       16    2.0000E+02
      1     12     17       1       17    2.0000E+02
      1     12     18       1       18    2.0000E+02
      1     12     19       1       19    2.0000E+02
      1     13     20       1       20    2.0000E+02
      1     14     21       1       21    2.0000E+02
      1     14     22       1       22    2.0000E+02
      1      9     30       2        1    2.0000E+02
      1      9     29       2        2    2.0000E+02
      1      9     28       2        3    2.0000E+02
      1      9     27       2        4    2.0000E+02
      1     10     26       2        5    2.0000E+02
      1     11     25       2        6    2.0000E+02
      1     12     24       2        7    2.0000E+02
      1     13     23       2        8    2.0000E+02
      1     14     22       2        9    2.0000E+02
      1     14     22       3        1    2.0000E+02
      1     15     23       3        2    2.0000E+02
      1     15     24       3        3    2.0000E+02
      1     15     25       3        4    2.0000E+02
      1     15     26       3        5    2.0000E+02
      1     16     27       3        6    2.0000E+02
      1     17     28       3        7    2.0000E+02
      1     18     29       3        8    2.0000E+02
      1     18     30       3        9    2.0000E+02




 PCG -- CONJUGATE-GRADIENT SOLUTION PACKAGE, VERSION 7, 5/2/2005
 MAXIMUM OF    500 CALLS OF SOLUTION ROUTINE
 MAXIMUM OF      5 INTERNAL ITERATIONS PER CALL TO SOLUTION ROUTINE
 MATRIX PRECONDITIONING TYPE :    1



                                    SOLUTION BY THE CONJUGATE-GRADIENT METHOD
                                   -------------------------------------------
                    MAXIMUM NUMBER OF CALLS TO PCG ROUTINE =      500
                        MAXIMUM ITERATIONS PER CALL TO PCG =        5
                               MATRIX PRECONDITIONING TYPE =        1
        RELAXATION FACTOR (ONLY USED WITH PRECOND. TYPE 1) =    0.10000E+01
 PARAMETER OF POLYNOMIAL PRECOND. = 2 (2) OR IS CALCULATED :        0
                         HEAD CHANGE CRITERION FOR CLOSURE =    0.10000E-05
                     RESIDUAL CHANGE CRITERION FOR CLOSURE =    0.10000E+01
            PCG HEAD AND RESIDUAL CHANGE PRINTOUT INTERVAL =        1
     PRINTING FROM SOLVER IS LIMITED(1) OR SUPPRESSED (>1) =        1
                            STEADY-STATE DAMPING PARAMETER =    0.10000E+01
                               TRANSIENT DAMPING PARAMETER =    0.10000E+01
1
                            STRESS PERIOD NO.    1, LENGTH =   92.00000    
                            -----------------------------------------------

                              NUMBER OF TIME STEPS =     1

                               MULTIPLIER FOR DELT =     1.500

                            INITIAL TIME STEP SIZE =   92.00000    

 WELL NO.  LAYER   ROW   COL   STRESS RATE         
 --------------------------------------------------
      1      1     11     23      -9982.    
      2      1     13     22      -7684.    
      3      1      6     18     -0.1279E+05
      4      1      7     23      -7655.    

      4 WELLS

                 RECHARGE =  5.000000E-04



 CLASSIFICATION & COUNT OF STREAM SEGMENTS BASED ON SOURCE OF INFLOW:

                HEADWATER     DIVERSION     RECEIVES TRIBUTARY FLOW
                ---------     ---------     -----------------------
                     2              0               1



                    INPUT DATA FOR EACH STREAM SEGMENT
 ---------------------------------------------------------------------------------------------

 SEGMENT    SEG.     INFLOW   OVERLAND   STREAM    STREAM   ICALC  OUTFLOW  DIVERSION PRIORITY
    NO.    LENGTH     RATE     RUNOFF      ET       PPT.    METH.  TO SEG.  FROM SEG.    NO.

      1  4.400E+03 1.000E+05 0.000E+00 0.000E+00 0.000E+00    1        3        0        0
      2  1.800E+03 5.000E+04 0.000E+00 0.000E+00 0.000E+00    1        3        0        0
      3  1.800E+03 0.000E+00 0.000E+00 0.000E+00 0.000E+00    1        0        0        0


         STREAMBED PROPERTIES AND STREAM DIMENSIONS

 SEGMENT     BED HYD. COND.      BED THICKNESS     ELEV.-TOP OF BED     WIDTH OF STREAM     DEPTH OF STREAM    STREAM ROUGHNESS
    No.     UPPER     LOWER     UPPER     LOWER     UPPER     LOWER     UPPER     LOWER     UPPER     LOWER   CHANNEL      BANK

     1  5.000E+00 5.000E+00 1.000E+00 1.000E+00 4.850E+01 3.800E+01 2.000E+01 2.000E+01                     5.000E-02
     2  5.000E+00 5.000E+00 1.000E+00 1.000E+00 4.025E+01 3.800E+01 2.000E+01 2.000E+01                     5.000E-02
     3  5.000E+00 5.000E+00 1.000E+00 1.000E+00 3.800E+01 3.000E+01 2.000E+01 2.000E+01                     5.000E-02



 
 SOLVING FOR HEAD 


     9 CALLS TO PCG ROUTINE FOR TIME STEP   1 IN STRESS PERIOD    1
    36 TOTAL ITERATIONS

 OUTPUT CONTROL FOR STRESS PERIOD    1   TIME STEP    1
    SAVE BUDGET
    SAVE HEAD FOR ALL LAYERS
    PRINT HEAD FOR ALL LAYERS
 UBDSV2 SAVING "STREAMFLOW OUT  " ON UNIT  50 AT TIME STEP  1, STRESS PERIOD   1



 STREAM LISTING     PERIOD      1   STEP        1

 LAYER ROW COL. STREAM  RCH.  FLOW INTO     FLOW TO   FLOW OUT OF   OVRLND.     DIRECT     STREAM       STREAM     STREAM     STREAM   STREAMBED  STREAMBED
                SEG.NO.  NO.  STRM. RCH.    AQUIFER    STRM. RCH.    RUNOFF     PRECIP       ET          HEAD       DEPTH      WIDTH   CONDCTNC.   GRADIENT

   1   13    1     1     1    1.0000E+05 -6.1134E+03   1.0611E+05  0.000E+00  0.000E+00  0.000E+00  4.84087E+01  1.473E-01  2.000E+01  2.000E+04 -3.057E-01
   1   13    2     1     2    1.0611E+05 -7.5826E+03   1.1370E+05  0.000E+00  0.000E+00  0.000E+00  4.79372E+01  1.531E-01  2.000E+01  2.000E+04 -3.791E-01
   1   14    3     1     3    1.1370E+05 -2.1986E+03   1.1589E+05  0.000E+00  0.000E+00  0.000E+00  4.74640E+01  1.571E-01  2.000E+01  2.000E+04 -1.099E-01
   1   15    4     1     4    1.1589E+05 -2.2702E+03   1.1816E+05  0.000E+00  0.000E+00  0.000E+00  4.69885E+01  1.590E-01  2.000E+01  2.000E+04 -1.135E-01
   1   16    5     1     5    1.1816E+05 -7.1869E+03   1.2535E+05  0.000E+00  0.000E+00  0.000E+00  4.65151E+01  1.628E-01  2.000E+01  2.000E+04 -3.593E-01
   1   16    6     1     6    1.2535E+05 -4.3050E+03   1.2966E+05  0.000E+00  0.000E+00  0.000E+00  4.60424E+01  1.674E-01  2.000E+01  2.000E+04 -2.153E-01
   1   16    7     1     7    1.2966E+05 -4.1403E+03   1.3380E+05  0.000E+00  0.000E+00  0.000E+00  4.55684E+01  1.707E-01  2.000E+01  2.000E+04 -2.070E-01
   1   16    8     1     8    1.3380E+05 -4.0999E+03   1.3790E+05  0.000E+00  0.000E+00  0.000E+00  4.50943E+01  1.738E-01  2.000E+01  2.000E+04 -2.050E-01
   1   16    9     1     9    1.3790E+05 -4.0899E+03   1.4199E+05  0.000E+00  0.000E+00  0.000E+00  4.46201E+01  1.770E-01  2.000E+01  2.000E+04 -2.045E-01
   1   16   10     1    10    1.4199E+05 -4.0881E+03   1.4608E+05  0.000E+00  0.000E+00  0.000E+00  4.41460E+01  1.801E-01  2.000E+01  2.000E+04 -2.044E-01
   1   16   11     1    11    1.4608E+05 -4.1245E+03   1.5020E+05  0.000E+00  0.000E+00  0.000E+00  4.36718E+01  1.831E-01  2.000E+01  2.000E+04 -2.062E-01
   1   16   12     1    12    1.5020E+05 -6.9994E+03   1.5720E+05  0.000E+00  0.000E+00  0.000E+00  4.31986E+01  1.872E-01  2.000E+01  2.000E+04 -3.500E-01
   1   15   13     1    13    1.5720E+05 -7.2716E+03   1.6447E+05  0.000E+00  0.000E+00  0.000E+00  4.27265E+01  1.924E-01  2.000E+01  2.000E+04 -3.636E-01
   1   14   14     1    14    1.6447E+05 -7.7043E+03   1.7217E+05  0.000E+00  0.000E+00  0.000E+00  4.22545E+01  1.977E-01  2.000E+01  2.000E+04 -3.852E-01
   1   13   15     1    15    1.7217E+05 -7.9281E+03   1.8010E+05  0.000E+00  0.000E+00  0.000E+00  4.17827E+01  2.032E-01  2.000E+01  2.000E+04 -3.964E-01
   1   12   16     1    16    1.8010E+05 -8.2127E+03   1.8832E+05  0.000E+00  0.000E+00  0.000E+00  4.13110E+01  2.087E-01  2.000E+01  2.000E+04 -4.106E-01
   1   12   17     1    17    1.8832E+05 -5.7335E+03   1.9405E+05  0.000E+00  0.000E+00  0.000E+00  4.08384E+01  2.134E-01  2.000E+01  2.000E+04 -2.867E-01
   1   12   18     1    18    1.9405E+05 -5.4433E+03   1.9949E+05  0.000E+00  0.000E+00  0.000E+00  4.03648E+01  2.171E-01  2.000E+01  2.000E+04 -2.722E-01
   1   12   19     1    19    1.9949E+05 -6.1311E+03   2.0562E+05  0.000E+00  0.000E+00  0.000E+00  3.98914E+01  2.209E-01  2.000E+01  2.000E+04 -3.066E-01
   1   13   20     1    20    2.0562E+05 -4.8484E+03   2.1047E+05  0.000E+00  0.000E+00  0.000E+00  3.94177E+01  2.245E-01  2.000E+01  2.000E+04 -2.424E-01
   1   14   21     1    21    2.1047E+05 -5.1451E+03   2.1562E+05  0.000E+00  0.000E+00  0.000E+00  3.89436E+01  2.277E-01  2.000E+01  2.000E+04 -2.573E-01
   1   14   22     1    22    2.1562E+05  4.9195E+03   2.1070E+05  0.000E+00  0.000E+00  0.000E+00  3.84664E+01  2.278E-01  2.000E+01  2.000E+04  2.460E-01
   1    9   30     2     1    5.0000E+04 -4.6623E+03   5.4662E+04  0.000E+00  0.000E+00  0.000E+00  4.02441E+01  1.191E-01  2.000E+01  2.000E+04 -2.331E-01
   1    9   29     2     2    5.4662E+04 -4.9176E+03   5.9580E+04  0.000E+00  0.000E+00  0.000E+00  4.00005E+01  1.255E-01  2.000E+01  2.000E+04 -2.459E-01
   1    9   28     2     3    5.9580E+04 -5.0930E+03   6.4673E+04  0.000E+00  0.000E+00  0.000E+00  3.97570E+01  1.320E-01  2.000E+01  2.000E+04 -2.547E-01
   1    9   27     2     4    6.4673E+04 -7.2438E+03   7.1917E+04  0.000E+00  0.000E+00  0.000E+00  3.95147E+01  1.397E-01  2.000E+01  2.000E+04 -3.622E-01
   1   10   26     2     5    7.1917E+04 -5.9942E+03   7.7911E+04  0.000E+00  0.000E+00  0.000E+00  3.92727E+01  1.477E-01  2.000E+01  2.000E+04 -2.997E-01
   1   11   25     2     6    7.7911E+04 -4.3327E+03   8.2244E+04  0.000E+00  0.000E+00  0.000E+00  3.90287E+01  1.537E-01  2.000E+01  2.000E+04 -2.166E-01
   1   12   24     2     7    8.2244E+04 -2.3330E+03   8.4577E+04  0.000E+00  0.000E+00  0.000E+00  3.87825E+01  1.575E-01  2.000E+01  2.000E+04 -1.166E-01
   1   13   23     2     8    8.4577E+04 -5.5576E+02   8.5132E+04  0.000E+00  0.000E+00  0.000E+00  3.85341E+01  1.591E-01  2.000E+01  2.000E+04 -2.779E-02
   1   14   22     2     9    8.5132E+04  1.2656E+03   8.3867E+04  0.000E+00  0.000E+00  0.000E+00  3.82837E+01  1.587E-01  2.000E+01  2.000E+04  6.328E-02
   1   14   22     3     1    2.9456E+05 -8.6674E+03   3.0323E+05  0.000E+00  0.000E+00  0.000E+00  3.77871E+01  2.315E-01  2.000E+01  2.000E+04 -4.334E-01
   1   15   23     3     2    3.0323E+05 -1.9838E+03   3.0522E+05  0.000E+00  0.000E+00  0.000E+00  3.69007E+01  2.340E-01  2.000E+01  2.000E+04 -9.919E-02
   1   15   24     3     3    3.0522E+05 -1.5283E+03   3.0674E+05  0.000E+00  0.000E+00  0.000E+00  3.60126E+01  2.348E-01  2.000E+01  2.000E+04 -7.642E-02
   1   15   25     3     4    3.0674E+05 -1.5783E+03   3.0832E+05  0.000E+00  0.000E+00  0.000E+00  3.51244E+01  2.355E-01  2.000E+01  2.000E+04 -7.891E-02
   1   15   26     3     5    3.0832E+05 -1.8819E+03   3.1020E+05  0.000E+00  0.000E+00  0.000E+00  3.42363E+01  2.363E-01  2.000E+01  2.000E+04 -9.409E-02
   1   16   27     3     6    3.1020E+05 -2.1643E+03   3.1237E+05  0.000E+00  0.000E+00  0.000E+00  3.33484E+01  2.372E-01  2.000E+01  2.000E+04 -1.082E-01
   1   17   28     3     7    3.1237E+05 -6.5786E+03   3.1895E+05  0.000E+00  0.000E+00  0.000E+00  3.24615E+01  2.392E-01  2.000E+01  2.000E+04 -3.289E-01
   1   18   29     3     8    3.1895E+05 -7.9951E+03   3.2694E+05  0.000E+00  0.000E+00  0.000E+00  3.15759E+01  2.425E-01  2.000E+01  2.000E+04 -3.998E-01
   1   18   30     3     9    3.2694E+05 -7.1748E+03   3.3412E+05  0.000E+00  0.000E+00  0.000E+00  3.06904E+01  2.459E-01  2.000E+01  2.000E+04 -3.587E-01



1
              HEAD IN LAYER   1 AT END OF TIME STEP   1 IN STRESS PERIOD    1
  ---------------------------------------------------------------------------

          1      2      3      4      5      6      7      8      9     10
         11     12     13     14     15     16     17     18     19     20
         21     22     23     24     25     26     27     28     29     30
 .........................................................................
   1  ****** ****** ****** ****** ****** ****** ****** ****** ****** ******
      ****** ****** ****** ****** ****** ****** ****** ****** ****** ******
      ****** ****** ****** ****** ****** ****** ****** ****** ****** ******
   2  ****** ****** ****** ****** ****** ****** ****** ****** ****** ******
      ****** ****** ****** ****** ****** ****** ****** ****** ****** ******
      ****** ****** ****** ****** ****** ****** ****** ****** ****** ******
   3  ****** ****** ****** ****** ****** ****** ****** ****** ****** ******
      ****** ****** ****** ****** ****** ****** ****** ****** ****** ******
      ****** ****** ****** ****** ****** ****** ****** ****** ****** ******
   4  ****** ****** ****** ****** ****** ****** ****** ****** ****** ******
      ****** ****** ****** ****** ****** ****** ****** ****** ****** ******
      ****** ****** ****** ****** ****** ****** ****** ****** ****** ******
   5  ****** ****** ****** ****** ****** ****** ****** ****** ****** ******
      ****** ****** ****** ****** ****** ****** ****** ****** ****** ******
      ****** ****** ****** ****** ****** ****** ****** ****** ****** ******
   6  ****** ****** ****** ****** ****** ****** ****** ****** ****** ******
      ****** ****** ****** ****** ****** ****** ****** ****** ****** ******
      ****** ****** ****** ****** ****** ****** ****** ****** ****** ******
   7  ****** ****** ****** ****** ****** ****** ****** ****** ****** ******
      ****** ****** ****** ****** ****** ****** ****** ****** ****** ******
      ****** ****** ****** ****** ****** ****** ****** ****** ****** ******
   8  ****** ****** ****** ****** ****** ****** ****** ****** ****** ******
      ****** ****** ****** ****** ****** ****** ****** ****** ****** ******
      ****** ****** ****** ****** ****** ****** ****** ****** ****** ******
   9  ****** ****** ****** ****** ****** ****** ****** ****** ****** ******
      ****** ****** ****** ****** ****** ****** ****** ****** ****** ******
      ****** ****** ****** ****** ****** ****** ****** ****** ****** ******
  10  ****** ****** ****** ****** ****** ****** ****** ****** ****** ******
      ****** ****** ****** ****** ****** ****** ****** ****** ****** ******
      ****** ****** ****** ****** ****** ****** ****** ****** ****** ******
  11  ****** ****** ****** ****** ****** ****** ****** ****** ****** ******
      ****** ****** ****** ****** ****** ****** ****** ****** ****** ******
      ****** ****** ****** ****** ****** ****** ****** ****** ****** ******
  12  ****** ****** ****** ****** ****** ****** ****** ****** ****** ******
      ****** ****** ****** ****** ****** ****** ****** ****** ****** ******
      ****** ****** ****** ****** ****** ****** ****** ****** ****** ******
  13  ****** ****** ****** ****** ****** ****** ****** ****** ****** ******
      ****** ****** ****** ****** ****** ****** ****** ****** ****** ******
      ****** ****** ****** ****** ****** ****** ****** ****** ****** ******
  14  ****** ****** ****** ****** ****** ****** ****** ****** ****** ******
      ****** ****** ****** ****** ****** ****** ****** ****** ****** ******
      ****** ****** ****** ****** ****** ****** ****** ****** ****** ******
  15  ****** ****** ****** ****** ****** ****** ****** ****** ****** ******
      ****** ****** ****** ****** ****** ****** ****** ****** ****** ******
      ****** ****** ****** ****** ****** ****** ****** ****** ****** ******
  16  ****** ****** ****** ****** ****** ****** ****** ****** ****** ******
      ****** ****** ****** ****** ****** ****** ****** ****** ****** ******
      ****** ****** ****** ****** ****** ****** ****** ****** ****** ******
  17  ****** ****** ****** ****** ****** ****** ****** ****** ****** ******
      ****** ****** ****** ****** ****** ****** ****** ****** ****** ******
      ****** ****** ****** ****** ****** ****** ****** ****** ****** ******
  18  ****** ****** ****** ****** ****** ****** ****** ****** ****** ******
      ****** ****** ****** ****** ****** ****** ****** ****** ****** ******
      ****** ****** ****** ****** ****** ****** ****** ****** ****** ******
  19  ****** ****** ****** ****** ****** ****** ****** ****** ****** ******
      ****** ****** ****** ****** ****** ****** ****** ****** ****** ******
      ****** ****** ****** ****** ****** ****** ****** ****** ****** ******
  20  ****** ****** ****** ****** ****** ****** ****** ****** ****** ******
      ****** ****** ****** ****** ****** ****** ****** ****** ****** ******
      ****** ****** ****** ****** ****** ****** ****** ****** ****** ******
  21  ****** ****** ****** ****** ****** ****** ****** ****** ****** ******
      ****** ****** ****** ****** ****** ****** ****** ****** ****** ******
      ****** ****** ****** ****** ****** ****** ****** ****** ****** ******
  22  ****** ****** ****** ****** ****** ****** ****** ****** ****** ******
      ****** ****** ****** ****** ****** ****** ****** ****** ****** ******
      ****** ****** ****** ****** ****** ****** ****** ****** ****** ******
  23  ****** ****** ****** ****** ****** ****** ****** ****** ****** ******
      ****** ****** ****** ****** ****** ****** ****** ****** ****** ******
      ****** ****** ****** ****** ****** ****** ****** ****** ****** ******
  24  ****** ****** ****** ****** ****** ****** ****** ****** ****** ******
      ****** ****** ****** ****** ****** ****** ****** ****** ****** ******
      ****** ****** ****** ****** ****** ****** ****** ****** ****** ******
  25  ****** ****** ****** ****** ****** ****** ****** ****** ****** ******
      ****** ****** ****** ****** ****** ****** ****** ****** ****** ******
      ****** ****** ****** ****** ****** ****** ****** ****** ****** ******

 HEAD WILL BE SAVED ON UNIT   51 AT END OF TIME STEP    1, STRESS PERIOD    1
1
  VOLUMETRIC BUDGET FOR ENTIRE MODEL AT END OF TIME STEP    1, STRESS PERIOD   1
  ------------------------------------------------------------------------------

     CUMULATIVE VOLUMES      L**3       RATES FOR THIS TIME STEP      L**3/T
     ------------------                 ------------------------

           IN:                                      IN:
           ---                                      ---
             STORAGE =    17991422.2532               STORAGE =      195558.9375
       CONSTANT HEAD =     1184120.6561         CONSTANT HEAD =       12870.8767
               WELLS =           0.0000                 WELLS =           0.0000
            RECHARGE =     1269600.0000              RECHARGE =       13800.0000
      STREAM LEAKAGE =      569030.3984        STREAM LEAKAGE =        6185.1130

            TOTAL IN =    21014173.3077              TOTAL IN =      228414.9273

          OUT:                                     OUT:
          ----                                     ----
             STORAGE =           0.0000               STORAGE =           0.0000
       CONSTANT HEAD =           0.0000         CONSTANT HEAD =           0.0000
               WELLS =     3506391.8974                 WELLS =       38112.9554
            RECHARGE =           0.0000              RECHARGE =           0.0000
      STREAM LEAKAGE =    17507781.6964        STREAM LEAKAGE =      190301.9750

           TOTAL OUT =    21014173.5938             TOTAL OUT =      228414.9304

            IN - OUT =          -0.2862              IN - OUT =      -3.1104E-03

 PERCENT DISCREPANCY =          -0.00     PERCENT DISCREPANCY =          -0.00






         TIME SUMMARY AT END OF TIME STEP    1 IN STRESS PERIOD    1
                    SECONDS     MINUTES      HOURS       DAYS        YEARS
                    -----------------------------------------------------------
   TIME STEP LENGTH 7.94880E+06 1.32480E+05  2208.0      92.000     0.25188    
 STRESS PERIOD TIME 7.94880E+06 1.32480E+05  2208.0      92.000     0.25188    
         TOTAL TIME 7.94880E+06 1.32480E+05  2208.0      92.000     0.25188    
1
1
                            STRESS PERIOD NO.    2, LENGTH =   91.00000    
                            -----------------------------------------------

                              NUMBER OF TIME STEPS =     1

                               MULTIPLIER FOR DELT =     1.500

                            INITIAL TIME STEP SIZE =   91.00000    

 WELL NO.  LAYER   ROW   COL   STRESS RATE         
 --------------------------------------------------
      1      1     11     23      -9982.    
      2      1     13     22      -7684.    
      3      1      6     18     -0.1279E+05
      4      1      7     23      -7655.    

      4 WELLS

                 RECHARGE =  2.000000E-03

 REUSING STREAM SEGMENT DATA FROM LAST STRESS PERIOD
 
 SOLVING FOR HEAD 


     7 CALLS TO PCG ROUTINE FOR TIME STEP   1 IN STRESS PERIOD    2
    27 TOTAL ITERATIONS

 OUTPUT CONTROL FOR STRESS PERIOD    2   TIME STEP    1
    SAVE BUDGET
    SAVE HEAD FOR ALL LAYERS
    PRINT HEAD FOR ALL LAYERS
 UBDSV2 SAVING "STREAMFLOW OUT  " ON UNIT  50 AT TIME STEP  1, STRESS PERIOD   2



 STREAM LISTING     PERIOD      2   STEP        1

 LAYER ROW COL. STREAM  RCH.  FLOW INTO     FLOW TO   FLOW OUT OF   OVRLND.     DIRECT     STREAM       STREAM     STREAM     STREAM   STREAMBED  STREAMBED
                SEG.NO.  NO.  STRM. RCH.    AQUIFER    STRM. RCH.    RUNOFF     PRECIP       ET          HEAD       DEPTH      WIDTH   CONDCTNC.   GRADIENT

   1   13    1     1     1    1.0000E+05 -3.9813E+03   1.0398E+05  0.000E+00  0.000E+00  0.000E+00  4.84077E+01  1.464E-01  2.000E+01  2.000E+04 -1.991E-01
   1   13    2     1     2    1.0398E+05 -5.2418E+03   1.0922E+05  0.000E+00  0.000E+00  0.000E+00  4.79344E+01  1.503E-01  2.000E+01  2.000E+04 -2.621E-01
   1   14    3     1     3    1.0922E+05 -1.1149E+03   1.1034E+05  0.000E+00  0.000E+00  0.000E+00  4.74598E+01  1.530E-01  2.000E+01  2.000E+04 -5.575E-02
   1   15    4     1     4    1.1034E+05 -1.1437E+03   1.1148E+05  0.000E+00  0.000E+00  0.000E+00  4.69835E+01  1.539E-01  2.000E+01  2.000E+04 -5.719E-02
   1   16    5     1     5    1.1148E+05 -4.2597E+03   1.1574E+05  0.000E+00  0.000E+00  0.000E+00  4.65084E+01  1.562E-01  2.000E+01  2.000E+04 -2.130E-01
   1   16    6     1     6    1.1574E+05 -2.5117E+03   1.1825E+05  0.000E+00  0.000E+00  0.000E+00  4.60339E+01  1.589E-01  2.000E+01  2.000E+04 -1.256E-01
   1   16    7     1     7    1.1825E+05 -2.4181E+03   1.2067E+05  0.000E+00  0.000E+00  0.000E+00  4.55587E+01  1.609E-01  2.000E+01  2.000E+04 -1.209E-01
   1   16    8     1     8    1.2067E+05 -2.3900E+03   1.2306E+05  0.000E+00  0.000E+00  0.000E+00  4.50833E+01  1.629E-01  2.000E+01  2.000E+04 -1.195E-01
   1   16    9     1     9    1.2306E+05 -2.3706E+03   1.2543E+05  0.000E+00  0.000E+00  0.000E+00  4.46080E+01  1.648E-01  2.000E+01  2.000E+04 -1.185E-01
   1   16   10     1    10    1.2543E+05 -2.3479E+03   1.2778E+05  0.000E+00  0.000E+00  0.000E+00  4.41326E+01  1.666E-01  2.000E+01  2.000E+04 -1.174E-01
   1   16   11     1    11    1.2778E+05 -2.3561E+03   1.3014E+05  0.000E+00  0.000E+00  0.000E+00  4.36571E+01  1.685E-01  2.000E+01  2.000E+04 -1.178E-01
   1   16   12     1    12    1.3014E+05 -4.1250E+03   1.3426E+05  0.000E+00  0.000E+00  0.000E+00  4.31824E+01  1.710E-01  2.000E+01  2.000E+04 -2.062E-01
   1   15   13     1    13    1.3426E+05 -4.0125E+03   1.3827E+05  0.000E+00  0.000E+00  0.000E+00  4.27083E+01  1.742E-01  2.000E+01  2.000E+04 -2.006E-01
   1   14   14     1    14    1.3827E+05 -4.2817E+03   1.4256E+05  0.000E+00  0.000E+00  0.000E+00  4.22341E+01  1.773E-01  2.000E+01  2.000E+04 -2.141E-01
   1   13   15     1    15    1.4256E+05 -4.4381E+03   1.4699E+05  0.000E+00  0.000E+00  0.000E+00  4.17602E+01  1.806E-01  2.000E+01  2.000E+04 -2.219E-01
   1   12   16     1    16    1.4699E+05 -4.7221E+03   1.5172E+05  0.000E+00  0.000E+00  0.000E+00  4.12863E+01  1.840E-01  2.000E+01  2.000E+04 -2.361E-01
   1   12   17     1    17    1.5172E+05 -2.9775E+03   1.5469E+05  0.000E+00  0.000E+00  0.000E+00  4.08118E+01  1.868E-01  2.000E+01  2.000E+04 -1.489E-01
   1   12   18     1    18    1.5469E+05 -2.6518E+03   1.5734E+05  0.000E+00  0.000E+00  0.000E+00  4.03366E+01  1.889E-01  2.000E+01  2.000E+04 -1.326E-01
   1   12   19     1    19    1.5734E+05 -2.4941E+03   1.5984E+05  0.000E+00  0.000E+00  0.000E+00  3.98612E+01  1.908E-01  2.000E+01  2.000E+04 -1.247E-01
   1   13   20     1    20    1.5984E+05 -1.4292E+03   1.6127E+05  0.000E+00  0.000E+00  0.000E+00  3.93854E+01  1.922E-01  2.000E+01  2.000E+04 -7.146E-02
   1   14   21     1    21    1.6127E+05 -2.3172E+03   1.6359E+05  0.000E+00  0.000E+00  0.000E+00  3.89094E+01  1.935E-01  2.000E+01  2.000E+04 -1.159E-01
   1   14   22     1    22    1.6359E+05  5.7651E+03   1.5782E+05  0.000E+00  0.000E+00  0.000E+00  3.84309E+01  1.923E-01  2.000E+01  2.000E+04  2.883E-01
   1    9   30     2     1    5.0000E+04 -1.8063E+03   5.1806E+04  0.000E+00  0.000E+00  0.000E+00  4.02421E+01  1.171E-01  2.000E+01  2.000E+04 -9.032E-02
   1    9   29     2     2    5.1806E+04 -2.0586E+03   5.3865E+04  0.000E+00  0.000E+00  0.000E+00  3.99948E+01  1.198E-01  2.000E+01  2.000E+04 -1.029E-01
   1    9   28     2     3    5.3865E+04 -2.2082E+03   5.6073E+04  0.000E+00  0.000E+00  0.000E+00  3.97476E+01  1.226E-01  2.000E+01  2.000E+04 -1.104E-01
   1    9   27     2     4    5.6073E+04 -3.3173E+03   5.9390E+04  0.000E+00  0.000E+00  0.000E+00  3.95013E+01  1.263E-01  2.000E+01  2.000E+04 -1.659E-01
   1   10   26     2     5    5.9390E+04 -1.9558E+03   6.1346E+04  0.000E+00  0.000E+00  0.000E+00  3.92547E+01  1.297E-01  2.000E+01  2.000E+04 -9.779E-02
   1   11   25     2     6    6.1346E+04 -4.1618E+02   6.1762E+04  0.000E+00  0.000E+00  0.000E+00  3.90063E+01  1.313E-01  2.000E+01  2.000E+04 -2.081E-02
   1   12   24     2     7    6.1762E+04  1.2936E+03   6.0469E+04  0.000E+00  0.000E+00  0.000E+00  3.87557E+01  1.307E-01  2.000E+01  2.000E+04  6.468E-02
   1   13   23     2     8    6.0469E+04  5.8144E+02   5.9887E+04  0.000E+00  0.000E+00  0.000E+00  3.85045E+01  1.295E-01  2.000E+01  2.000E+04  2.907E-02
   1   14   22     2     9    5.9887E+04  2.2005E+03   5.7687E+04  0.000E+00  0.000E+00  0.000E+00  3.82527E+01  1.277E-01  2.000E+01  2.000E+04  1.100E-01
   1   14   22     3     1    2.1551E+05 -7.8950E+03   2.2340E+05  0.000E+00  0.000E+00  0.000E+00  3.77479E+01  1.924E-01  2.000E+01  2.000E+04 -3.947E-01
   1   15   23     3     2    2.2340E+05 -1.0491E+03   2.2445E+05  0.000E+00  0.000E+00  0.000E+00  3.68614E+01  1.947E-01  2.000E+01  2.000E+04 -5.245E-02
   1   15   24     3     3    2.2445E+05 -6.6297E+02   2.2511E+05  0.000E+00  0.000E+00  0.000E+00  3.59729E+01  1.951E-01  2.000E+01  2.000E+04 -3.315E-02
   1   15   25     3     4    2.2511E+05 -6.6944E+02   2.2578E+05  0.000E+00  0.000E+00  0.000E+00  3.50844E+01  1.955E-01  2.000E+01  2.000E+04 -3.347E-02
   1   15   26     3     5    2.2578E+05 -7.7112E+02   2.2655E+05  0.000E+00  0.000E+00  0.000E+00  3.41959E+01  1.959E-01  2.000E+01  2.000E+04 -3.856E-02
   1   16   27     3     6    2.2655E+05 -8.9800E+02   2.2745E+05  0.000E+00  0.000E+00  0.000E+00  3.33074E+01  1.963E-01  2.000E+01  2.000E+04 -4.490E-02
   1   17   28     3     7    2.2745E+05 -3.2558E+03   2.3071E+05  0.000E+00  0.000E+00  0.000E+00  3.24196E+01  1.974E-01  2.000E+01  2.000E+04 -1.628E-01
   1   18   29     3     8    2.3071E+05 -5.0577E+03   2.3577E+05  0.000E+00  0.000E+00  0.000E+00  3.15328E+01  1.995E-01  2.000E+01  2.000E+04 -2.529E-01
   1   18   30     3     9    2.3577E+05 -4.6850E+03   2.4045E+05  0.000E+00  0.000E+00  0.000E+00  3.06465E+01  2.020E-01  2.000E+01  2.000E+04 -2.342E-01



1
              HEAD IN LAYER   1 AT END OF TIME STEP   1 IN STRESS PERIOD    2
  ---------------------------------------------------------------------------

          1      2      3      4      5      6      7      8      9     10
         11     12     13     14     15     16     17     18     19     20
         21     22     23     24     25     26     27     28     29     30
 .........................................................................
   1  ****** ****** ****** ****** ****** ****** ****** ****** ****** ******
      ****** ****** ****** ****** ****** ****** ****** ****** ****** ******
      ****** ****** ****** ****** ****** ****** ****** ****** ****** ******
   2  ****** ****** ****** ****** ****** ****** ****** ****** ****** ******
      ****** ****** ****** ****** ****** ****** ****** ****** ****** ******
      ****** ****** ****** ****** ****** ****** ****** ****** ****** ******
   3  ****** ****** ****** ****** ****** ****** ****** ****** ****** ******
      ****** ****** ****** ****** ****** ****** ****** ****** ****** ******
      ****** ****** ****** ****** ****** ****** ****** ****** ****** ******
   4  ****** ****** ****** ****** ****** ****** ****** ****** ****** ******
      ****** ****** ****** ****** ****** ****** ****** ****** ****** ******
      ****** ****** ****** ****** ****** ****** ****** ****** ****** ******
   5  ****** ****** ****** ****** ****** ****** ****** ****** ****** ******
      ****** ****** ****** ****** ****** ****** ****** ****** ****** ******
      ****** ****** ****** ****** ****** ****** ****** ****** ****** ******
   6  ****** ****** ****** ****** ****** ****** ****** ****** ****** ******
      ****** ****** ****** ****** ****** ****** ****** ****** ****** ******
      ****** ****** ****** ****** ****** ****** ****** ****** ****** ******
   7  ****** ****** ****** ****** ****** ****** ****** ****** ****** ******
      ****** ****** ****** ****** ****** ****** ****** ****** ****** ******
      ****** ****** ****** ****** ****** ****** ****** ****** ****** ******
   8  ****** ****** ****** ****** ****** ****** ****** ****** ****** ******
      ****** ****** ****** ****** ****** ****** ****** ****** ****** ******
      ****** ****** ****** ****** ****** ****** ****** ****** ****** ******
   9  ****** ****** ****** ****** ****** ****** ****** ****** ****** ******
      ****** ****** ****** ****** ****** ****** ****** ****** ****** ******
      ****** ****** ****** ****** ****** ****** ****** ****** ****** ******
  10  ****** ****** ****** ****** ****** ****** ****** ****** ****** ******
      ****** ****** ****** ****** ****** ****** ****** ****** ****** ******
      ****** ****** ****** ****** ****** ****** ****** ****** ****** ******
  11  ****** ****** ****** ****** ****** ****** ****** ****** ****** ******
      ****** ****** ****** ****** ****** ****** ****** ****** ****** ******
      ****** ****** ****** ****** ****** ****** ****** ****** ****** ******
  12  ****** ****** ****** ****** ****** ****** ****** ****** ****** ******
      ****** ****** ****** ****** ****** ****** ****** ****** ****** ******
      ****** ****** ****** ****** ****** ****** ****** ****** ****** ******
  13  ****** ****** ****** ****** ****** ****** ****** ****** ****** ******
      ****** ****** ****** ****** ****** ****** ****** ****** ****** ******
      ****** ****** ****** ****** ****** ****** ****** ****** ****** ******
  14  ****** ****** ****** ****** ****** ****** ****** ****** ****** ******
      ****** ****** ****** ****** ****** ****** ****** ****** ****** ******
      ****** ****** ****** ****** ****** ****** ****** ****** ****** ******
  15  ****** ****** ****** ****** ****** ****** ****** ****** ****** ******
      ****** ****** ****** ****** ****** ****** ****** ****** ****** ******
      ****** ****** ****** ****** ****** ****** ****** ****** ****** ******
  16  ****** ****** ****** ****** ****** ****** ****** ****** ****** ******
      ****** ****** ****** ****** ****** ****** ****** ****** ****** ******
      ****** ****** ****** ****** ****** ****** ****** ****** ****** ******
  17  ****** ****** ****** ****** ****** ****** ****** ****** ****** ******
      ****** ****** ****** ****** ****** ****** ****** ****** ****** ******
      ****** ****** ****** ****** ****** ****** ****** ****** ****** ******
  18  ****** ****** ****** ****** ****** ****** ****** ****** ****** ******
      ****** ****** ****** ****** ****** ****** ****** ****** ****** ******
      ****** ****** ****** ****** ****** ****** ****** ****** ****** ******
  19  ****** ****** ****** ****** ****** ****** ****** ****** ****** ******
      ****** ****** ****** ****** ****** ****** ****** ****** ****** ******
      ****** ****** ****** ****** ****** ****** ****** ****** ****** ******
  20  ****** ****** ****** ****** ****** ****** ****** ****** ****** ******
      ****** ****** ****** ****** ****** ****** ****** ****** ****** ******
      ****** ****** ****** ****** ****** ****** ****** ****** ****** ******
  21  ****** ****** ****** ****** ****** ****** ****** ****** ****** ******
      ****** ****** ****** ****** ****** ****** ****** ****** ****** ******
      ****** ****** ****** ****** ****** ****** ****** ****** ****** ******
  22  ****** ****** ****** ****** ****** ****** ****** ****** ****** ******
      ****** ****** ****** ****** ****** ****** ****** ****** ****** ******
      ****** ****** ****** ****** ****** ****** ****** ****** ****** ******
  23  ****** ****** ****** ****** ****** ****** ****** ****** ****** ******
      ****** ****** ****** ****** ****** ****** ****** ****** ****** ******
      ****** ****** ****** ****** ****** ****** ****** ****** ****** ******
  24  ****** ****** ****** ****** ****** ****** ****** ****** ****** ******
      ****** ****** ****** ****** ****** ****** ****** ****** ****** ******
      ****** ****** ****** ****** ****** ****** ****** ****** ****** ******
  25  ****** ****** ****** ****** ****** ****** ****** ****** ****** ******
      ****** ****** ****** ****** ****** ****** ****** ****** ****** ******
      ****** ****** ****** ****** ****** ****** ****** ****** ****** ******

 HEAD WILL BE SAVED ON UNIT   51 AT END OF TIME STEP    1, STRESS PERIOD    2
1
  VOLUMETRIC BUDGET FOR ENTIRE MODEL AT END OF TIME STEP    1, STRESS PERIOD   2
  ------------------------------------------------------------------------------

     CUMULATIVE VOLUMES      L**3       RATES FOR THIS TIME STEP      L**3/T
     ------------------                 ------------------------

           IN:                                      IN:
           ---                                      ---
             STORAGE =    23057276.4720               STORAGE =       55668.7277
       CONSTANT HEAD =     2794367.5622         CONSTANT HEAD =       17695.0209
               WELLS =           0.0000                 WELLS =           0.0000
            RECHARGE =     6292800.0000              RECHARGE =       55200.0000
      STREAM LEAKAGE =     1464534.4020        STREAM LEAKAGE =        9840.7033

            TOTAL IN =    33608978.4362              TOTAL IN =      138404.4520

          OUT:                                     OUT:
          ----                                     ----
             STORAGE =           0.0000               STORAGE =           0.0000
       CONSTANT HEAD =           0.0000         CONSTANT HEAD =           0.0000
               WELLS =     6974670.8394                 WELLS =       38112.9554
            RECHARGE =           0.0000              RECHARGE =           0.0000
      STREAM LEAKAGE =    26634308.7778        STREAM LEAKAGE =      100291.5064

           TOTAL OUT =    33608979.6172             TOTAL OUT =      138404.4618

            IN - OUT =          -1.1809              IN - OUT =      -9.8327E-03

 PERCENT DISCREPANCY =          -0.00     PERCENT DISCREPANCY =          -0.00






         TIME SUMMARY AT END OF TIME STEP    1 IN STRESS PERIOD    2
                    SECONDS     MINUTES      HOURS       DAYS        YEARS
                    -----------------------------------------------------------
   TIME STEP LENGTH 7.86240E+06 1.31040E+05  2184.0      91.000     0.24914    
 STRESS PERIOD TIME 7.86240E+06 1.31040E+05  2184.0      91.000     0.24914    
         TOTAL TIME 1.58112E+07 2.63520E+05  4392.0      183.00     0.50103    
1
1
                            STRESS PERIOD NO.    3, LENGTH =   91.00000    
                            -----------------------------------------------

                              NUMBER OF TIME STEPS =     1

                               MULTIPLIER FOR DELT =     1.500

                            INITIAL TIME STEP SIZE =   91.00000    

 WELL NO.  LAYER   ROW   COL   STRESS RATE         
 --------------------------------------------------
      1      1     11     23      -9982.    
      2      1     13     22      -7684.    
      3      1      6     18     -0.1279E+05
      4      1      7     23      -7655.    

      4 WELLS

                 RECHARGE =   0.00000    

 REUSING STREAM SEGMENT DATA FROM LAST STRESS PERIOD
 
 SOLVING FOR HEAD 


     7 CALLS TO PCG ROUTINE FOR TIME STEP   1 IN STRESS PERIOD    3
    27 TOTAL ITERATIONS

 OUTPUT CONTROL FOR STRESS PERIOD    3   TIME STEP    1
    SAVE BUDGET
    SAVE HEAD FOR ALL LAYERS
    PRINT HEAD FOR ALL LAYERS
 UBDSV2 SAVING "STREAMFLOW OUT  " ON UNIT  50 AT TIME STEP  1, STRESS PERIOD   3



 STREAM LISTING     PERIOD      3   STEP        1

 LAYER ROW COL. STREAM  RCH.  FLOW INTO     FLOW TO   FLOW OUT OF   OVRLND.     DIRECT     STREAM       STREAM     STREAM     STREAM   STREAMBED  STREAMBED
                SEG.NO.  NO.  STRM. RCH.    AQUIFER    STRM. RCH.    RUNOFF     PRECIP       ET          HEAD       DEPTH      WIDTH   CONDCTNC.   GRADIENT

   1   13    1     1     1    1.0000E+05 -2.7135E+03   1.0271E+05  0.000E+00  0.000E+00  0.000E+00  4.84072E+01  1.458E-01  2.000E+01  2.000E+04 -1.357E-01
   1   13    2     1     2    1.0271E+05 -3.8189E+03   1.0653E+05  0.000E+00  0.000E+00  0.000E+00  4.79327E+01  1.486E-01  2.000E+01  2.000E+04 -1.909E-01
   1   14    3     1     3    1.0653E+05 -6.5304E+02   1.0719E+05  0.000E+00  0.000E+00  0.000E+00  4.74573E+01  1.505E-01  2.000E+01  2.000E+04 -3.265E-02
   1   15    4     1     4    1.0719E+05 -6.3841E+02   1.0782E+05  0.000E+00  0.000E+00  0.000E+00  4.69806E+01  1.511E-01  2.000E+01  2.000E+04 -3.192E-02
   1   16    5     1     5    1.0782E+05 -2.4707E+03   1.1029E+05  0.000E+00  0.000E+00  0.000E+00  4.65047E+01  1.524E-01  2.000E+01  2.000E+04 -1.235E-01
   1   16    6     1     6    1.1029E+05 -1.5119E+03   1.1181E+05  0.000E+00  0.000E+00  0.000E+00  4.60290E+01  1.540E-01  2.000E+01  2.000E+04 -7.559E-02
   1   16    7     1     7    1.1181E+05 -1.4764E+03   1.1328E+05  0.000E+00  0.000E+00  0.000E+00  4.55530E+01  1.553E-01  2.000E+01  2.000E+04 -7.382E-02
   1   16    8     1     8    1.1328E+05 -1.4665E+03   1.1475E+05  0.000E+00  0.000E+00  0.000E+00  4.50770E+01  1.565E-01  2.000E+01  2.000E+04 -7.333E-02
   1   16    9     1     9    1.1475E+05 -1.4520E+03   1.1620E+05  0.000E+00  0.000E+00  0.000E+00  4.46009E+01  1.577E-01  2.000E+01  2.000E+04 -7.260E-02
   1   16   10     1    10    1.1620E+05 -1.4304E+03   1.1763E+05  0.000E+00  0.000E+00  0.000E+00  4.41248E+01  1.589E-01  2.000E+01  2.000E+04 -7.152E-02
   1   16   11     1    11    1.1763E+05 -1.4341E+03   1.1907E+05  0.000E+00  0.000E+00  0.000E+00  4.36487E+01  1.600E-01  2.000E+01  2.000E+04 -7.171E-02
   1   16   12     1    12    1.1907E+05 -2.5186E+03   1.2158E+05  0.000E+00  0.000E+00  0.000E+00  4.31730E+01  1.616E-01  2.000E+01  2.000E+04 -1.259E-01
   1   15   13     1    13    1.2158E+05 -2.3379E+03   1.2392E+05  0.000E+00  0.000E+00  0.000E+00  4.26977E+01  1.636E-01  2.000E+01  2.000E+04 -1.169E-01
   1   14   14     1    14    1.2392E+05 -2.5307E+03   1.2645E+05  0.000E+00  0.000E+00  0.000E+00  4.22223E+01  1.655E-01  2.000E+01  2.000E+04 -1.265E-01
   1   13   15     1    15    1.2645E+05 -2.6430E+03   1.2910E+05  0.000E+00  0.000E+00  0.000E+00  4.17471E+01  1.676E-01  2.000E+01  2.000E+04 -1.322E-01
   1   12   16     1    16    1.2910E+05 -2.7742E+03   1.3187E+05  0.000E+00  0.000E+00  0.000E+00  4.12720E+01  1.697E-01  2.000E+01  2.000E+04 -1.387E-01
   1   12   17     1    17    1.3187E+05 -1.5790E+03   1.3345E+05  0.000E+00  0.000E+00  0.000E+00  4.07964E+01  1.714E-01  2.000E+01  2.000E+04 -7.895E-02
   1   12   18     1    18    1.3345E+05 -1.2681E+03   1.3472E+05  0.000E+00  0.000E+00  0.000E+00  4.03202E+01  1.725E-01  2.000E+01  2.000E+04 -6.340E-02
   1   12   19     1    19    1.3472E+05 -7.1474E+02   1.3543E+05  0.000E+00  0.000E+00  0.000E+00  3.98437E+01  1.732E-01  2.000E+01  2.000E+04 -3.574E-02
   1   13   20     1    20    1.3543E+05  1.0949E+02   1.3532E+05  0.000E+00  0.000E+00  0.000E+00  3.93667E+01  1.735E-01  2.000E+01  2.000E+04  5.475E-03
   1   14   21     1    21    1.3532E+05 -8.3514E+02   1.3616E+05  0.000E+00  0.000E+00  0.000E+00  3.88897E+01  1.738E-01  2.000E+01  2.000E+04 -4.176E-02
   1   14   22     1    22    1.3616E+05  6.1438E+03   1.3001E+05  0.000E+00  0.000E+00  0.000E+00  3.84103E+01  1.717E-01  2.000E+01  2.000E+04  3.072E-01
   1    9   30     2     1    5.0000E+04 -5.2988E+02   5.0530E+04  0.000E+00  0.000E+00  0.000E+00  4.02412E+01  1.162E-01  2.000E+01  2.000E+04 -2.649E-02
   1    9   29     2     2    5.0530E+04 -7.7751E+02   5.1307E+04  0.000E+00  0.000E+00  0.000E+00  3.99921E+01  1.171E-01  2.000E+01  2.000E+04 -3.888E-02
   1    9   28     2     3    5.1307E+04 -8.9740E+02   5.2205E+04  0.000E+00  0.000E+00  0.000E+00  3.97433E+01  1.183E-01  2.000E+01  2.000E+04 -4.487E-02
   1    9   27     2     4    5.2205E+04 -1.3660E+03   5.3571E+04  0.000E+00  0.000E+00  0.000E+00  3.94948E+01  1.198E-01  2.000E+01  2.000E+04 -6.830E-02
   1   10   26     2     5    5.3571E+04 -1.5790E+02   5.3729E+04  0.000E+00  0.000E+00  0.000E+00  3.92459E+01  1.209E-01  2.000E+01  2.000E+04 -7.895E-03
   1   11   25     2     6    5.3729E+04  1.2570E+03   5.2472E+04  0.000E+00  0.000E+00  0.000E+00  3.89951E+01  1.201E-01  2.000E+01  2.000E+04  6.285E-02
   1   12   24     2     7    5.2472E+04  2.8020E+03   4.9670E+04  0.000E+00  0.000E+00  0.000E+00  3.87423E+01  1.173E-01  2.000E+01  2.000E+04  1.401E-01
   1   13   23     2     8    4.9670E+04  9.4079E+02   4.8729E+04  0.000E+00  0.000E+00  0.000E+00  3.84897E+01  1.147E-01  2.000E+01  2.000E+04  4.704E-02
   1   14   22     2     9    4.8729E+04  2.6808E+03   4.6048E+04  0.000E+00  0.000E+00  0.000E+00  3.82372E+01  1.122E-01  2.000E+01  2.000E+04  1.340E-01
   1   14   22     3     1    1.7606E+05 -7.5382E+03   1.8360E+05  0.000E+00  0.000E+00  0.000E+00  3.77262E+01  1.707E-01  2.000E+01  2.000E+04 -3.769E-01
   1   15   23     3     2    1.8360E+05 -6.6330E+02   1.8426E+05  0.000E+00  0.000E+00  0.000E+00  3.68397E+01  1.730E-01  2.000E+01  2.000E+04 -3.317E-02
   1   15   24     3     3    1.8426E+05 -3.4280E+02   1.8461E+05  0.000E+00  0.000E+00  0.000E+00  3.59511E+01  1.733E-01  2.000E+01  2.000E+04 -1.714E-02
   1   15   25     3     4    1.8461E+05 -3.3207E+02   1.8494E+05  0.000E+00  0.000E+00  0.000E+00  3.50624E+01  1.735E-01  2.000E+01  2.000E+04 -1.660E-02
   1   15   26     3     5    1.8494E+05 -3.6815E+02   1.8531E+05  0.000E+00  0.000E+00  0.000E+00  3.41737E+01  1.737E-01  2.000E+01  2.000E+04 -1.841E-02
   1   16   27     3     6    1.8531E+05 -4.3426E+02   1.8574E+05  0.000E+00  0.000E+00  0.000E+00  3.32850E+01  1.739E-01  2.000E+01  2.000E+04 -2.171E-02
   1   17   28     3     7    1.8574E+05 -1.8501E+03   1.8759E+05  0.000E+00  0.000E+00  0.000E+00  3.23968E+01  1.746E-01  2.000E+01  2.000E+04 -9.250E-02
   1   18   29     3     8    1.8759E+05 -3.5549E+03   1.9115E+05  0.000E+00  0.000E+00  0.000E+00  3.15094E+01  1.761E-01  2.000E+01  2.000E+04 -1.777E-01
   1   18   30     3     9    1.9115E+05 -3.5569E+03   1.9470E+05  0.000E+00  0.000E+00  0.000E+00  3.06225E+01  1.780E-01  2.000E+01  2.000E+04 -1.778E-01



1
              HEAD IN LAYER   1 AT END OF TIME STEP   1 IN STRESS PERIOD    3
  ---------------------------------------------------------------------------

          1      2      3      4      5      6      7      8      9     10
         11     12     13     14     15     16     17     18     19     20
         21     22     23     24     25     26     27     28     29     30
 .........................................................................
   1  ****** ****** ****** ****** ****** ****** ****** ****** ****** ******
      ****** ****** ****** ****** ****** ****** ****** ****** ****** ******
      ****** ****** ****** ****** ****** ****** ****** ****** ****** ******
   2  ****** ****** ****** ****** ****** ****** ****** ****** ****** ******
      ****** ****** ****** ****** ****** ****** ****** ****** ****** ******
      ****** ****** ****** ****** ****** ****** ****** ****** ****** ******
   3  ****** ****** ****** ****** ****** ****** ****** ****** ****** ******
      ****** ****** ****** ****** ****** ****** ****** ****** ****** ******
      ****** ****** ****** ****** ****** ****** ****** ****** ****** ******
   4  ****** ****** ****** ****** ****** ****** ****** ****** ****** ******
      ****** ****** ****** ****** ****** ****** ****** ****** ****** ******
      ****** ****** ****** ****** ****** ****** ****** ****** ****** ******
   5  ****** ****** ****** ****** ****** ****** ****** ****** ****** ******
      ****** ****** ****** ****** ****** ****** ****** ****** ****** ******
      ****** ****** ****** ****** ****** ****** ****** ****** ****** ******
   6  ****** ****** ****** ****** ****** ****** ****** ****** ****** ******
      ****** ****** ****** ****** ****** ****** ****** ****** ****** ******
      ****** ****** ****** ****** ****** ****** ****** ****** ****** ******
   7  ****** ****** ****** ****** ****** ****** ****** ****** ****** ******
      ****** ****** ****** ****** ****** ****** ****** ****** ****** ******
      ****** ****** ****** ****** ****** ****** ****** ****** ****** ******
   8  ****** ****** ****** ****** ****** ****** ****** ****** ****** ******
      ****** ****** ****** ****** ****** ****** ****** ****** ****** ******
      ****** ****** ****** ****** ****** ****** ****** ****** ****** ******
   9  ****** ****** ****** ****** ****** ****** ****** ****** ****** ******
      ****** ****** ****** ****** ****** ****** ****** ****** ****** ******
      ****** ****** ****** ****** ****** ****** ****** ****** ****** ******
  10  ****** ****** ****** ****** ****** ****** ****** ****** ****** ******
      ****** ****** ****** ****** ****** ****** ****** ****** ****** ******
      ****** ****** ****** ****** ****** ****** ****** ****** ****** ******
  11  ****** ****** ****** ****** ****** ****** ****** ****** ****** ******
      ****** ****** ****** ****** ****** ****** ****** ****** ****** ******
      ****** ****** ****** ****** ****** ****** ****** ****** ****** ******
  12  ****** ****** ****** ****** ****** ****** ****** ****** ****** ******
      ****** ****** ****** ****** ****** ****** ****** ****** ****** ******
      ****** ****** ****** ****** ****** ****** ****** ****** ****** ******
  13  ****** ****** ****** ****** ****** ****** ****** ****** ****** ******
      ****** ****** ****** ****** ****** ****** ****** ****** ****** ******
      ****** ****** ****** ****** ****** ****** ****** ****** ****** ******
  14  ****** ****** ****** ****** ****** ****** ****** ****** ****** ******
      ****** ****** ****** ****** ****** ****** ****** ****** ****** ******
      ****** ****** ****** ****** ****** ****** ****** ****** ****** ******
  15  ****** ****** ****** ****** ****** ****** ****** ****** ****** ******
      ****** ****** ****** ****** ****** ****** ****** ****** ****** ******
      ****** ****** ****** ****** ****** ****** ****** ****** ****** ******
  16  ****** ****** ****** ****** ****** ****** ****** ****** ****** ******
      ****** ****** ****** ****** ****** ****** ****** ****** ****** ******
      ****** ****** ****** ****** ****** ****** ****** ****** ****** ******
  17  ****** ****** ****** ****** ****** ****** ****** ****** ****** ******
      ****** ****** ****** ****** ****** ****** ****** ****** ****** ******
      ****** ****** ****** ****** ****** ****** ****** ****** ****** ******
  18  ****** ****** ****** ****** ****** ****** ****** ****** ****** ******
      ****** ****** ****** ****** ****** ****** ****** ****** ****** ******
      ****** ****** ****** ****** ****** ****** ****** ****** ****** ******
  19  ****** ****** ****** ****** ****** ****** ****** ****** ****** ******
      ****** ****** ****** ****** ****** ****** ****** ****** ****** ******
      ****** ****** ****** ****** ****** ****** ****** ****** ****** ******
  20  ****** ****** ****** ****** ****** ****** ****** ****** ****** ******
      ****** ****** ****** ****** ****** ****** ****** ****** ****** ******
      ****** ****** ****** ****** ****** ****** ****** ****** ****** ******
  21  ****** ****** ****** ****** ****** ****** ****** ****** ****** ******
      ****** ****** ****** ****** ****** ****** ****** ****** ****** ******
      ****** ****** ****** ****** ****** ****** ****** ****** ****** ******
  22  ****** ****** ****** ****** ****** ****** ****** ****** ****** ******
      ****** ****** ****** ****** ****** ****** ****** ****** ****** ******
      ****** ****** ****** ****** ****** ****** ****** ****** ****** ******
  23  ****** ****** ****** ****** ****** ****** ****** ****** ****** ******
      ****** ****** ****** ****** ****** ****** ****** ****** ****** ******
      ****** ****** ****** ****** ****** ****** ****** ****** ****** ******
  24  ****** ****** ****** ****** ****** ****** ****** ****** ****** ******
      ****** ****** ****** ****** ****** ****** ****** ****** ****** ******
      ****** ****** ****** ****** ****** ****** ****** ****** ****** ******
  25  ****** ****** ****** ****** ****** ****** ****** ****** ****** ******
      ****** ****** ****** ****** ****** ****** ****** ****** ****** ******
      ****** ****** ****** ****** ****** ****** ****** ****** ****** ******

 HEAD WILL BE SAVED ON UNIT   51 AT END OF TIME STEP    1, STRESS PERIOD    3
1
  VOLUMETRIC BUDGET FOR ENTIRE MODEL AT END OF TIME STEP    1, STRESS PERIOD   3
  ------------------------------------------------------------------------------

     CUMULATIVE VOLUMES      L**3       RATES FOR THIS TIME STEP      L**3/T
     ------------------                 ------------------------

           IN:                                      IN:
           ---                                      ---
             STORAGE =    28185043.9988               STORAGE =       56349.0937
       CONSTANT HEAD =     5202820.6460         CONSTANT HEAD =       26466.5174
               WELLS =           0.0000                 WELLS =           0.0000
            RECHARGE =     6292800.0000              RECHARGE =           0.0000
      STREAM LEAKAGE =     2732523.1601        STREAM LEAKAGE =       13933.9424

            TOTAL IN =    42413187.8049              TOTAL IN =       96749.5535

          OUT:                                     OUT:
          ----                                     ----
             STORAGE =           0.0000               STORAGE =           0.0000
       CONSTANT HEAD =           0.0000         CONSTANT HEAD =           0.0000
               WELLS =    10442949.7814                 WELLS =       38112.9554
            RECHARGE =           0.0000              RECHARGE =           0.0000
      STREAM LEAKAGE =    31970239.8929        STREAM LEAKAGE =       58636.6057

           TOTAL OUT =    42413189.6742             TOTAL OUT =       96749.5611

            IN - OUT =          -1.8693              IN - OUT =      -7.5650E-03

 PERCENT DISCREPANCY =          -0.00     PERCENT DISCREPANCY =          -0.00






         TIME SUMMARY AT END OF TIME STEP    1 IN STRESS PERIOD    3
                    SECONDS     MINUTES      HOURS       DAYS        YEARS
                    -----------------------------------------------------------
   TIME STEP LENGTH 7.86240E+06 1.31040E+05  2184.0      91.000     0.24914    
 STRESS PERIOD TIME 7.86240E+06 1.31040E+05  2184.0      91.000     0.24914    
         TOTAL TIME 2.36736E+07 3.94560E+05  6576.0      274.00     0.75017    
1
1
                            STRESS PERIOD NO.    4, LENGTH =   91.00000    
                            -----------------------------------------------

                              NUMBER OF TIME STEPS =     1

                               MULTIPLIER FOR DELT =     1.500

                            INITIAL TIME STEP SIZE =   91.00000    

 WELL NO.  LAYER   ROW   COL   STRESS RATE         
 --------------------------------------------------
      1      1     11     23      -9982.    
      2      1     13     22      -7684.    
      3      1      6     18     -0.1279E+05
      4      1      7     23      -7655.    

      4 WELLS

                 RECHARGE =  1.000000E-03

 REUSING STREAM SEGMENT DATA FROM LAST STRESS PERIOD
 
 SOLVING FOR HEAD 


     6 CALLS TO PCG ROUTINE FOR TIME STEP   1 IN STRESS PERIOD    4
    23 TOTAL ITERATIONS

 OUTPUT CONTROL FOR STRESS PERIOD    4   TIME STEP    1
    SAVE BUDGET
    SAVE HEAD FOR ALL LAYERS
    PRINT HEAD FOR ALL LAYERS
 UBDSV2 SAVING "STREAMFLOW OUT  " ON UNIT  50 AT TIME STEP  1, STRESS PERIOD   4



 STREAM LISTING     PERIOD      4   STEP        1

 LAYER ROW COL. STREAM  RCH.  FLOW INTO     FLOW TO   FLOW OUT OF   OVRLND.     DIRECT     STREAM       STREAM     STREAM     STREAM   STREAMBED  STREAMBED
                SEG.NO.  NO.  STRM. RCH.    AQUIFER    STRM. RCH.    RUNOFF     PRECIP       ET          HEAD       DEPTH      WIDTH   CONDCTNC.   GRADIENT

   1   13    1     1     1    1.0000E+05 -2.4611E+03   1.0246E+05  0.000E+00  0.000E+00  0.000E+00  4.84071E+01  1.457E-01  2.000E+01  2.000E+04 -1.231E-01
   1   13    2     1     2    1.0246E+05 -3.5265E+03   1.0599E+05  0.000E+00  0.000E+00  0.000E+00  4.79324E+01  1.483E-01  2.000E+01  2.000E+04 -1.763E-01
   1   14    3     1     3    1.0599E+05 -6.2333E+02   1.0661E+05  0.000E+00  0.000E+00  0.000E+00  4.74569E+01  1.501E-01  2.000E+01  2.000E+04 -3.117E-02
   1   15    4     1     4    1.0661E+05 -5.9973E+02   1.0721E+05  0.000E+00  0.000E+00  0.000E+00  4.69801E+01  1.506E-01  2.000E+01  2.000E+04 -2.999E-02
   1   16    5     1     5    1.0721E+05 -2.1749E+03   1.0939E+05  0.000E+00  0.000E+00  0.000E+00  4.65040E+01  1.517E-01  2.000E+01  2.000E+04 -1.087E-01
   1   16    6     1     6    1.0939E+05 -1.3666E+03   1.1075E+05  0.000E+00  0.000E+00  0.000E+00  4.60282E+01  1.532E-01  2.000E+01  2.000E+04 -6.833E-02
   1   16    7     1     7    1.1075E+05 -1.3424E+03   1.1209E+05  0.000E+00  0.000E+00  0.000E+00  4.55521E+01  1.544E-01  2.000E+01  2.000E+04 -6.712E-02
   1   16    8     1     8    1.1209E+05 -1.3371E+03   1.1343E+05  0.000E+00  0.000E+00  0.000E+00  4.50759E+01  1.555E-01  2.000E+01  2.000E+04 -6.686E-02
   1   16    9     1     9    1.1343E+05 -1.3261E+03   1.1476E+05  0.000E+00  0.000E+00  0.000E+00  4.45997E+01  1.566E-01  2.000E+01  2.000E+04 -6.630E-02
   1   16   10     1    10    1.1476E+05 -1.3090E+03   1.1607E+05  0.000E+00  0.000E+00  0.000E+00  4.41236E+01  1.576E-01  2.000E+01  2.000E+04 -6.545E-02
   1   16   11     1    11    1.1607E+05 -1.3145E+03   1.1738E+05  0.000E+00  0.000E+00  0.000E+00  4.36474E+01  1.587E-01  2.000E+01  2.000E+04 -6.573E-02
   1   16   12     1    12    1.1738E+05 -2.2631E+03   1.1964E+05  0.000E+00  0.000E+00  0.000E+00  4.31715E+01  1.602E-01  2.000E+01  2.000E+04 -1.132E-01
   1   15   13     1    13    1.1964E+05 -2.0826E+03   1.2173E+05  0.000E+00  0.000E+00  0.000E+00  4.26960E+01  1.619E-01  2.000E+01  2.000E+04 -1.041E-01
   1   14   14     1    14    1.2173E+05 -2.2365E+03   1.2396E+05  0.000E+00  0.000E+00  0.000E+00  4.22205E+01  1.637E-01  2.000E+01  2.000E+04 -1.118E-01
   1   13   15     1    15    1.2396E+05 -2.3033E+03   1.2627E+05  0.000E+00  0.000E+00  0.000E+00  4.17450E+01  1.655E-01  2.000E+01  2.000E+04 -1.152E-01
   1   12   16     1    16    1.2627E+05 -2.2942E+03   1.2856E+05  0.000E+00  0.000E+00  0.000E+00  4.12696E+01  1.673E-01  2.000E+01  2.000E+04 -1.147E-01
   1   12   17     1    17    1.2856E+05 -1.2913E+03   1.2985E+05  0.000E+00  0.000E+00  0.000E+00  4.07937E+01  1.687E-01  2.000E+01  2.000E+04 -6.457E-02
   1   12   18     1    18    1.2985E+05 -9.9804E+02   1.3085E+05  0.000E+00  0.000E+00  0.000E+00  4.03173E+01  1.696E-01  2.000E+01  2.000E+04 -4.990E-02
   1   12   19     1    19    1.3085E+05 -3.6369E+02   1.3121E+05  0.000E+00  0.000E+00  0.000E+00  3.98406E+01  1.701E-01  2.000E+01  2.000E+04 -1.818E-02
   1   13   20     1    20    1.3121E+05  3.1068E+02   1.3090E+05  0.000E+00  0.000E+00  0.000E+00  3.93633E+01  1.701E-01  2.000E+01  2.000E+04  1.553E-02
   1   14   21     1    21    1.3090E+05 -6.1254E+02   1.3152E+05  0.000E+00  0.000E+00  0.000E+00  3.88862E+01  1.703E-01  2.000E+01  2.000E+04 -3.063E-02
   1   14   22     1    22    1.3152E+05  6.1838E+03   1.2533E+05  0.000E+00  0.000E+00  0.000E+00  3.84067E+01  1.681E-01  2.000E+01  2.000E+04  3.092E-01
   1    9   30     2     1    5.0000E+04 -4.0245E+02   5.0402E+04  0.000E+00  0.000E+00  0.000E+00  4.02411E+01  1.161E-01  2.000E+01  2.000E+04 -2.012E-02
   1    9   29     2     2    5.0402E+04 -6.4041E+02   5.1043E+04  0.000E+00  0.000E+00  0.000E+00  3.99919E+01  1.169E-01  2.000E+01  2.000E+04 -3.202E-02
   1    9   28     2     3    5.1043E+04 -7.3303E+02   5.1776E+04  0.000E+00  0.000E+00  0.000E+00  3.97428E+01  1.178E-01  2.000E+01  2.000E+04 -3.665E-02
   1    9   27     2     4    5.1776E+04 -1.0027E+03   5.2779E+04  0.000E+00  0.000E+00  0.000E+00  3.94940E+01  1.190E-01  2.000E+01  2.000E+04 -5.014E-02
   1   10   26     2     5    5.2779E+04  7.2980E+01   5.2706E+04  0.000E+00  0.000E+00  0.000E+00  3.92446E+01  1.196E-01  2.000E+01  2.000E+04  3.649E-03
   1   11   25     2     6    5.2706E+04  1.4392E+03   5.1266E+04  0.000E+00  0.000E+00  0.000E+00  3.89936E+01  1.186E-01  2.000E+01  2.000E+04  7.196E-02
   1   12   24     2     7    5.1266E+04  2.9631E+03   4.8303E+04  0.000E+00  0.000E+00  0.000E+00  3.87406E+01  1.156E-01  2.000E+01  2.000E+04  1.482E-01
   1   13   23     2     8    4.8303E+04  9.2463E+02   4.7379E+04  0.000E+00  0.000E+00  0.000E+00  3.84878E+01  1.128E-01  2.000E+01  2.000E+04  4.623E-02
   1   14   22     2     9    4.7379E+04  2.7538E+03   4.4625E+04  0.000E+00  0.000E+00  0.000E+00  3.82352E+01  1.102E-01  2.000E+01  2.000E+04  1.377E-01
   1   14   22     3     1    1.6996E+05 -7.4957E+03   1.7745E+05  0.000E+00  0.000E+00  0.000E+00  3.77227E+01  1.672E-01  2.000E+01  2.000E+04 -3.748E-01
   1   15   23     3     2    1.7745E+05 -6.4479E+02   1.7810E+05  0.000E+00  0.000E+00  0.000E+00  3.68362E+01  1.695E-01  2.000E+01  2.000E+04 -3.224E-02
   1   15   24     3     3    1.7810E+05 -3.4439E+02   1.7844E+05  0.000E+00  0.000E+00  0.000E+00  3.59476E+01  1.698E-01  2.000E+01  2.000E+04 -1.722E-02
   1   15   25     3     4    1.7844E+05 -3.3306E+02   1.7877E+05  0.000E+00  0.000E+00  0.000E+00  3.50589E+01  1.700E-01  2.000E+01  2.000E+04 -1.665E-02
   1   15   26     3     5    1.7877E+05 -3.7826E+02   1.7915E+05  0.000E+00  0.000E+00  0.000E+00  3.41702E+01  1.702E-01  2.000E+01  2.000E+04 -1.891E-02
   1   16   27     3     6    1.7915E+05 -4.3657E+02   1.7959E+05  0.000E+00  0.000E+00  0.000E+00  3.32815E+01  1.704E-01  2.000E+01  2.000E+04 -2.183E-02
   1   17   28     3     7    1.7959E+05 -1.7938E+03   1.8138E+05  0.000E+00  0.000E+00  0.000E+00  3.23933E+01  1.711E-01  2.000E+01  2.000E+04 -8.969E-02
   1   18   29     3     8    1.8138E+05 -3.3537E+03   1.8474E+05  0.000E+00  0.000E+00  0.000E+00  3.15059E+01  1.725E-01  2.000E+01  2.000E+04 -1.677E-01
   1   18   30     3     9    1.8474E+05 -3.4587E+03   1.8820E+05  0.000E+00  0.000E+00  0.000E+00  3.06189E+01  1.744E-01  2.000E+01  2.000E+04 -1.729E-01



1
              HEAD IN LAYER   1 AT END OF TIME STEP   1 IN STRESS PERIOD    4
  ---------------------------------------------------------------------------

          1      2      3      4      5      6      7      8      9     10
         11     12     13     14     15     16     17     18     19     20
         21     22     23     24     25     26     27     28     29     30
 .........................................................................
   1  ****** ****** ****** ****** ****** ****** ****** ****** ****** ******
      ****** ****** ****** ****** ****** ****** ****** ****** ****** ******
      ****** ****** ****** ****** ****** ****** ****** ****** ****** ******
   2  ****** ****** ****** ****** ****** ****** ****** ****** ****** ******
      ****** ****** ****** ****** ****** ****** ****** ****** ****** ******
      ****** ****** ****** ****** ****** ****** ****** ****** ****** ******
   3  ****** ****** ****** ****** ****** ****** ****** ****** ****** ******
      ****** ****** ****** ****** ****** ****** ****** ****** ****** ******
      ****** ****** ****** ****** ****** ****** ****** ****** ****** ******
   4  ****** ****** ****** ****** ****** ****** ****** ****** ****** ******
      ****** ****** ****** ****** ****** ****** ****** ****** ****** ******
      ****** ****** ****** ****** ****** ****** ****** ****** ****** ******
   5  ****** ****** ****** ****** ****** ****** ****** ****** ****** ******
      ****** ****** ****** ****** ****** ****** ****** ****** ****** ******
      ****** ****** ****** ****** ****** ****** ****** ****** ****** ******
   6  ****** ****** ****** ****** ****** ****** ****** ****** ****** ******
      ****** ****** ****** ****** ****** ****** ****** ****** ****** ******
      ****** ****** ****** ****** ****** ****** ****** ****** ****** ******
   7  ****** ****** ****** ****** ****** ****** ****** ****** ****** ******
      ****** ****** ****** ****** ****** ****** ****** ****** ****** ******
      ****** ****** ****** ****** ****** ****** ****** ****** ****** ******
   8  ****** ****** ****** ****** ****** ****** ****** ****** ****** ******
      ****** ****** ****** ****** ****** ****** ****** ****** ****** ******
      ****** ****** ****** ****** ****** ****** ****** ****** ****** ******
   9  ****** ****** ****** ****** ****** ****** ****** ****** ****** ******
      ****** ****** ****** ****** ****** ****** ****** ****** ****** ******
      ****** ****** ****** ****** ****** ****** ****** ****** ****** ******
  10  ****** ****** ****** ****** ****** ****** ****** ****** ****** ******
      ****** ****** ****** ****** ****** ****** ****** ****** ****** ******
      ****** ****** ****** ****** ****** ****** ****** ****** ****** ******
  11  ****** ****** ****** ****** ****** ****** ****** ****** ****** ******
      ****** ****** ****** ****** ****** ****** ****** ****** ****** ******
      ****** ****** ****** ****** ****** ****** ****** ****** ****** ******
  12  ****** ****** ****** ****** ****** ****** ****** ****** ****** ******
      ****** ****** ****** ****** ****** ****** ****** ****** ****** ******
      ****** ****** ****** ****** ****** ****** ****** ****** ****** ******
  13  ****** ****** ****** ****** ****** ****** ****** ****** ****** ******
      ****** ****** ****** ****** ****** ****** ****** ****** ****** ******
      ****** ****** ****** ****** ****** ****** ****** ****** ****** ******
  14  ****** ****** ****** ****** ****** ****** ****** ****** ****** ******
      ****** ****** ****** ****** ****** ****** ****** ****** ****** ******
      ****** ****** ****** ****** ****** ****** ****** ****** ****** ******
  15  ****** ****** ****** ****** ****** ****** ****** ****** ****** ******
      ****** ****** ****** ****** ****** ****** ****** ****** ****** ******
      ****** ****** ****** ****** ****** ****** ****** ****** ****** ******
  16  ****** ****** ****** ****** ****** ****** ****** ****** ****** ******
      ****** ****** ****** ****** ****** ****** ****** ****** ****** ******
      ****** ****** ****** ****** ****** ****** ****** ****** ****** ******
  17  ****** ****** ****** ****** ****** ****** ****** ****** ****** ******
      ****** ****** ****** ****** ****** ****** ****** ****** ****** ******
      ****** ****** ****** ****** ****** ****** ****** ****** ****** ******
  18  ****** ****** ****** ****** ****** ****** ****** ****** ****** ******
      ****** ****** ****** ****** ****** ****** ****** ****** ****** ******
      ****** ****** ****** ****** ****** ****** ****** ****** ****** ******
  19  ****** ****** ****** ****** ****** ****** ****** ****** ****** ******
      ****** ****** ****** ****** ****** ****** ****** ****** ****** ******
      ****** ****** ****** ****** ****** ****** ****** ****** ****** ******
  20  ****** ****** ****** ****** ****** ****** ****** ****** ****** ******
      ****** ****** ****** ****** ****** ****** ****** ****** ****** ******
      ****** ****** ****** ****** ****** ****** ****** ****** ****** ******
  21  ****** ****** ****** ****** ****** ****** ****** ****** ****** ******
      ****** ****** ****** ****** ****** ****** ****** ****** ****** ******
      ****** ****** ****** ****** ****** ****** ****** ****** ****** ******
  22  ****** ****** ****** ****** ****** ****** ****** ****** ****** ******
      ****** ****** ****** ****** ****** ****** ****** ****** ****** ******
      ****** ****** ****** ****** ****** ****** ****** ****** ****** ******
  23  ****** ****** ****** ****** ****** ****** ****** ****** ****** ******
      ****** ****** ****** ****** ****** ****** ****** ****** ****** ******
      ****** ****** ****** ****** ****** ****** ****** ****** ****** ******
  24  ****** ****** ****** ****** ****** ****** ****** ****** ****** ******
      ****** ****** ****** ****** ****** ****** ****** ****** ****** ******
      ****** ****** ****** ****** ****** ****** ****** ****** ****** ******
  25  ****** ****** ****** ****** ****** ****** ****** ****** ****** ******
      ****** ****** ****** ****** ****** ****** ****** ****** ****** ******
      ****** ****** ****** ****** ****** ****** ****** ****** ****** ******

 HEAD WILL BE SAVED ON UNIT   51 AT END OF TIME STEP    1, STRESS PERIOD    4
1
  VOLUMETRIC BUDGET FOR ENTIRE MODEL AT END OF TIME STEP    1, STRESS PERIOD   4
  ------------------------------------------------------------------------------

     CUMULATIVE VOLUMES      L**3       RATES FOR THIS TIME STEP      L**3/T
     ------------------                 ------------------------

           IN:                                      IN:
           ---                                      ---
             STORAGE =    29959801.5699               STORAGE =       19502.8305
       CONSTANT HEAD =     7861679.7321         CONSTANT HEAD =       29218.2317
               WELLS =           0.0000                 WELLS =           0.0000
            RECHARGE =     8804400.0000              RECHARGE =       27600.0000
      STREAM LEAKAGE =     4065505.9325        STREAM LEAKAGE =       14648.1623

            TOTAL IN =    50691387.2345              TOTAL IN =       90969.2245

          OUT:                                     OUT:
          ----                                     ----
             STORAGE =        1103.7816               STORAGE =          12.1295
       CONSTANT HEAD =           0.0000         CONSTANT HEAD =           0.0000
               WELLS =    13911228.7234                 WELLS =       38112.9554
            RECHARGE =           0.0000              RECHARGE =           0.0000
      STREAM LEAKAGE =    36779056.6730        STREAM LEAKAGE =       52844.1404

           TOTAL OUT =    50691389.1780             TOTAL OUT =       90969.2253

            IN - OUT =          -1.9435              IN - OUT =      -8.1511E-04

 PERCENT DISCREPANCY =          -0.00     PERCENT DISCREPANCY =          -0.00






         TIME SUMMARY AT END OF TIME STEP    1 IN STRESS PERIOD    4
                    SECONDS     MINUTES      HOURS       DAYS        YEARS
                    -----------------------------------------------------------
   TIME STEP LENGTH 7.86240E+06 1.31040E+05  2184.0      91.000     0.24914    
 STRESS PERIOD TIME 7.86240E+06 1.31040E+05  2184.0      91.000     0.24914    
         TOTAL TIME 3.15360E+07 5.25600E+05  8760.0      365.00     0.99932    
1
1
                            STRESS PERIOD NO.    5, LENGTH =   92.00000    
                            -----------------------------------------------

                              NUMBER OF TIME STEPS =     1

                               MULTIPLIER FOR DELT =     1.500

                            INITIAL TIME STEP SIZE =   92.00000    

 WELL NO.  LAYER   ROW   COL   STRESS RATE         
 --------------------------------------------------
      1      1     11     23      -9982.    
      2      1     13     22      -7684.    
      3      1      6     18     -0.1279E+05
      4      1      7     23      -7655.    

      4 WELLS

                 RECHARGE =  5.000000E-04

 REUSING STREAM SEGMENT DATA FROM LAST STRESS PERIOD
 
 SOLVING FOR HEAD 


     7 CALLS TO PCG ROUTINE FOR TIME STEP   1 IN STRESS PERIOD    5
    26 TOTAL ITERATIONS

 OUTPUT CONTROL FOR STRESS PERIOD    5   TIME STEP    1
    SAVE BUDGET
    SAVE HEAD FOR ALL LAYERS
    PRINT HEAD FOR ALL LAYERS
 UBDSV2 SAVING "STREAMFLOW OUT  " ON UNIT  50 AT TIME STEP  1, STRESS PERIOD   5



 STREAM LISTING     PERIOD      5   STEP        1

 LAYER ROW COL. STREAM  RCH.  FLOW INTO     FLOW TO   FLOW OUT OF   OVRLND.     DIRECT     STREAM       STREAM     STREAM     STREAM   STREAMBED  STREAMBED
                SEG.NO.  NO.  STRM. RCH.    AQUIFER    STRM. RCH.    RUNOFF     PRECIP       ET          HEAD       DEPTH      WIDTH   CONDCTNC.   GRADIENT

   1   13    1     1     1    1.0000E+05 -2.0304E+03   1.0203E+05  0.000E+00  0.000E+00  0.000E+00  4.84069E+01  1.455E-01  2.000E+01  2.000E+04 -1.015E-01
   1   13    2     1     2    1.0203E+05 -3.0398E+03   1.0507E+05  0.000E+00  0.000E+00  0.000E+00  4.79318E+01  1.477E-01  2.000E+01  2.000E+04 -1.520E-01
   1   14    3     1     3    1.0507E+05 -4.9968E+02   1.0557E+05  0.000E+00  0.000E+00  0.000E+00  4.74560E+01  1.492E-01  2.000E+01  2.000E+04 -2.498E-02
   1   15    4     1     4    1.0557E+05 -4.7030E+02   1.0604E+05  0.000E+00  0.000E+00  0.000E+00  4.69792E+01  1.496E-01  2.000E+01  2.000E+04 -2.352E-02
   1   16    5     1     5    1.0604E+05 -1.7486E+03   1.0779E+05  0.000E+00  0.000E+00  0.000E+00  4.65028E+01  1.506E-01  2.000E+01  2.000E+04 -8.743E-02
   1   16    6     1     6    1.0779E+05 -1.1164E+03   1.0891E+05  0.000E+00  0.000E+00  0.000E+00  4.60268E+01  1.518E-01  2.000E+01  2.000E+04 -5.582E-02
   1   16    7     1     7    1.0891E+05 -1.1025E+03   1.1001E+05  0.000E+00  0.000E+00  0.000E+00  4.55504E+01  1.527E-01  2.000E+01  2.000E+04 -5.512E-02
   1   16    8     1     8    1.1001E+05 -1.1010E+03   1.1111E+05  0.000E+00  0.000E+00  0.000E+00  4.50741E+01  1.536E-01  2.000E+01  2.000E+04 -5.505E-02
   1   16    9     1     9    1.1111E+05 -1.0933E+03   1.1220E+05  0.000E+00  0.000E+00  0.000E+00  4.45977E+01  1.545E-01  2.000E+01  2.000E+04 -5.467E-02
   1   16   10     1    10    1.1220E+05 -1.0804E+03   1.1328E+05  0.000E+00  0.000E+00  0.000E+00  4.41214E+01  1.554E-01  2.000E+01  2.000E+04 -5.402E-02
   1   16   11     1    11    1.1328E+05 -1.0868E+03   1.1437E+05  0.000E+00  0.000E+00  0.000E+00  4.36450E+01  1.563E-01  2.000E+01  2.000E+04 -5.434E-02
   1   16   12     1    12    1.1437E+05 -1.8542E+03   1.1622E+05  0.000E+00  0.000E+00  0.000E+00  4.31689E+01  1.575E-01  2.000E+01  2.000E+04 -9.271E-02
   1   15   13     1    13    1.1622E+05 -1.6396E+03   1.1786E+05  0.000E+00  0.000E+00  0.000E+00  4.26931E+01  1.590E-01  2.000E+01  2.000E+04 -8.198E-02
   1   14   14     1    14    1.1786E+05 -1.7558E+03   1.1962E+05  0.000E+00  0.000E+00  0.000E+00  4.22172E+01  1.604E-01  2.000E+01  2.000E+04 -8.779E-02
   1   13   15     1    15    1.1962E+05 -1.7938E+03   1.2141E+05  0.000E+00  0.000E+00  0.000E+00  4.17413E+01  1.618E-01  2.000E+01  2.000E+04 -8.969E-02
   1   12   16     1    16    1.2141E+05 -1.7155E+03   1.2313E+05  0.000E+00  0.000E+00  0.000E+00  4.12655E+01  1.632E-01  2.000E+01  2.000E+04 -8.578E-02
   1   12   17     1    17    1.2313E+05 -9.0815E+02   1.2404E+05  0.000E+00  0.000E+00  0.000E+00  4.07892E+01  1.642E-01  2.000E+01  2.000E+04 -4.541E-02
   1   12   18     1    18    1.2404E+05 -6.3356E+02   1.2467E+05  0.000E+00  0.000E+00  0.000E+00  4.03126E+01  1.649E-01  2.000E+01  2.000E+04 -3.168E-02
   1   12   19     1    19    1.2467E+05  8.5334E+01   1.2458E+05  0.000E+00  0.000E+00  0.000E+00  3.98355E+01  1.651E-01  2.000E+01  2.000E+04  4.267E-03
   1   13   20     1    20    1.2458E+05  6.7956E+02   1.2391E+05  0.000E+00  0.000E+00  0.000E+00  3.93580E+01  1.648E-01  2.000E+01  2.000E+04  3.398E-02
   1   14   21     1    21    1.2391E+05 -2.3942E+02   1.2414E+05  0.000E+00  0.000E+00  0.000E+00  3.88805E+01  1.646E-01  2.000E+01  2.000E+04 -1.197E-02
   1   14   22     1    22    1.2414E+05  6.2666E+03   1.1788E+05  0.000E+00  0.000E+00  0.000E+00  3.84008E+01  1.622E-01  2.000E+01  2.000E+04  3.133E-01
   1    9   30     2     1    5.0000E+04 -1.5144E+02   5.0151E+04  0.000E+00  0.000E+00  0.000E+00  4.02410E+01  1.160E-01  2.000E+01  2.000E+04 -7.572E-03
   1    9   29     2     2    5.0151E+04 -3.8469E+02   5.0536E+04  0.000E+00  0.000E+00  0.000E+00  3.99913E+01  1.163E-01  2.000E+01  2.000E+04 -1.923E-02
   1    9   28     2     3    5.0536E+04 -4.6229E+02   5.0998E+04  0.000E+00  0.000E+00  0.000E+00  3.97419E+01  1.169E-01  2.000E+01  2.000E+04 -2.311E-02
   1    9   27     2     4    5.0998E+04 -5.6723E+02   5.1566E+04  0.000E+00  0.000E+00  0.000E+00  3.94926E+01  1.176E-01  2.000E+01  2.000E+04 -2.836E-02
   1   10   26     2     5    5.1566E+04  4.4807E+02   5.1118E+04  0.000E+00  0.000E+00  0.000E+00  3.92427E+01  1.177E-01  2.000E+01  2.000E+04  2.240E-02
   1   11   25     2     6    5.1118E+04  1.7819E+03   4.9336E+04  0.000E+00  0.000E+00  0.000E+00  3.89912E+01  1.162E-01  2.000E+01  2.000E+04  8.910E-02
   1   12   24     2     7    4.9336E+04  3.2768E+03   4.6059E+04  0.000E+00  0.000E+00  0.000E+00  3.87376E+01  1.126E-01  2.000E+01  2.000E+04  1.638E-01
   1   13   23     2     8    4.6059E+04  9.9745E+02   4.5061E+04  0.000E+00  0.000E+00  0.000E+00  3.84846E+01  1.096E-01  2.000E+01  2.000E+04  4.987E-02
   1   14   22     2     9    4.5061E+04  2.8851E+03   4.2176E+04  0.000E+00  0.000E+00  0.000E+00  3.82318E+01  1.068E-01  2.000E+01  2.000E+04  1.443E-01
   1   14   22     3     1    1.6005E+05 -7.4114E+03   1.6747E+05  0.000E+00  0.000E+00  0.000E+00  3.77169E+01  1.614E-01  2.000E+01  2.000E+04 -3.706E-01
   1   15   23     3     2    1.6747E+05 -5.4887E+02   1.6801E+05  0.000E+00  0.000E+00  0.000E+00  3.68304E+01  1.637E-01  2.000E+01  2.000E+04 -2.744E-02
   1   15   24     3     3    1.6801E+05 -2.7349E+02   1.6829E+05  0.000E+00  0.000E+00  0.000E+00  3.59417E+01  1.640E-01  2.000E+01  2.000E+04 -1.367E-02
   1   15   25     3     4    1.6829E+05 -2.6256E+02   1.6855E+05  0.000E+00  0.000E+00  0.000E+00  3.50530E+01  1.641E-01  2.000E+01  2.000E+04 -1.313E-02
   1   15   26     3     5    1.6855E+05 -3.0661E+02   1.6886E+05  0.000E+00  0.000E+00  0.000E+00  3.41643E+01  1.643E-01  2.000E+01  2.000E+04 -1.533E-02
   1   16   27     3     6    1.6886E+05 -3.4694E+02   1.6920E+05  0.000E+00  0.000E+00  0.000E+00  3.32756E+01  1.645E-01  2.000E+01  2.000E+04 -1.735E-02
   1   17   28     3     7    1.6920E+05 -1.5291E+03   1.7073E+05  0.000E+00  0.000E+00  0.000E+00  3.23872E+01  1.650E-01  2.000E+01  2.000E+04 -7.646E-02
   1   18   29     3     8    1.7073E+05 -2.9869E+03   1.7372E+05  0.000E+00  0.000E+00  0.000E+00  3.14997E+01  1.663E-01  2.000E+01  2.000E+04 -1.493E-01
   1   18   30     3     9    1.7372E+05 -3.2055E+03   1.7693E+05  0.000E+00  0.000E+00  0.000E+00  3.06126E+01  1.681E-01  2.000E+01  2.000E+04 -1.603E-01



1
              HEAD IN LAYER   1 AT END OF TIME STEP   1 IN STRESS PERIOD    5
  ---------------------------------------------------------------------------

          1      2      3      4      5      6      7      8      9     10
         11     12     13     14     15     16     17     18     19     20
         21     22     23     24     25     26     27     28     29     30
 .........................................................................
   1  ****** ****** ****** ****** ****** ****** ****** ****** ****** ******
      ****** ****** ****** ****** ****** ****** ****** ****** ****** ******
      ****** ****** ****** ****** ****** ****** ****** ****** ****** ******
   2  ****** ****** ****** ****** ****** ****** ****** ****** ****** ******
      ****** ****** ****** ****** ****** ****** ****** ****** ****** ******
      ****** ****** ****** ****** ****** ****** ****** ****** ****** ******
   3  ****** ****** ****** ****** ****** ****** ****** ****** ****** ******
      ****** ****** ****** ****** ****** ****** ****** ****** ****** ******
      ****** ****** ****** ****** ****** ****** ****** ****** ****** ******
   4  ****** ****** ****** ****** ****** ****** ****** ****** ****** ******
      ****** ****** ****** ****** ****** ****** ****** ****** ****** ******
      ****** ****** ****** ****** ****** ****** ****** ****** ****** ******
   5  ****** ****** ****** ****** ****** ****** ****** ****** ****** ******
      ****** ****** ****** ****** ****** ****** ****** ****** ****** ******
      ****** ****** ****** ****** ****** ****** ****** ****** ****** ******
   6  ****** ****** ****** ****** ****** ****** ****** ****** ****** ******
      ****** ****** ****** ****** ****** ****** ****** ****** ****** ******
      ****** ****** ****** ****** ****** ****** ****** ****** ****** ******
   7  ****** ****** ****** ****** ****** ****** ****** ****** ****** ******
      ****** ****** ****** ****** ****** ****** ****** ****** ****** ******
      ****** ****** ****** ****** ****** ****** ****** ****** ****** ******
   8  ****** ****** ****** ****** ****** ****** ****** ****** ****** ******
      ****** ****** ****** ****** ****** ****** ****** ****** ****** ******
      ****** ****** ****** ****** ****** ****** ****** ****** ****** ******
   9  ****** ****** ****** ****** ****** ****** ****** ****** ****** ******
      ****** ****** ****** ****** ****** ****** ****** ****** ****** ******
      ****** ****** ****** ****** ****** ****** ****** ****** ****** ******
  10  ****** ****** ****** ****** ****** ****** ****** ****** ****** ******
      ****** ****** ****** ****** ****** ****** ****** ****** ****** ******
      ****** ****** ****** ****** ****** ****** ****** ****** ****** ******
  11  ****** ****** ****** ****** ****** ****** ****** ****** ****** ******
      ****** ****** ****** ****** ****** ****** ****** ****** ****** ******
      ****** ****** ****** ****** ****** ****** ****** ****** ****** ******
  12  ****** ****** ****** ****** ****** ****** ****** ****** ****** ******
      ****** ****** ****** ****** ****** ****** ****** ****** ****** ******
      ****** ****** ****** ****** ****** ****** ****** ****** ****** ******
  13  ****** ****** ****** ****** ****** ****** ****** ****** ****** ******
      ****** ****** ****** ****** ****** ****** ****** ****** ****** ******
      ****** ****** ****** ****** ****** ****** ****** ****** ****** ******
  14  ****** ****** ****** ****** ****** ****** ****** ****** ****** ******
      ****** ****** ****** ****** ****** ****** ****** ****** ****** ******
      ****** ****** ****** ****** ****** ****** ****** ****** ****** ******
  15  ****** ****** ****** ****** ****** ****** ****** ****** ****** ******
      ****** ****** ****** ****** ****** ****** ****** ****** ****** ******
      ****** ****** ****** ****** ****** ****** ****** ****** ****** ******
  16  ****** ****** ****** ****** ****** ****** ****** ****** ****** ******
      ****** ****** ****** ****** ****** ****** ****** ****** ****** ******
      ****** ****** ****** ****** ****** ****** ****** ****** ****** ******
  17  ****** ****** ****** ****** ****** ****** ****** ****** ****** ******
      ****** ****** ****** ****** ****** ****** ****** ****** ****** ******
      ****** ****** ****** ****** ****** ****** ****** ****** ****** ******
  18  ****** ****** ****** ****** ****** ****** ****** ****** ****** ******
      ****** ****** ****** ****** ****** ****** ****** ****** ****** ******
      ****** ****** ****** ****** ****** ****** ****** ****** ****** ******
  19  ****** ****** ****** ****** ****** ****** ****** ****** ****** ******
      ****** ****** ****** ****** ****** ****** ****** ****** ****** ******
      ****** ****** ****** ****** ****** ****** ****** ****** ****** ******
  20  ****** ****** ****** ****** ****** ****** ****** ****** ****** ******
      ****** ****** ****** ****** ****** ****** ****** ****** ****** ******
      ****** ****** ****** ****** ****** ****** ****** ****** ****** ******
  21  ****** ****** ****** ****** ****** ****** ****** ****** ****** ******
      ****** ****** ****** ****** ****** ****** ****** ****** ****** ******
      ****** ****** ****** ****** ****** ****** ****** ****** ****** ******
  22  ****** ****** ****** ****** ****** ****** ****** ****** ****** ******
      ****** ****** ****** ****** ****** ****** ****** ****** ****** ******
      ****** ****** ****** ****** ****** ****** ****** ****** ****** ******
  23  ****** ****** ****** ****** ****** ****** ****** ****** ****** ******
      ****** ****** ****** ****** ****** ****** ****** ****** ****** ******
      ****** ****** ****** ****** ****** ****** ****** ****** ****** ******
  24  ****** ****** ****** ****** ****** ****** ****** ****** ****** ******
      ****** ****** ****** ****** ****** ****** ****** ****** ****** ******
      ****** ****** ****** ****** ****** ****** ****** ****** ****** ******
  25  ****** ****** ****** ****** ****** ****** ****** ****** ****** ******
      ****** ****** ****** ****** ****** ****** ****** ****** ****** ******
      ****** ****** ****** ****** ****** ****** ****** ****** ****** ******

 HEAD WILL BE SAVED ON UNIT   51 AT END OF TIME STEP    1, STRESS PERIOD    5
1
  VOLUMETRIC BUDGET FOR ENTIRE MODEL AT END OF TIME STEP    1, STRESS PERIOD   5
  ------------------------------------------------------------------------------

     CUMULATIVE VOLUMES      L**3       RATES FOR THIS TIME STEP      L**3/T
     ------------------                 ------------------------

           IN:                                      IN:
           ---                                      ---
             STORAGE =    31707635.7061               STORAGE =       18998.1971
       CONSTANT HEAD =    10827786.8599         CONSTANT HEAD =       32240.2949
               WELLS =           0.0000                 WELLS =           0.0000
            RECHARGE =    10074000.0000              RECHARGE =       13800.0000
      STREAM LEAKAGE =     5576225.6691        STREAM LEAKAGE =       16420.8667

            TOTAL IN =    58185648.2351              TOTAL IN =       81459.3587

          OUT:                                     OUT:
          ----                                     ----
             STORAGE =        1103.7816               STORAGE =           0.0000
       CONSTANT HEAD =           0.0000         CONSTANT HEAD =           0.0000
               WELLS =    17417620.6208                 WELLS =       38112.9554
            RECHARGE =           0.0000              RECHARGE =           0.0000
      STREAM LEAKAGE =    40766926.0675        STREAM LEAKAGE =       43346.4065

           TOTAL OUT =    58185650.4699             TOTAL OUT =       81459.3619

            IN - OUT =          -2.2347              IN - OUT =      -3.1651E-03

 PERCENT DISCREPANCY =          -0.00     PERCENT DISCREPANCY =          -0.00






         TIME SUMMARY AT END OF TIME STEP    1 IN STRESS PERIOD    5
                    SECONDS     MINUTES      HOURS       DAYS        YEARS
                    -----------------------------------------------------------
   TIME STEP LENGTH 7.94880E+06 1.32480E+05  2208.0      92.000     0.25188    
 STRESS PERIOD TIME 7.94880E+06 1.32480E+05  2208.0      92.000     0.25188    
         TOTAL TIME 3.94848E+07 6.58080E+05  10968.      457.00      1.2512    
1
1
                            STRESS PERIOD NO.    6, LENGTH =   91.00000    
                            -----------------------------------------------

                              NUMBER OF TIME STEPS =     1

                               MULTIPLIER FOR DELT =     1.500

                            INITIAL TIME STEP SIZE =   91.00000    

 WELL NO.  LAYER   ROW   COL   STRESS RATE         
 --------------------------------------------------
      1      1     11     23      -9982.    
      2      1     13     22      -7684.    
      3      1      6     18     -0.1279E+05
      4      1      7     23      -7655.    

      4 WELLS

                 RECHARGE =  2.000000E-03

 REUSING STREAM SEGMENT DATA FROM LAST STRESS PERIOD
 
 SOLVING FOR HEAD 


     7 CALLS TO PCG ROUTINE FOR TIME STEP   1 IN STRESS PERIOD    6
    26 TOTAL ITERATIONS

 OUTPUT CONTROL FOR STRESS PERIOD    6   TIME STEP    1
    SAVE BUDGET
    SAVE HEAD FOR ALL LAYERS
    PRINT HEAD FOR ALL LAYERS
 UBDSV2 SAVING "STREAMFLOW OUT  " ON UNIT  50 AT TIME STEP  1, STRESS PERIOD   6



 STREAM LISTING     PERIOD      6   STEP        1

 LAYER ROW COL. STREAM  RCH.  FLOW INTO     FLOW TO   FLOW OUT OF   OVRLND.     DIRECT     STREAM       STREAM     STREAM     STREAM   STREAMBED  STREAMBED
                SEG.NO.  NO.  STRM. RCH.    AQUIFER    STRM. RCH.    RUNOFF     PRECIP       ET          HEAD       DEPTH      WIDTH   CONDCTNC.   GRADIENT

   1   13    1     1     1    1.0000E+05 -2.3324E+03   1.0233E+05  0.000E+00  0.000E+00  0.000E+00  4.84070E+01  1.457E-01  2.000E+01  2.000E+04 -1.166E-01
   1   13    2     1     2    1.0233E+05 -3.3700E+03   1.0570E+05  0.000E+00  0.000E+00  0.000E+00  4.79322E+01  1.481E-01  2.000E+01  2.000E+04 -1.685E-01
   1   14    3     1     3    1.0570E+05 -6.5319E+02   1.0636E+05  0.000E+00  0.000E+00  0.000E+00  4.74566E+01  1.498E-01  2.000E+01  2.000E+04 -3.266E-02
   1   15    4     1     4    1.0636E+05 -6.3587E+02   1.0699E+05  0.000E+00  0.000E+00  0.000E+00  4.69799E+01  1.504E-01  2.000E+01  2.000E+04 -3.179E-02
   1   16    5     1     5    1.0699E+05 -2.2477E+03   1.0924E+05  0.000E+00  0.000E+00  0.000E+00  4.65039E+01  1.516E-01  2.000E+01  2.000E+04 -1.124E-01
   1   16    6     1     6    1.0924E+05 -1.4085E+03   1.1065E+05  0.000E+00  0.000E+00  0.000E+00  4.60281E+01  1.531E-01  2.000E+01  2.000E+04 -7.042E-02
   1   16    7     1     7    1.1065E+05 -1.3792E+03   1.1203E+05  0.000E+00  0.000E+00  0.000E+00  4.55520E+01  1.543E-01  2.000E+01  2.000E+04 -6.896E-02
   1   16    8     1     8    1.1203E+05 -1.3732E+03   1.1340E+05  0.000E+00  0.000E+00  0.000E+00  4.50759E+01  1.554E-01  2.000E+01  2.000E+04 -6.866E-02
   1   16    9     1     9    1.1340E+05 -1.3653E+03   1.1477E+05  0.000E+00  0.000E+00  0.000E+00  4.45997E+01  1.566E-01  2.000E+01  2.000E+04 -6.827E-02
   1   16   10     1    10    1.1477E+05 -1.3546E+03   1.1612E+05  0.000E+00  0.000E+00  0.000E+00  4.41236E+01  1.577E-01  2.000E+01  2.000E+04 -6.773E-02
   1   16   11     1    11    1.1612E+05 -1.3651E+03   1.1749E+05  0.000E+00  0.000E+00  0.000E+00  4.36474E+01  1.588E-01  2.000E+01  2.000E+04 -6.826E-02
   1   16   12     1    12    1.1749E+05 -2.3033E+03   1.1979E+05  0.000E+00  0.000E+00  0.000E+00  4.31716E+01  1.603E-01  2.000E+01  2.000E+04 -1.152E-01
   1   15   13     1    13    1.1979E+05 -2.0911E+03   1.2188E+05  0.000E+00  0.000E+00  0.000E+00  4.26961E+01  1.620E-01  2.000E+01  2.000E+04 -1.046E-01
   1   14   14     1    14    1.2188E+05 -2.1964E+03   1.2408E+05  0.000E+00  0.000E+00  0.000E+00  4.22206E+01  1.638E-01  2.000E+01  2.000E+04 -1.098E-01
   1   13   15     1    15    1.2408E+05 -2.2087E+03   1.2628E+05  0.000E+00  0.000E+00  0.000E+00  4.17451E+01  1.655E-01  2.000E+01  2.000E+04 -1.104E-01
   1   12   16     1    16    1.2628E+05 -2.0717E+03   1.2836E+05  0.000E+00  0.000E+00  0.000E+00  4.12695E+01  1.672E-01  2.000E+01  2.000E+04 -1.036E-01
   1   12   17     1    17    1.2836E+05 -1.2064E+03   1.2956E+05  0.000E+00  0.000E+00  0.000E+00  4.07935E+01  1.685E-01  2.000E+01  2.000E+04 -6.032E-02
   1   12   18     1    18    1.2956E+05 -9.3695E+02   1.3050E+05  0.000E+00  0.000E+00  0.000E+00  4.03171E+01  1.693E-01  2.000E+01  2.000E+04 -4.685E-02
   1   12   19     1    19    1.3050E+05 -2.8884E+02   1.3079E+05  0.000E+00  0.000E+00  0.000E+00  3.98403E+01  1.698E-01  2.000E+01  2.000E+04 -1.444E-02
   1   13   20     1    20    1.3079E+05  2.6348E+02   1.3053E+05  0.000E+00  0.000E+00  0.000E+00  3.93630E+01  1.698E-01  2.000E+01  2.000E+04  1.317E-02
   1   14   21     1    21    1.3053E+05 -6.5562E+02   1.3118E+05  0.000E+00  0.000E+00  0.000E+00  3.88859E+01  1.700E-01  2.000E+01  2.000E+04 -3.278E-02
   1   14   22     1    22    1.3118E+05  6.1563E+03   1.2502E+05  0.000E+00  0.000E+00  0.000E+00  3.84065E+01  1.678E-01  2.000E+01  2.000E+04  3.078E-01
   1    9   30     2     1    5.0000E+04 -5.0556E+02   5.0506E+04  0.000E+00  0.000E+00  0.000E+00  4.02412E+01  1.162E-01  2.000E+01  2.000E+04 -2.528E-02
   1    9   29     2     2    5.0506E+04 -7.3390E+02   5.1239E+04  0.000E+00  0.000E+00  0.000E+00  3.99921E+01  1.171E-01  2.000E+01  2.000E+04 -3.670E-02
   1    9   28     2     3    5.1239E+04 -8.0326E+02   5.2043E+04  0.000E+00  0.000E+00  0.000E+00  3.97431E+01  1.181E-01  2.000E+01  2.000E+04 -4.016E-02
   1    9   27     2     4    5.2043E+04 -9.9061E+02   5.3033E+04  0.000E+00  0.000E+00  0.000E+00  3.94944E+01  1.194E-01  2.000E+01  2.000E+04 -4.953E-02
   1   10   26     2     5    5.3033E+04 -4.7957E+00   5.3038E+04  0.000E+00  0.000E+00  0.000E+00  3.92450E+01  1.200E-01  2.000E+01  2.000E+04 -2.398E-04
   1   11   25     2     6    5.3038E+04  1.3416E+03   5.1697E+04  0.000E+00  0.000E+00  0.000E+00  3.89941E+01  1.191E-01  2.000E+01  2.000E+04  6.708E-02
   1   12   24     2     7    5.1697E+04  2.8804E+03   4.8816E+04  0.000E+00  0.000E+00  0.000E+00  3.87412E+01  1.162E-01  2.000E+01  2.000E+04  1.440E-01
   1   13   23     2     8    4.8816E+04  8.6165E+02   4.7954E+04  0.000E+00  0.000E+00  0.000E+00  3.84886E+01  1.136E-01  2.000E+01  2.000E+04  4.308E-02
   1   14   22     2     9    4.7954E+04  2.7479E+03   4.5207E+04  0.000E+00  0.000E+00  0.000E+00  3.82360E+01  1.110E-01  2.000E+01  2.000E+04  1.374E-01
   1   14   22     3     1    1.7023E+05 -7.5149E+03   1.7775E+05  0.000E+00  0.000E+00  0.000E+00  3.77229E+01  1.673E-01  2.000E+01  2.000E+04 -3.757E-01
   1   15   23     3     2    1.7775E+05 -6.8806E+02   1.7843E+05  0.000E+00  0.000E+00  0.000E+00  3.68364E+01  1.697E-01  2.000E+01  2.000E+04 -3.440E-02
   1   15   24     3     3    1.7843E+05 -3.9646E+02   1.7883E+05  0.000E+00  0.000E+00  0.000E+00  3.59478E+01  1.700E-01  2.000E+01  2.000E+04 -1.982E-02
   1   15   25     3     4    1.7883E+05 -3.8986E+02   1.7922E+05  0.000E+00  0.000E+00  0.000E+00  3.50591E+01  1.702E-01  2.000E+01  2.000E+04 -1.949E-02
   1   15   26     3     5    1.7922E+05 -4.5856E+02   1.7968E+05  0.000E+00  0.000E+00  0.000E+00  3.41705E+01  1.705E-01  2.000E+01  2.000E+04 -2.293E-02
   1   16   27     3     6    1.7968E+05 -5.1672E+02   1.8020E+05  0.000E+00  0.000E+00  0.000E+00  3.32819E+01  1.708E-01  2.000E+01  2.000E+04 -2.584E-02
   1   17   28     3     7    1.8020E+05 -1.9959E+03   1.8219E+05  0.000E+00  0.000E+00  0.000E+00  3.23937E+01  1.715E-01  2.000E+01  2.000E+04 -9.979E-02
   1   18   29     3     8    1.8219E+05 -3.4353E+03   1.8563E+05  0.000E+00  0.000E+00  0.000E+00  3.15063E+01  1.730E-01  2.000E+01  2.000E+04 -1.718E-01
   1   18   30     3     9    1.8563E+05 -3.5671E+03   1.8919E+05  0.000E+00  0.000E+00  0.000E+00  3.06194E+01  1.750E-01  2.000E+01  2.000E+04 -1.784E-01



1
              HEAD IN LAYER   1 AT END OF TIME STEP   1 IN STRESS PERIOD    6
  ---------------------------------------------------------------------------

          1      2      3      4      5      6      7      8      9     10
         11     12     13     14     15     16     17     18     19     20
         21     22     23     24     25     26     27     28     29     30
 .........................................................................
   1  ****** ****** ****** ****** ****** ****** ****** ****** ****** ******
      ****** ****** ****** ****** ****** ****** ****** ****** ****** ******
      ****** ****** ****** ****** ****** ****** ****** ****** ****** ******
   2  ****** ****** ****** ****** ****** ****** ****** ****** ****** ******
      ****** ****** ****** ****** ****** ****** ****** ****** ****** ******
      ****** ****** ****** ****** ****** ****** ****** ****** ****** ******
   3  ****** ****** ****** ****** ****** ****** ****** ****** ****** ******
      ****** ****** ****** ****** ****** ****** ****** ****** ****** ******
      ****** ****** ****** ****** ****** ****** ****** ****** ****** ******
   4  ****** ****** ****** ****** ****** ****** ****** ****** ****** ******
      ****** ****** ****** ****** ****** ****** ****** ****** ****** ******
      ****** ****** ****** ****** ****** ****** ****** ****** ****** ******
   5  ****** ****** ****** ****** ****** ****** ****** ****** ****** ******
      ****** ****** ****** ****** ****** ****** ****** ****** ****** ******
      ****** ****** ****** ****** ****** ****** ****** ****** ****** ******
   6  ****** ****** ****** ****** ****** ****** ****** ****** ****** ******
      ****** ****** ****** ****** ****** ****** ****** ****** ****** ******
      ****** ****** ****** ****** ****** ****** ****** ****** ****** ******
   7  ****** ****** ****** ****** ****** ****** ****** ****** ****** ******
      ****** ****** ****** ****** ****** ****** ****** ****** ****** ******
      ****** ****** ****** ****** ****** ****** ****** ****** ****** ******
   8  ****** ****** ****** ****** ****** ****** ****** ****** ****** ******
      ****** ****** ****** ****** ****** ****** ****** ****** ****** ******
      ****** ****** ****** ****** ****** ****** ****** ****** ****** ******
   9  ****** ****** ****** ****** ****** ****** ****** ****** ****** ******
      ****** ****** ****** ****** ****** ****** ****** ****** ****** ******
      ****** ****** ****** ****** ****** ****** ****** ****** ****** ******
  10  ****** ****** ****** ****** ****** ****** ****** ****** ****** ******
      ****** ****** ****** ****** ****** ****** ****** ****** ****** ******
      ****** ****** ****** ****** ****** ****** ****** ****** ****** ******
  11  ****** ****** ****** ****** ****** ****** ****** ****** ****** ******
      ****** ****** ****** ****** ****** ****** ****** ****** ****** ******
      ****** ****** ****** ****** ****** ****** ****** ****** ****** ******
  12  ****** ****** ****** ****** ****** ****** ****** ****** ****** ******
      ****** ****** ****** ****** ****** ****** ****** ****** ****** ******
      ****** ****** ****** ****** ****** ****** ****** ****** ****** ******
  13  ****** ****** ****** ****** ****** ****** ****** ****** ****** ******
      ****** ****** ****** ****** ****** ****** ****** ****** ****** ******
      ****** ****** ****** ****** ****** ****** ****** ****** ****** ******
  14  ****** ****** ****** ****** ****** ****** ****** ****** ****** ******
      ****** ****** ****** ****** ****** ****** ****** ****** ****** ******
      ****** ****** ****** ****** ****** ****** ****** ****** ****** ******
  15  ****** ****** ****** ****** ****** ****** ****** ****** ****** ******
      ****** ****** ****** ****** ****** ****** ****** ****** ****** ******
      ****** ****** ****** ****** ****** ****** ****** ****** ****** ******
  16  ****** ****** ****** ****** ****** ****** ****** ****** ****** ******
      ****** ****** ****** ****** ****** ****** ****** ****** ****** ******
      ****** ****** ****** ****** ****** ****** ****** ****** ****** ******
  17  ****** ****** ****** ****** ****** ****** ****** ****** ****** ******
      ****** ****** ****** ****** ****** ****** ****** ****** ****** ******
      ****** ****** ****** ****** ****** ****** ****** ****** ****** ******
  18  ****** ****** ****** ****** ****** ****** ****** ****** ****** ******
      ****** ****** ****** ****** ****** ****** ****** ****** ****** ******
      ****** ****** ****** ****** ****** ****** ****** ****** ****** ******
  19  ****** ****** ****** ****** ****** ****** ****** ****** ****** ******
      ****** ****** ****** ****** ****** ****** ****** ****** ****** ******
      ****** ****** ****** ****** ****** ****** ****** ****** ****** ******
  20  ****** ****** ****** ****** ****** ****** ****** ****** ****** ******
      ****** ****** ****** ****** ****** ****** ****** ****** ****** ******
      ****** ****** ****** ****** ****** ****** ****** ****** ****** ******
  21  ****** ****** ****** ****** ****** ****** ****** ****** ****** ******
      ****** ****** ****** ****** ****** ****** ****** ****** ****** ******
      ****** ****** ****** ****** ****** ****** ****** ****** ****** ******
  22  ****** ****** ****** ****** ****** ****** ****** ****** ****** ******
      ****** ****** ****** ****** ****** ****** ****** ****** ****** ******
      ****** ****** ****** ****** ****** ****** ****** ****** ****** ******
  23  ****** ****** ****** ****** ****** ****** ****** ****** ****** ******
      ****** ****** ****** ****** ****** ****** ****** ****** ****** ******
      ****** ****** ****** ****** ****** ****** ****** ****** ****** ******
  24  ****** ****** ****** ****** ****** ****** ****** ****** ****** ******
      ****** ****** ****** ****** ****** ****** ****** ****** ****** ******
      ****** ****** ****** ****** ****** ****** ****** ****** ****** ******
  25  ****** ****** ****** ****** ****** ****** ****** ****** ****** ******
      ****** ****** ****** ****** ****** ****** ****** ****** ****** ******
      ****** ****** ****** ****** ****** ****** ****** ****** ****** ******

 HEAD WILL BE SAVED ON UNIT   51 AT END OF TIME STEP    1, STRESS PERIOD    6
1
  VOLUMETRIC BUDGET FOR ENTIRE MODEL AT END OF TIME STEP    1, STRESS PERIOD   6
  ------------------------------------------------------------------------------

     CUMULATIVE VOLUMES      L**3       RATES FOR THIS TIME STEP      L**3/T
     ------------------                 ------------------------

           IN:                                      IN:
           ---                                      ---
             STORAGE =    31707903.7771               STORAGE =           2.9458
       CONSTANT HEAD =    13594020.5123         CONSTANT HEAD =       30398.1720
               WELLS =           0.0000                 WELLS =           0.0000
            RECHARGE =    15097200.0000              RECHARGE =       55200.0000
      STREAM LEAKAGE =     6873100.7764        STREAM LEAKAGE =       14251.3748

            TOTAL IN =    67272225.0658              TOTAL IN =       99852.4926

          OUT:                                     OUT:
          ----                                     ----
             STORAGE =      755903.9915               STORAGE =        8294.5078
       CONSTANT HEAD =           0.0000         CONSTANT HEAD =           0.0000
               WELLS =    20885899.5627                 WELLS =       38112.9554
            RECHARGE =           0.0000              RECHARGE =           0.0000
      STREAM LEAKAGE =    45630423.4872        STREAM LEAKAGE =       53445.0266

           TOTAL OUT =    67272227.0415             TOTAL OUT =       99852.4898

            IN - OUT =          -1.9757              IN - OUT =       2.8464E-03

 PERCENT DISCREPANCY =          -0.00     PERCENT DISCREPANCY =           0.00






         TIME SUMMARY AT END OF TIME STEP    1 IN STRESS PERIOD    6
                    SECONDS     MINUTES      HOURS       DAYS        YEARS
                    -----------------------------------------------------------
   TIME STEP LENGTH 7.86240E+06 1.31040E+05  2184.0      91.000     0.24914    
 STRESS PERIOD TIME 7.86240E+06 1.31040E+05  2184.0      91.000     0.24914    
         TOTAL TIME 4.73472E+07 7.89120E+05  13152.      548.00      1.5003    
1
1
                            STRESS PERIOD NO.    7, LENGTH =   91.00000    
                            -----------------------------------------------

                              NUMBER OF TIME STEPS =     1

                               MULTIPLIER FOR DELT =     1.500

                            INITIAL TIME STEP SIZE =   91.00000    

 WELL NO.  LAYER   ROW   COL   STRESS RATE         
 --------------------------------------------------
      1      1     11     23      -9982.    
      2      1     13     22      -7684.    
      3      1      6     18     -0.1279E+05
      4      1      7     23      -7655.    

      4 WELLS

                 RECHARGE =   0.00000    

 REUSING STREAM SEGMENT DATA FROM LAST STRESS PERIOD
 
 SOLVING FOR HEAD 


     7 CALLS TO PCG ROUTINE FOR TIME STEP   1 IN STRESS PERIOD    7
    26 TOTAL ITERATIONS

 OUTPUT CONTROL FOR STRESS PERIOD    7   TIME STEP    1
    SAVE BUDGET
    SAVE HEAD FOR ALL LAYERS
    PRINT HEAD FOR ALL LAYERS
 UBDSV2 SAVING "STREAMFLOW OUT  " ON UNIT  50 AT TIME STEP  1, STRESS PERIOD   7



 STREAM LISTING     PERIOD      7   STEP        1

 LAYER ROW COL. STREAM  RCH.  FLOW INTO     FLOW TO   FLOW OUT OF   OVRLND.     DIRECT     STREAM       STREAM     STREAM     STREAM   STREAMBED  STREAMBED
                SEG.NO.  NO.  STRM. RCH.    AQUIFER    STRM. RCH.    RUNOFF     PRECIP       ET          HEAD       DEPTH      WIDTH   CONDCTNC.   GRADIENT

   1   13    1     1     1    1.0000E+05 -1.6565E+03   1.0166E+05  0.000E+00  0.000E+00  0.000E+00  4.84067E+01  1.454E-01  2.000E+01  2.000E+04 -8.283E-02
   1   13    2     1     2    1.0166E+05 -2.6134E+03   1.0427E+05  0.000E+00  0.000E+00  0.000E+00  4.79313E+01  1.472E-01  2.000E+01  2.000E+04 -1.307E-01
   1   14    3     1     3    1.0427E+05 -4.0002E+02   1.0467E+05  0.000E+00  0.000E+00  0.000E+00  4.74553E+01  1.485E-01  2.000E+01  2.000E+04 -2.000E-02
   1   15    4     1     4    1.0467E+05 -3.7237E+02   1.0504E+05  0.000E+00  0.000E+00  0.000E+00  4.69784E+01  1.488E-01  2.000E+01  2.000E+04 -1.862E-02
   1   16    5     1     5    1.0504E+05 -1.4958E+03   1.0654E+05  0.000E+00  0.000E+00  0.000E+00  4.65019E+01  1.496E-01  2.000E+01  2.000E+04 -7.479E-02
   1   16    6     1     6    1.0654E+05 -9.5428E+02   1.0749E+05  0.000E+00  0.000E+00  0.000E+00  4.60257E+01  1.507E-01  2.000E+01  2.000E+04 -4.771E-02
   1   16    7     1     7    1.0749E+05 -9.4323E+02   1.0844E+05  0.000E+00  0.000E+00  0.000E+00  4.55492E+01  1.515E-01  2.000E+01  2.000E+04 -4.716E-02
   1   16    8     1     8    1.0844E+05 -9.4323E+02   1.0938E+05  0.000E+00  0.000E+00  0.000E+00  4.50727E+01  1.523E-01  2.000E+01  2.000E+04 -4.716E-02
   1   16    9     1     9    1.0938E+05 -9.3865E+02   1.1032E+05  0.000E+00  0.000E+00  0.000E+00  4.45962E+01  1.530E-01  2.000E+01  2.000E+04 -4.693E-02
   1   16   10     1    10    1.1032E+05 -9.3073E+02   1.1125E+05  0.000E+00  0.000E+00  0.000E+00  4.41197E+01  1.538E-01  2.000E+01  2.000E+04 -4.654E-02
   1   16   11     1    11    1.1125E+05 -9.4061E+02   1.1219E+05  0.000E+00  0.000E+00  0.000E+00  4.36432E+01  1.546E-01  2.000E+01  2.000E+04 -4.703E-02
   1   16   12     1    12    1.1219E+05 -1.5893E+03   1.1378E+05  0.000E+00  0.000E+00  0.000E+00  4.31670E+01  1.556E-01  2.000E+01  2.000E+04 -7.947E-02
   1   15   13     1    13    1.1378E+05 -1.3206E+03   1.1510E+05  0.000E+00  0.000E+00  0.000E+00  4.26909E+01  1.568E-01  2.000E+01  2.000E+04 -6.603E-02
   1   14   14     1    14    1.1510E+05 -1.3946E+03   1.1649E+05  0.000E+00  0.000E+00  0.000E+00  4.22148E+01  1.580E-01  2.000E+01  2.000E+04 -6.973E-02
   1   13   15     1    15    1.1649E+05 -1.4013E+03   1.1789E+05  0.000E+00  0.000E+00  0.000E+00  4.17386E+01  1.591E-01  2.000E+01  2.000E+04 -7.006E-02
   1   12   16     1    16    1.1789E+05 -1.2638E+03   1.1916E+05  0.000E+00  0.000E+00  0.000E+00  4.12625E+01  1.602E-01  2.000E+01  2.000E+04 -6.319E-02
   1   12   17     1    17    1.1916E+05 -6.2205E+02   1.1978E+05  0.000E+00  0.000E+00  0.000E+00  4.07859E+01  1.609E-01  2.000E+01  2.000E+04 -3.110E-02
   1   12   18     1    18    1.1978E+05 -3.6748E+02   1.2015E+05  0.000E+00  0.000E+00  0.000E+00  4.03091E+01  1.613E-01  2.000E+01  2.000E+04 -1.837E-02
   1   12   19     1    19    1.2015E+05  4.0832E+02   1.1974E+05  0.000E+00  0.000E+00  0.000E+00  3.98318E+01  1.613E-01  2.000E+01  2.000E+04  2.042E-02
   1   13   20     1    20    1.1974E+05  9.3534E+02   1.1880E+05  0.000E+00  0.000E+00  0.000E+00  3.93540E+01  1.608E-01  2.000E+01  2.000E+04  4.677E-02
   1   14   21     1    21    1.1880E+05  2.1154E+00   1.1880E+05  0.000E+00  0.000E+00  0.000E+00  3.88763E+01  1.604E-01  2.000E+01  2.000E+04  1.058E-04
   1   14   22     1    22    1.1880E+05  6.3189E+03   1.1248E+05  0.000E+00  0.000E+00  0.000E+00  3.83965E+01  1.578E-01  2.000E+01  2.000E+04  3.159E-01
   1    9   30     2     1    5.0000E+04  1.2887E+01   4.9987E+04  0.000E+00  0.000E+00  0.000E+00  4.02409E+01  1.159E-01  2.000E+01  2.000E+04  6.444E-04
   1    9   29     2     2    4.9987E+04 -2.1696E+02   5.0204E+04  0.000E+00  0.000E+00  0.000E+00  3.99910E+01  1.160E-01  2.000E+01  2.000E+04 -1.085E-02
   1    9   28     2     3    5.0204E+04 -2.8422E+02   5.0488E+04  0.000E+00  0.000E+00  0.000E+00  3.97413E+01  1.163E-01  2.000E+01  2.000E+04 -1.421E-02
   1    9   27     2     4    5.0488E+04 -2.8205E+02   5.0770E+04  0.000E+00  0.000E+00  0.000E+00  3.94917E+01  1.167E-01  2.000E+01  2.000E+04 -1.410E-02
   1   10   26     2     5    5.0770E+04  7.0297E+02   5.0067E+04  0.000E+00  0.000E+00  0.000E+00  3.92414E+01  1.164E-01  2.000E+01  2.000E+04  3.515E-02
   1   11   25     2     6    5.0067E+04  2.0196E+03   4.8048E+04  0.000E+00  0.000E+00  0.000E+00  3.89896E+01  1.146E-01  2.000E+01  2.000E+04  1.010E-01
   1   12   24     2     7    4.8048E+04  3.4986E+03   4.4549E+04  0.000E+00  0.000E+00  0.000E+00  3.87356E+01  1.106E-01  2.000E+01  2.000E+04  1.749E-01
   1   13   23     2     8    4.4549E+04  1.0545E+03   4.3495E+04  0.000E+00  0.000E+00  0.000E+00  3.84823E+01  1.073E-01  2.000E+01  2.000E+04  5.272E-02
   1   14   22     2     9    4.3495E+04  2.9769E+03   4.0518E+04  0.000E+00  0.000E+00  0.000E+00  3.82294E+01  1.044E-01  2.000E+01  2.000E+04  1.488E-01
   1   14   22     3     1    1.5300E+05 -7.3564E+03   1.6036E+05  0.000E+00  0.000E+00  0.000E+00  3.77127E+01  1.571E-01  2.000E+01  2.000E+04 -3.678E-01
   1   15   23     3     2    1.6036E+05 -4.8318E+02   1.6084E+05  0.000E+00  0.000E+00  0.000E+00  3.68262E+01  1.595E-01  2.000E+01  2.000E+04 -2.416E-02
   1   15   24     3     3    1.6084E+05 -2.2372E+02   1.6106E+05  0.000E+00  0.000E+00  0.000E+00  3.59375E+01  1.597E-01  2.000E+01  2.000E+04 -1.119E-02
   1   15   25     3     4    1.6106E+05 -2.1395E+02   1.6128E+05  0.000E+00  0.000E+00  0.000E+00  3.50487E+01  1.598E-01  2.000E+01  2.000E+04 -1.070E-02
   1   15   26     3     5    1.6128E+05 -2.5789E+02   1.6154E+05  0.000E+00  0.000E+00  0.000E+00  3.41600E+01  1.600E-01  2.000E+01  2.000E+04 -1.289E-02
   1   16   27     3     6    1.6154E+05 -2.8535E+02   1.6182E+05  0.000E+00  0.000E+00  0.000E+00  3.32712E+01  1.601E-01  2.000E+01  2.000E+04 -1.427E-02
   1   17   28     3     7    1.6182E+05 -1.3578E+03   1.6318E+05  0.000E+00  0.000E+00  0.000E+00  3.23828E+01  1.606E-01  2.000E+01  2.000E+04 -6.789E-02
   1   18   29     3     8    1.6318E+05 -2.7562E+03   1.6594E+05  0.000E+00  0.000E+00  0.000E+00  3.14952E+01  1.618E-01  2.000E+01  2.000E+04 -1.378E-01
   1   18   30     3     9    1.6594E+05 -3.0428E+03   1.6898E+05  0.000E+00  0.000E+00  0.000E+00  3.06080E+01  1.635E-01  2.000E+01  2.000E+04 -1.521E-01



1
              HEAD IN LAYER   1 AT END OF TIME STEP   1 IN STRESS PERIOD    7
  ---------------------------------------------------------------------------

          1      2      3      4      5      6      7      8      9     10
         11     12     13     14     15     16     17     18     19     20
         21     22     23     24     25     26     27     28     29     30
 .........................................................................
   1  ****** ****** ****** ****** ****** ****** ****** ****** ****** ******
      ****** ****** ****** ****** ****** ****** ****** ****** ****** ******
      ****** ****** ****** ****** ****** ****** ****** ****** ****** ******
   2  ****** ****** ****** ****** ****** ****** ****** ****** ****** ******
      ****** ****** ****** ****** ****** ****** ****** ****** ****** ******
      ****** ****** ****** ****** ****** ****** ****** ****** ****** ******
   3  ****** ****** ****** ****** ****** ****** ****** ****** ****** ******
      ****** ****** ****** ****** ****** ****** ****** ****** ****** ******
      ****** ****** ****** ****** ****** ****** ****** ****** ****** ******
   4  ****** ****** ****** ****** ****** ****** ****** ****** ****** ******
      ****** ****** ****** ****** ****** ****** ****** ****** ****** ******
      ****** ****** ****** ****** ****** ****** ****** ****** ****** ******
   5  ****** ****** ****** ****** ****** ****** ****** ****** ****** ******
      ****** ****** ****** ****** ****** ****** ****** ****** ****** ******
      ****** ****** ****** ****** ****** ****** ****** ****** ****** ******
   6  ****** ****** ****** ****** ****** ****** ****** ****** ****** ******
      ****** ****** ****** ****** ****** ****** ****** ****** ****** ******
      ****** ****** ****** ****** ****** ****** ****** ****** ****** ******
   7  ****** ****** ****** ****** ****** ****** ****** ****** ****** ******
      ****** ****** ****** ****** ****** ****** ****** ****** ****** ******
      ****** ****** ****** ****** ****** ****** ****** ****** ****** ******
   8  ****** ****** ****** ****** ****** ****** ****** ****** ****** ******
      ****** ****** ****** ****** ****** ****** ****** ****** ****** ******
      ****** ****** ****** ****** ****** ****** ****** ****** ****** ******
   9  ****** ****** ****** ****** ****** ****** ****** ****** ****** ******
      ****** ****** ****** ****** ****** ****** ****** ****** ****** ******
      ****** ****** ****** ****** ****** ****** ****** ****** ****** ******
  10  ****** ****** ****** ****** ****** ****** ****** ****** ****** ******
      ****** ****** ****** ****** ****** ****** ****** ****** ****** ******
      ****** ****** ****** ****** ****** ****** ****** ****** ****** ******
  11  ****** ****** ****** ****** ****** ****** ****** ****** ****** ******
      ****** ****** ****** ****** ****** ****** ****** ****** ****** ******
      ****** ****** ****** ****** ****** ****** ****** ****** ****** ******
  12  ****** ****** ****** ****** ****** ****** ****** ****** ****** ******
      ****** ****** ****** ****** ****** ****** ****** ****** ****** ******
      ****** ****** ****** ****** ****** ****** ****** ****** ****** ******
  13  ****** ****** ****** ****** ****** ****** ****** ****** ****** ******
      ****** ****** ****** ****** ****** ****** ****** ****** ****** ******
      ****** ****** ****** ****** ****** ****** ****** ****** ****** ******
  14  ****** ****** ****** ****** ****** ****** ****** ****** ****** ******
      ****** ****** ****** ****** ****** ****** ****** ****** ****** ******
      ****** ****** ****** ****** ****** ****** ****** ****** ****** ******
  15  ****** ****** ****** ****** ****** ****** ****** ****** ****** ******
      ****** ****** ****** ****** ****** ****** ****** ****** ****** ******
      ****** ****** ****** ****** ****** ****** ****** ****** ****** ******
  16  ****** ****** ****** ****** ****** ****** ****** ****** ****** ******
      ****** ****** ****** ****** ****** ****** ****** ****** ****** ******
      ****** ****** ****** ****** ****** ****** ****** ****** ****** ******
  17  ****** ****** ****** ****** ****** ****** ****** ****** ****** ******
      ****** ****** ****** ****** ****** ****** ****** ****** ****** ******
      ****** ****** ****** ****** ****** ****** ****** ****** ****** ******
  18  ****** ****** ****** ****** ****** ****** ****** ****** ****** ******
      ****** ****** ****** ****** ****** ****** ****** ****** ****** ******
      ****** ****** ****** ****** ****** ****** ****** ****** ****** ******
  19  ****** ****** ****** ****** ****** ****** ****** ****** ****** ******
      ****** ****** ****** ****** ****** ****** ****** ****** ****** ******
      ****** ****** ****** ****** ****** ****** ****** ****** ****** ******
  20  ****** ****** ****** ****** ****** ****** ****** ****** ****** ******
      ****** ****** ****** ****** ****** ****** ****** ****** ****** ******
      ****** ****** ****** ****** ****** ****** ****** ****** ****** ******
  21  ****** ****** ****** ****** ****** ****** ****** ****** ****** ******
      ****** ****** ****** ****** ****** ****** ****** ****** ****** ******
      ****** ****** ****** ****** ****** ****** ****** ****** ****** ******
  22  ****** ****** ****** ****** ****** ****** ****** ****** ****** ******
      ****** ****** ****** ****** ****** ****** ****** ****** ****** ******
      ****** ****** ****** ****** ****** ****** ****** ****** ****** ******
  23  ****** ****** ****** ****** ****** ****** ****** ****** ****** ******
      ****** ****** ****** ****** ****** ****** ****** ****** ****** ******
      ****** ****** ****** ****** ****** ****** ****** ****** ****** ******
  24  ****** ****** ****** ****** ****** ****** ****** ****** ****** ******
      ****** ****** ****** ****** ****** ****** ****** ****** ****** ******
      ****** ****** ****** ****** ****** ****** ****** ****** ****** ******
  25  ****** ****** ****** ****** ****** ****** ****** ****** ****** ******
      ****** ****** ****** ****** ****** ****** ****** ****** ****** ******
      ****** ****** ****** ****** ****** ****** ****** ****** ****** ******

 HEAD WILL BE SAVED ON UNIT   51 AT END OF TIME STEP    1, STRESS PERIOD    7
1
  VOLUMETRIC BUDGET FOR ENTIRE MODEL AT END OF TIME STEP    1, STRESS PERIOD   7
  ------------------------------------------------------------------------------

     CUMULATIVE VOLUMES      L**3       RATES FOR THIS TIME STEP      L**3/T
     ------------------                 ------------------------

           IN:                                      IN:
           ---                                      ---
             STORAGE =    33775726.9549               STORAGE =       22723.3316
       CONSTANT HEAD =    16721519.3654         CONSTANT HEAD =       34368.1193
               WELLS =           0.0000                 WELLS =           0.0000
            RECHARGE =    15097200.0000              RECHARGE =           0.0000
      STREAM LEAKAGE =     8504732.4825        STREAM LEAKAGE =       17930.0187

            TOTAL IN =    74099178.8029              TOTAL IN =       75021.4696

          OUT:                                     OUT:
          ----                                     ----
             STORAGE =      755903.9915               STORAGE =           0.0000
       CONSTANT HEAD =           0.0000         CONSTANT HEAD =           0.0000
               WELLS =    24354178.5047                 WELLS =       38112.9554
            RECHARGE =           0.0000              RECHARGE =           0.0000
      STREAM LEAKAGE =    48989098.7814        STREAM LEAKAGE =       36908.5197

           TOTAL OUT =    74099181.2777             TOTAL OUT =       75021.4751

            IN - OUT =          -2.4748              IN - OUT =      -5.4847E-03

 PERCENT DISCREPANCY =          -0.00     PERCENT DISCREPANCY =          -0.00






         TIME SUMMARY AT END OF TIME STEP    1 IN STRESS PERIOD    7
                    SECONDS     MINUTES      HOURS       DAYS        YEARS
                    -----------------------------------------------------------
   TIME STEP LENGTH 7.86240E+06 1.31040E+05  2184.0      91.000     0.24914    
 STRESS PERIOD TIME 7.86240E+06 1.31040E+05  2184.0      91.000     0.24914    
         TOTAL TIME 5.52096E+07 9.20160E+05  15336.      639.00      1.7495    
1
1
                            STRESS PERIOD NO.    8, LENGTH =   91.00000    
                            -----------------------------------------------

                              NUMBER OF TIME STEPS =     1

                               MULTIPLIER FOR DELT =     1.500

                            INITIAL TIME STEP SIZE =   91.00000    

 WELL NO.  LAYER   ROW   COL   STRESS RATE         
 --------------------------------------------------
      1      1     11     23      -9982.    
      2      1     13     22      -7684.    
      3      1      6     18     -0.1279E+05
      4      1      7     23      -7655.    

      4 WELLS

                 RECHARGE =  1.000000E-03

 REUSING STREAM SEGMENT DATA FROM LAST STRESS PERIOD
 
 SOLVING FOR HEAD 


     6 CALLS TO PCG ROUTINE FOR TIME STEP   1 IN STRESS PERIOD    8
    22 TOTAL ITERATIONS

 OUTPUT CONTROL FOR STRESS PERIOD    8   TIME STEP    1
    SAVE BUDGET
    SAVE HEAD FOR ALL LAYERS
    PRINT HEAD FOR ALL LAYERS
 UBDSV2 SAVING "STREAMFLOW OUT  " ON UNIT  50 AT TIME STEP  1, STRESS PERIOD   8



 STREAM LISTING     PERIOD      8   STEP        1

 LAYER ROW COL. STREAM  RCH.  FLOW INTO     FLOW TO   FLOW OUT OF   OVRLND.     DIRECT     STREAM       STREAM     STREAM     STREAM   STREAMBED  STREAMBED
                SEG.NO.  NO.  STRM. RCH.    AQUIFER    STRM. RCH.    RUNOFF     PRECIP       ET          HEAD       DEPTH      WIDTH   CONDCTNC.   GRADIENT

   1   13    1     1     1    1.0000E+05 -1.7223E+03   1.0172E+05  0.000E+00  0.000E+00  0.000E+00  4.84068E+01  1.454E-01  2.000E+01  2.000E+04 -8.612E-02
   1   13    2     1     2    1.0172E+05 -2.6776E+03   1.0440E+05  0.000E+00  0.000E+00  0.000E+00  4.79314E+01  1.473E-01  2.000E+01  2.000E+04 -1.339E-01
   1   14    3     1     3    1.0440E+05 -4.6298E+02   1.0486E+05  0.000E+00  0.000E+00  0.000E+00  4.74555E+01  1.486E-01  2.000E+01  2.000E+04 -2.315E-02
   1   15    4     1     4    1.0486E+05 -4.4029E+02   1.0530E+05  0.000E+00  0.000E+00  0.000E+00  4.69786E+01  1.490E-01  2.000E+01  2.000E+04 -2.201E-02
   1   16    5     1     5    1.0530E+05 -1.6703E+03   1.0697E+05  0.000E+00  0.000E+00  0.000E+00  4.65022E+01  1.499E-01  2.000E+01  2.000E+04 -8.352E-02
   1   16    6     1     6    1.0697E+05 -1.0611E+03   1.0803E+05  0.000E+00  0.000E+00  0.000E+00  4.60261E+01  1.511E-01  2.000E+01  2.000E+04 -5.305E-02
   1   16    7     1     7    1.0803E+05 -1.0449E+03   1.0908E+05  0.000E+00  0.000E+00  0.000E+00  4.55497E+01  1.520E-01  2.000E+01  2.000E+04 -5.225E-02
   1   16    8     1     8    1.0908E+05 -1.0441E+03   1.1012E+05  0.000E+00  0.000E+00  0.000E+00  4.50733E+01  1.528E-01  2.000E+01  2.000E+04 -5.221E-02
   1   16    9     1     9    1.1012E+05 -1.0408E+03   1.1116E+05  0.000E+00  0.000E+00  0.000E+00  4.45969E+01  1.537E-01  2.000E+01  2.000E+04 -5.204E-02
   1   16   10     1    10    1.1116E+05 -1.0357E+03   1.1220E+05  0.000E+00  0.000E+00  0.000E+00  4.41205E+01  1.546E-01  2.000E+01  2.000E+04 -5.179E-02
   1   16   11     1    11    1.1220E+05 -1.0491E+03   1.1325E+05  0.000E+00  0.000E+00  0.000E+00  4.36441E+01  1.554E-01  2.000E+01  2.000E+04 -5.245E-02
   1   16   12     1    12    1.1325E+05 -1.7514E+03   1.1500E+05  0.000E+00  0.000E+00  0.000E+00  4.31679E+01  1.566E-01  2.000E+01  2.000E+04 -8.757E-02
   1   15   13     1    13    1.1500E+05 -1.4863E+03   1.1649E+05  0.000E+00  0.000E+00  0.000E+00  4.26920E+01  1.579E-01  2.000E+01  2.000E+04 -7.432E-02
   1   14   14     1    14    1.1649E+05 -1.5509E+03   1.1804E+05  0.000E+00  0.000E+00  0.000E+00  4.22160E+01  1.592E-01  2.000E+01  2.000E+04 -7.754E-02
   1   13   15     1    15    1.1804E+05 -1.5423E+03   1.1958E+05  0.000E+00  0.000E+00  0.000E+00  4.17400E+01  1.604E-01  2.000E+01  2.000E+04 -7.711E-02
   1   12   16     1    16    1.1958E+05 -1.3622E+03   1.2094E+05  0.000E+00  0.000E+00  0.000E+00  4.12639E+01  1.616E-01  2.000E+01  2.000E+04 -6.811E-02
   1   12   17     1    17    1.2094E+05 -7.2681E+02   1.2167E+05  0.000E+00  0.000E+00  0.000E+00  4.07874E+01  1.624E-01  2.000E+01  2.000E+04 -3.634E-02
   1   12   18     1    18    1.2167E+05 -4.7983E+02   1.2215E+05  0.000E+00  0.000E+00  0.000E+00  4.03106E+01  1.629E-01  2.000E+01  2.000E+04 -2.399E-02
   1   12   19     1    19    1.2215E+05  2.6705E+02   1.2188E+05  0.000E+00  0.000E+00  0.000E+00  3.98334E+01  1.630E-01  2.000E+01  2.000E+04  1.335E-02
   1   13   20     1    20    1.2188E+05  7.5946E+02   1.2112E+05  0.000E+00  0.000E+00  0.000E+00  3.93558E+01  1.626E-01  2.000E+01  2.000E+04  3.797E-02
   1   14   21     1    21    1.2112E+05 -1.5791E+02   1.2128E+05  0.000E+00  0.000E+00  0.000E+00  3.88783E+01  1.623E-01  2.000E+01  2.000E+04 -7.895E-03
   1   14   22     1    22    1.2128E+05  6.2694E+03   1.1501E+05  0.000E+00  0.000E+00  0.000E+00  3.83985E+01  1.599E-01  2.000E+01  2.000E+04  3.135E-01
   1    9   30     2     1    5.0000E+04 -1.4734E+02   5.0147E+04  0.000E+00  0.000E+00  0.000E+00  4.02410E+01  1.160E-01  2.000E+01  2.000E+04 -7.367E-03
   1    9   29     2     2    5.0147E+04 -3.7421E+02   5.0522E+04  0.000E+00  0.000E+00  0.000E+00  3.99913E+01  1.163E-01  2.000E+01  2.000E+04 -1.871E-02
   1    9   28     2     3    5.0522E+04 -4.3542E+02   5.0957E+04  0.000E+00  0.000E+00  0.000E+00  3.97419E+01  1.169E-01  2.000E+01  2.000E+04 -2.177E-02
   1    9   27     2     4    5.0957E+04 -4.5291E+02   5.1410E+04  0.000E+00  0.000E+00  0.000E+00  3.94925E+01  1.175E-01  2.000E+01  2.000E+04 -2.265E-02
   1   10   26     2     5    5.1410E+04  5.0345E+02   5.0906E+04  0.000E+00  0.000E+00  0.000E+00  3.92425E+01  1.175E-01  2.000E+01  2.000E+04  2.517E-02
   1   11   25     2     6    5.0906E+04  1.8210E+03   4.9085E+04  0.000E+00  0.000E+00  0.000E+00  3.89909E+01  1.159E-01  2.000E+01  2.000E+04  9.105E-02
   1   12   24     2     7    4.9085E+04  3.3186E+03   4.5767E+04  0.000E+00  0.000E+00  0.000E+00  3.87372E+01  1.122E-01  2.000E+01  2.000E+04  1.659E-01
   1   13   23     2     8    4.5767E+04  9.8097E+02   4.4786E+04  0.000E+00  0.000E+00  0.000E+00  3.84842E+01  1.092E-01  2.000E+01  2.000E+04  4.905E-02
   1   14   22     2     9    4.4786E+04  2.9256E+03   4.1860E+04  0.000E+00  0.000E+00  0.000E+00  3.82313E+01  1.063E-01  2.000E+01  2.000E+04  1.463E-01
   1   14   22     3     1    1.5687E+05 -7.4001E+03   1.6427E+05  0.000E+00  0.000E+00  0.000E+00  3.77150E+01  1.595E-01  2.000E+01  2.000E+04 -3.700E-01
   1   15   23     3     2    1.6427E+05 -5.4806E+02   1.6482E+05  0.000E+00  0.000E+00  0.000E+00  3.68285E+01  1.618E-01  2.000E+01  2.000E+04 -2.740E-02
   1   15   24     3     3    1.6482E+05 -2.8461E+02   1.6510E+05  0.000E+00  0.000E+00  0.000E+00  3.59399E+01  1.621E-01  2.000E+01  2.000E+04 -1.423E-02
   1   15   25     3     4    1.6510E+05 -2.7652E+02   1.6538E+05  0.000E+00  0.000E+00  0.000E+00  3.50511E+01  1.622E-01  2.000E+01  2.000E+04 -1.383E-02
   1   15   26     3     5    1.6538E+05 -3.3275E+02   1.6571E+05  0.000E+00  0.000E+00  0.000E+00  3.41624E+01  1.624E-01  2.000E+01  2.000E+04 -1.664E-02
   1   16   27     3     6    1.6571E+05 -3.6757E+02   1.6608E+05  0.000E+00  0.000E+00  0.000E+00  3.32737E+01  1.626E-01  2.000E+01  2.000E+04 -1.838E-02
   1   17   28     3     7    1.6608E+05 -1.5629E+03   1.6764E+05  0.000E+00  0.000E+00  0.000E+00  3.23854E+01  1.632E-01  2.000E+01  2.000E+04 -7.815E-02
   1   18   29     3     8    1.6764E+05 -2.9248E+03   1.7057E+05  0.000E+00  0.000E+00  0.000E+00  3.14978E+01  1.645E-01  2.000E+01  2.000E+04 -1.462E-01
   1   18   30     3     9    1.7057E+05 -3.1914E+03   1.7376E+05  0.000E+00  0.000E+00  0.000E+00  3.06107E+01  1.663E-01  2.000E+01  2.000E+04 -1.596E-01



1
              HEAD IN LAYER   1 AT END OF TIME STEP   1 IN STRESS PERIOD    8
  ---------------------------------------------------------------------------

          1      2      3      4      5      6      7      8      9     10
         11     12     13     14     15     16     17     18     19     20
         21     22     23     24     25     26     27     28     29     30
 .........................................................................
   1  ****** ****** ****** ****** ****** ****** ****** ****** ****** ******
      ****** ****** ****** ****** ****** ****** ****** ****** ****** ******
      ****** ****** ****** ****** ****** ****** ****** ****** ****** ******
   2  ****** ****** ****** ****** ****** ****** ****** ****** ****** ******
      ****** ****** ****** ****** ****** ****** ****** ****** ****** ******
      ****** ****** ****** ****** ****** ****** ****** ****** ****** ******
   3  ****** ****** ****** ****** ****** ****** ****** ****** ****** ******
      ****** ****** ****** ****** ****** ****** ****** ****** ****** ******
      ****** ****** ****** ****** ****** ****** ****** ****** ****** ******
   4  ****** ****** ****** ****** ****** ****** ****** ****** ****** ******
      ****** ****** ****** ****** ****** ****** ****** ****** ****** ******
      ****** ****** ****** ****** ****** ****** ****** ****** ****** ******
   5  ****** ****** ****** ****** ****** ****** ****** ****** ****** ******
      ****** ****** ****** ****** ****** ****** ****** ****** ****** ******
      ****** ****** ****** ****** ****** ****** ****** ****** ****** ******
   6  ****** ****** ****** ****** ****** ****** ****** ****** ****** ******
      ****** ****** ****** ****** ****** ****** ****** ****** ****** ******
      ****** ****** ****** ****** ****** ****** ****** ****** ****** ******
   7  ****** ****** ****** ****** ****** ****** ****** ****** ****** ******
      ****** ****** ****** ****** ****** ****** ****** ****** ****** ******
      ****** ****** ****** ****** ****** ****** ****** ****** ****** ******
   8  ****** ****** ****** ****** ****** ****** ****** ****** ****** ******
      ****** ****** ****** ****** ****** ****** ****** ****** ****** ******
      ****** ****** ****** ****** ****** ****** ****** ****** ****** ******
   9  ****** ****** ****** ****** ****** ****** ****** ****** ****** ******
      ****** ****** ****** ****** ****** ****** ****** ****** ****** ******
      ****** ****** ****** ****** ****** ****** ****** ****** ****** ******
  10  ****** ****** ****** ****** ****** ****** ****** ****** ****** ******
      ****** ****** ****** ****** ****** ****** ****** ****** ****** ******
      ****** ****** ****** ****** ****** ****** ****** ****** ****** ******
  11  ****** ****** ****** ****** ****** ****** ****** ****** ****** ******
      ****** ****** ****** ****** ****** ****** ****** ****** ****** ******
      ****** ****** ****** ****** ****** ****** ****** ****** ****** ******
  12  ****** ****** ****** ****** ****** ****** ****** ****** ****** ******
      ****** ****** ****** ****** ****** ****** ****** ****** ****** ******
      ****** ****** ****** ****** ****** ****** ****** ****** ****** ******
  13  ****** ****** ****** ****** ****** ****** ****** ****** ****** ******
      ****** ****** ****** ****** ****** ****** ****** ****** ****** ******
      ****** ****** ****** ****** ****** ****** ****** ****** ****** ******
  14  ****** ****** ****** ****** ****** ****** ****** ****** ****** ******
      ****** ****** ****** ****** ****** ****** ****** ****** ****** ******
      ****** ****** ****** ****** ****** ****** ****** ****** ****** ******
  15  ****** ****** ****** ****** ****** ****** ****** ****** ****** ******
      ****** ****** ****** ****** ****** ****** ****** ****** ****** ******
      ****** ****** ****** ****** ****** ****** ****** ****** ****** ******
  16  ****** ****** ****** ****** ****** ****** ****** ****** ****** ******
      ****** ****** ****** ****** ****** ****** ****** ****** ****** ******
      ****** ****** ****** ****** ****** ****** ****** ****** ****** ******
  17  ****** ****** ****** ****** ****** ****** ****** ****** ****** ******
      ****** ****** ****** ****** ****** ****** ****** ****** ****** ******
      ****** ****** ****** ****** ****** ****** ****** ****** ****** ******
  18  ****** ****** ****** ****** ****** ****** ****** ****** ****** ******
      ****** ****** ****** ****** ****** ****** ****** ****** ****** ******
      ****** ****** ****** ****** ****** ****** ****** ****** ****** ******
  19  ****** ****** ****** ****** ****** ****** ****** ****** ****** ******
      ****** ****** ****** ****** ****** ****** ****** ****** ****** ******
      ****** ****** ****** ****** ****** ****** ****** ****** ****** ******
  20  ****** ****** ****** ****** ****** ****** ****** ****** ****** ******
      ****** ****** ****** ****** ****** ****** ****** ****** ****** ******
      ****** ****** ****** ****** ****** ****** ****** ****** ****** ******
  21  ****** ****** ****** ****** ****** ****** ****** ****** ****** ******
      ****** ****** ****** ****** ****** ****** ****** ****** ****** ******
      ****** ****** ****** ****** ****** ****** ****** ****** ****** ******
  22  ****** ****** ****** ****** ****** ****** ****** ****** ****** ******
      ****** ****** ****** ****** ****** ****** ****** ****** ****** ******
      ****** ****** ****** ****** ****** ****** ****** ****** ****** ******
  23  ****** ****** ****** ****** ****** ****** ****** ****** ****** ******
      ****** ****** ****** ****** ****** ****** ****** ****** ****** ******
      ****** ****** ****** ****** ****** ****** ****** ****** ****** ******
  24  ****** ****** ****** ****** ****** ****** ****** ****** ****** ******
      ****** ****** ****** ****** ****** ****** ****** ****** ****** ******
      ****** ****** ****** ****** ****** ****** ****** ****** ****** ******
  25  ****** ****** ****** ****** ****** ****** ****** ****** ****** ******
      ****** ****** ****** ****** ****** ****** ****** ****** ****** ******
      ****** ****** ****** ****** ****** ****** ****** ****** ****** ******

 HEAD WILL BE SAVED ON UNIT   51 AT END OF TIME STEP    1, STRESS PERIOD    8
1
  VOLUMETRIC BUDGET FOR ENTIRE MODEL AT END OF TIME STEP    1, STRESS PERIOD   8
  ------------------------------------------------------------------------------

     CUMULATIVE VOLUMES      L**3       RATES FOR THIS TIME STEP      L**3/T
     ------------------                 ------------------------

           IN:                                      IN:
           ---                                      ---
             STORAGE =    33933208.6742               STORAGE =        1730.5683
       CONSTANT HEAD =    19824917.0647         CONSTANT HEAD =       34103.2714
               WELLS =           0.0000                 WELLS =           0.0000
            RECHARGE =    17608800.0000              RECHARGE =       27600.0000
      STREAM LEAKAGE =    10037681.1861        STREAM LEAKAGE =       16845.5901

            TOTAL IN =    81404606.9250              TOTAL IN =       80279.4299

          OUT:                                     OUT:
          ----                                     ----
             STORAGE =      897942.0243               STORAGE =        1560.8575
       CONSTANT HEAD =           0.0000         CONSTANT HEAD =           0.0000
               WELLS =    27822457.4467                 WELLS =       38112.9554
            RECHARGE =           0.0000              RECHARGE =           0.0000
      STREAM LEAKAGE =    52684209.2048        STREAM LEAKAGE =       40605.6090

           TOTAL OUT =    81404608.6758             TOTAL OUT =       80279.4220

            IN - OUT =          -1.7508              IN - OUT =       7.9556E-03

 PERCENT DISCREPANCY =          -0.00     PERCENT DISCREPANCY =           0.00






         TIME SUMMARY AT END OF TIME STEP    1 IN STRESS PERIOD    8
                    SECONDS     MINUTES      HOURS       DAYS        YEARS
                    -----------------------------------------------------------
   TIME STEP LENGTH 7.86240E+06 1.31040E+05  2184.0      91.000     0.24914    
 STRESS PERIOD TIME 7.86240E+06 1.31040E+05  2184.0      91.000     0.24914    
         TOTAL TIME 6.30720E+07 1.05120E+06  17520.      730.00      1.9986    
1
1
                            STRESS PERIOD NO.    9, LENGTH =   92.00000    
                            -----------------------------------------------

                              NUMBER OF TIME STEPS =     1

                               MULTIPLIER FOR DELT =     1.500

                            INITIAL TIME STEP SIZE =   92.00000    

 WELL NO.  LAYER   ROW   COL   STRESS RATE         
 --------------------------------------------------
      1      1     11     23      -9982.    
      2      1     13     22      -7684.    
      3      1      6     18     -0.1279E+05
      4      1      7     23      -7655.    

      4 WELLS

                 RECHARGE =  5.000000E-04

 REUSING STREAM SEGMENT DATA FROM LAST STRESS PERIOD
 
 SOLVING FOR HEAD 


     6 CALLS TO PCG ROUTINE FOR TIME STEP   1 IN STRESS PERIOD    9
    23 TOTAL ITERATIONS

 OUTPUT CONTROL FOR STRESS PERIOD    9   TIME STEP    1
    SAVE BUDGET
    SAVE HEAD FOR ALL LAYERS
    PRINT HEAD FOR ALL LAYERS
 UBDSV2 SAVING "STREAMFLOW OUT  " ON UNIT  50 AT TIME STEP  1, STRESS PERIOD   9



 STREAM LISTING     PERIOD      9   STEP        1

 LAYER ROW COL. STREAM  RCH.  FLOW INTO     FLOW TO   FLOW OUT OF   OVRLND.     DIRECT     STREAM       STREAM     STREAM     STREAM   STREAMBED  STREAMBED
                SEG.NO.  NO.  STRM. RCH.    AQUIFER    STRM. RCH.    RUNOFF     PRECIP       ET          HEAD       DEPTH      WIDTH   CONDCTNC.   GRADIENT

   1   13    1     1     1    1.0000E+05 -1.5021E+03   1.0150E+05  0.000E+00  0.000E+00  0.000E+00  4.84067E+01  1.453E-01  2.000E+01  2.000E+04 -7.510E-02
   1   13    2     1     2    1.0150E+05 -2.4280E+03   1.0393E+05  0.000E+00  0.000E+00  0.000E+00  4.79311E+01  1.470E-01  2.000E+01  2.000E+04 -1.214E-01
   1   14    3     1     3    1.0393E+05 -3.9127E+02   1.0432E+05  0.000E+00  0.000E+00  0.000E+00  4.74550E+01  1.482E-01  2.000E+01  2.000E+04 -1.956E-02
   1   15    4     1     4    1.0432E+05 -3.6781E+02   1.0469E+05  0.000E+00  0.000E+00  0.000E+00  4.69781E+01  1.485E-01  2.000E+01  2.000E+04 -1.839E-02
   1   16    5     1     5    1.0469E+05 -1.4782E+03   1.0617E+05  0.000E+00  0.000E+00  0.000E+00  4.65016E+01  1.493E-01  2.000E+01  2.000E+04 -7.391E-02
   1   16    6     1     6    1.0617E+05 -9.4090E+02   1.0711E+05  0.000E+00  0.000E+00  0.000E+00  4.60253E+01  1.503E-01  2.000E+01  2.000E+04 -4.704E-02
   1   16    7     1     7    1.0711E+05 -9.2835E+02   1.0804E+05  0.000E+00  0.000E+00  0.000E+00  4.55489E+01  1.511E-01  2.000E+01  2.000E+04 -4.642E-02
   1   16    8     1     8    1.0804E+05 -9.2908E+02   1.0897E+05  0.000E+00  0.000E+00  0.000E+00  4.50724E+01  1.519E-01  2.000E+01  2.000E+04 -4.645E-02
   1   16    9     1     9    1.0897E+05 -9.2754E+02   1.0989E+05  0.000E+00  0.000E+00  0.000E+00  4.45959E+01  1.527E-01  2.000E+01  2.000E+04 -4.638E-02
   1   16   10     1    10    1.0989E+05 -9.2465E+02   1.1082E+05  0.000E+00  0.000E+00  0.000E+00  4.41194E+01  1.535E-01  2.000E+01  2.000E+04 -4.623E-02
   1   16   11     1    11    1.1082E+05 -9.3935E+02   1.1176E+05  0.000E+00  0.000E+00  0.000E+00  4.36429E+01  1.542E-01  2.000E+01  2.000E+04 -4.697E-02
   1   16   12     1    12    1.1176E+05 -1.5634E+03   1.1332E+05  0.000E+00  0.000E+00  0.000E+00  4.31666E+01  1.553E-01  2.000E+01  2.000E+04 -7.817E-02
   1   15   13     1    13    1.1332E+05 -1.2750E+03   1.1460E+05  0.000E+00  0.000E+00  0.000E+00  4.26905E+01  1.564E-01  2.000E+01  2.000E+04 -6.375E-02
   1   14   14     1    14    1.1460E+05 -1.3246E+03   1.1592E+05  0.000E+00  0.000E+00  0.000E+00  4.22143E+01  1.575E-01  2.000E+01  2.000E+04 -6.623E-02
   1   13   15     1    15    1.1592E+05 -1.3088E+03   1.1723E+05  0.000E+00  0.000E+00  0.000E+00  4.17381E+01  1.586E-01  2.000E+01  2.000E+04 -6.544E-02
   1   12   16     1    16    1.1723E+05 -1.1181E+03   1.1835E+05  0.000E+00  0.000E+00  0.000E+00  4.12619E+01  1.596E-01  2.000E+01  2.000E+04 -5.590E-02
   1   12   17     1    17    1.1835E+05 -5.6049E+02   1.1891E+05  0.000E+00  0.000E+00  0.000E+00  4.07853E+01  1.603E-01  2.000E+01  2.000E+04 -2.802E-02
   1   12   18     1    18    1.1891E+05 -3.2153E+02   1.1923E+05  0.000E+00  0.000E+00  0.000E+00  4.03083E+01  1.606E-01  2.000E+01  2.000E+04 -1.608E-02
   1   12   19     1    19    1.1923E+05  4.5795E+02   1.1877E+05  0.000E+00  0.000E+00  0.000E+00  3.98310E+01  1.606E-01  2.000E+01  2.000E+04  2.290E-02
   1   13   20     1    20    1.1877E+05  9.3402E+02   1.1784E+05  0.000E+00  0.000E+00  0.000E+00  3.93532E+01  1.600E-01  2.000E+01  2.000E+04  4.670E-02
   1   14   21     1    21    1.1784E+05  1.2670E+01   1.1782E+05  0.000E+00  0.000E+00  0.000E+00  3.88755E+01  1.596E-01  2.000E+01  2.000E+04  6.335E-04
   1   14   22     1    22    1.1782E+05  6.3088E+03   1.1152E+05  0.000E+00  0.000E+00  0.000E+00  3.83957E+01  1.570E-01  2.000E+01  2.000E+04  3.154E-01
   1    9   30     2     1    5.0000E+04 -2.2538E+01   5.0023E+04  0.000E+00  0.000E+00  0.000E+00  4.02409E+01  1.159E-01  2.000E+01  2.000E+04 -1.127E-03
   1    9   29     2     2    5.0023E+04 -2.4909E+02   5.0272E+04  0.000E+00  0.000E+00  0.000E+00  3.99911E+01  1.161E-01  2.000E+01  2.000E+04 -1.245E-02
   1    9   28     2     3    5.0272E+04 -3.0815E+02   5.0580E+04  0.000E+00  0.000E+00  0.000E+00  3.97415E+01  1.165E-01  2.000E+01  2.000E+04 -1.541E-02
   1    9   27     2     4    5.0580E+04 -2.7277E+02   5.0853E+04  0.000E+00  0.000E+00  0.000E+00  3.94919E+01  1.169E-01  2.000E+01  2.000E+04 -1.364E-02
   1   10   26     2     5    5.0853E+04  6.7996E+02   5.0173E+04  0.000E+00  0.000E+00  0.000E+00  3.92416E+01  1.166E-01  2.000E+01  2.000E+04  3.400E-02
   1   11   25     2     6    5.0173E+04  1.9898E+03   4.8183E+04  0.000E+00  0.000E+00  0.000E+00  3.89897E+01  1.147E-01  2.000E+01  2.000E+04  9.949E-02
   1   12   24     2     7    4.8183E+04  3.4738E+03   4.4709E+04  0.000E+00  0.000E+00  0.000E+00  3.87359E+01  1.109E-01  2.000E+01  2.000E+04  1.737E-01
   1   13   23     2     8    4.4709E+04  1.0284E+03   4.3681E+04  0.000E+00  0.000E+00  0.000E+00  3.84826E+01  1.076E-01  2.000E+01  2.000E+04  5.142E-02
   1   14   22     2     9    4.3681E+04  2.9881E+03   4.0692E+04  0.000E+00  0.000E+00  0.000E+00  3.82296E+01  1.046E-01  2.000E+01  2.000E+04  1.494E-01
   1   14   22     3     1    1.5221E+05 -7.3601E+03   1.5957E+05  0.000E+00  0.000E+00  0.000E+00  3.77122E+01  1.567E-01  2.000E+01  2.000E+04 -3.680E-01
   1   15   23     3     2    1.5957E+05 -4.9595E+02   1.6006E+05  0.000E+00  0.000E+00  0.000E+00  3.68257E+01  1.590E-01  2.000E+01  2.000E+04 -2.480E-02
   1   15   24     3     3    1.6006E+05 -2.4188E+02   1.6031E+05  0.000E+00  0.000E+00  0.000E+00  3.59370E+01  1.592E-01  2.000E+01  2.000E+04 -1.209E-02
   1   15   25     3     4    1.6031E+05 -2.3350E+02   1.6054E+05  0.000E+00  0.000E+00  0.000E+00  3.50483E+01  1.594E-01  2.000E+01  2.000E+04 -1.168E-02
   1   15   26     3     5    1.6054E+05 -2.8533E+02   1.6082E+05  0.000E+00  0.000E+00  0.000E+00  3.41595E+01  1.595E-01  2.000E+01  2.000E+04 -1.427E-02
   1   16   27     3     6    1.6082E+05 -3.1188E+02   1.6114E+05  0.000E+00  0.000E+00  0.000E+00  3.32708E+01  1.597E-01  2.000E+01  2.000E+04 -1.559E-02
   1   17   28     3     7    1.6114E+05 -1.4105E+03   1.6255E+05  0.000E+00  0.000E+00  0.000E+00  3.23825E+01  1.602E-01  2.000E+01  2.000E+04 -7.052E-02
   1   18   29     3     8    1.6255E+05 -2.7510E+03   1.6530E+05  0.000E+00  0.000E+00  0.000E+00  3.14948E+01  1.615E-01  2.000E+01  2.000E+04 -1.376E-01
   1   18   30     3     9    1.6530E+05 -3.0605E+03   1.6836E+05  0.000E+00  0.000E+00  0.000E+00  3.06076E+01  1.632E-01  2.000E+01  2.000E+04 -1.530E-01



1
              HEAD IN LAYER   1 AT END OF TIME STEP   1 IN STRESS PERIOD    9
  ---------------------------------------------------------------------------

          1      2      3      4      5      6      7      8      9     10
         11     12     13     14     15     16     17     18     19     20
         21     22     23     24     25     26     27     28     29     30
 .........................................................................
   1  ****** ****** ****** ****** ****** ****** ****** ****** ****** ******
      ****** ****** ****** ****** ****** ****** ****** ****** ****** ******
      ****** ****** ****** ****** ****** ****** ****** ****** ****** ******
   2  ****** ****** ****** ****** ****** ****** ****** ****** ****** ******
      ****** ****** ****** ****** ****** ****** ****** ****** ****** ******
      ****** ****** ****** ****** ****** ****** ****** ****** ****** ******
   3  ****** ****** ****** ****** ****** ****** ****** ****** ****** ******
      ****** ****** ****** ****** ****** ****** ****** ****** ****** ******
      ****** ****** ****** ****** ****** ****** ****** ****** ****** ******
   4  ****** ****** ****** ****** ****** ****** ****** ****** ****** ******
      ****** ****** ****** ****** ****** ****** ****** ****** ****** ******
      ****** ****** ****** ****** ****** ****** ****** ****** ****** ******
   5  ****** ****** ****** ****** ****** ****** ****** ****** ****** ******
      ****** ****** ****** ****** ****** ****** ****** ****** ****** ******
      ****** ****** ****** ****** ****** ****** ****** ****** ****** ******
   6  ****** ****** ****** ****** ****** ****** ****** ****** ****** ******
      ****** ****** ****** ****** ****** ****** ****** ****** ****** ******
      ****** ****** ****** ****** ****** ****** ****** ****** ****** ******
   7  ****** ****** ****** ****** ****** ****** ****** ****** ****** ******
      ****** ****** ****** ****** ****** ****** ****** ****** ****** ******
      ****** ****** ****** ****** ****** ****** ****** ****** ****** ******
   8  ****** ****** ****** ****** ****** ****** ****** ****** ****** ******
      ****** ****** ****** ****** ****** ****** ****** ****** ****** ******
      ****** ****** ****** ****** ****** ****** ****** ****** ****** ******
   9  ****** ****** ****** ****** ****** ****** ****** ****** ****** ******
      ****** ****** ****** ****** ****** ****** ****** ****** ****** ******
      ****** ****** ****** ****** ****** ****** ****** ****** ****** ******
  10  ****** ****** ****** ****** ****** ****** ****** ****** ****** ******
      ****** ****** ****** ****** ****** ****** ****** ****** ****** ******
      ****** ****** ****** ****** ****** ****** ****** ****** ****** ******
  11  ****** ****** ****** ****** ****** ****** ****** ****** ****** ******
      ****** ****** ****** ****** ****** ****** ****** ****** ****** ******
      ****** ****** ****** ****** ****** ****** ****** ****** ****** ******
  12  ****** ****** ****** ****** ****** ****** ****** ****** ****** ******
      ****** ****** ****** ****** ****** ****** ****** ****** ****** ******
      ****** ****** ****** ****** ****** ****** ****** ****** ****** ******
  13  ****** ****** ****** ****** ****** ****** ****** ****** ****** ******
      ****** ****** ****** ****** ****** ****** ****** ****** ****** ******
      ****** ****** ****** ****** ****** ****** ****** ****** ****** ******
  14  ****** ****** ****** ****** ****** ****** ****** ****** ****** ******
      ****** ****** ****** ****** ****** ****** ****** ****** ****** ******
      ****** ****** ****** ****** ****** ****** ****** ****** ****** ******
  15  ****** ****** ****** ****** ****** ****** ****** ****** ****** ******
      ****** ****** ****** ****** ****** ****** ****** ****** ****** ******
      ****** ****** ****** ****** ****** ****** ****** ****** ****** ******
  16  ****** ****** ****** ****** ****** ****** ****** ****** ****** ******
      ****** ****** ****** ****** ****** ****** ****** ****** ****** ******
      ****** ****** ****** ****** ****** ****** ****** ****** ****** ******
  17  ****** ****** ****** ****** ****** ****** ****** ****** ****** ******
      ****** ****** ****** ****** ****** ****** ****** ****** ****** ******
      ****** ****** ****** ****** ****** ****** ****** ****** ****** ******
  18  ****** ****** ****** ****** ****** ****** ****** ****** ****** ******
      ****** ****** ****** ****** ****** ****** ****** ****** ****** ******
      ****** ****** ****** ****** ****** ****** ****** ****** ****** ******
  19  ****** ****** ****** ****** ****** ****** ****** ****** ****** ******
      ****** ****** ****** ****** ****** ****** ****** ****** ****** ******
      ****** ****** ****** ****** ****** ****** ****** ****** ****** ******
  20  ****** ****** ****** ****** ****** ****** ****** ****** ****** ******
      ****** ****** ****** ****** ****** ****** ****** ****** ****** ******
      ****** ****** ****** ****** ****** ****** ****** ****** ****** ******
  21  ****** ****** ****** ****** ****** ****** ****** ****** ****** ******
      ****** ****** ****** ****** ****** ****** ****** ****** ****** ******
      ****** ****** ****** ****** ****** ****** ****** ****** ****** ******
  22  ****** ****** ****** ****** ****** ****** ****** ****** ****** ******
      ****** ****** ****** ****** ****** ****** ****** ****** ****** ******
      ****** ****** ****** ****** ****** ****** ****** ****** ****** ******
  23  ****** ****** ****** ****** ****** ****** ****** ****** ****** ******
      ****** ****** ****** ****** ****** ****** ****** ****** ****** ******
      ****** ****** ****** ****** ****** ****** ****** ****** ****** ******
  24  ****** ****** ****** ****** ****** ****** ****** ****** ****** ******
      ****** ****** ****** ****** ****** ****** ****** ****** ****** ******
      ****** ****** ****** ****** ****** ****** ****** ****** ****** ******
  25  ****** ****** ****** ****** ****** ****** ****** ****** ****** ******
      ****** ****** ****** ****** ****** ****** ****** ****** ****** ******
      ****** ****** ****** ****** ****** ****** ****** ****** ****** ******

 HEAD WILL BE SAVED ON UNIT   51 AT END OF TIME STEP    1, STRESS PERIOD    9
1
  VOLUMETRIC BUDGET FOR ENTIRE MODEL AT END OF TIME STEP    1, STRESS PERIOD   9
  ------------------------------------------------------------------------------

     CUMULATIVE VOLUMES      L**3       RATES FOR THIS TIME STEP      L**3/T
     ------------------                 ------------------------

           IN:                                      IN:
           ---                                      ---
             STORAGE =    34612311.1113               STORAGE =        7381.5482
       CONSTANT HEAD =    23071618.8743         CONSTANT HEAD =       35290.2371
               WELLS =           0.0000                 WELLS =           0.0000
            RECHARGE =    18878400.0000              RECHARGE =       13800.0000
      STREAM LEAKAGE =    11682047.1434        STREAM LEAKAGE =       17873.5430

            TOTAL IN =    88244377.1291              TOTAL IN =       74345.3283

          OUT:                                     OUT:
          ----                                     ----
             STORAGE =      897942.0243               STORAGE =           0.0000
       CONSTANT HEAD =           0.0000         CONSTANT HEAD =           0.0000
               WELLS =    31328849.3441                 WELLS =       38112.9554
            RECHARGE =           0.0000              RECHARGE =           0.0000
      STREAM LEAKAGE =    56017587.5829        STREAM LEAKAGE =       36232.3737

           TOTAL OUT =    88244378.9513             TOTAL OUT =       74345.3291

            IN - OUT =          -1.8222              IN - OUT =      -7.7591E-04

 PERCENT DISCREPANCY =          -0.00     PERCENT DISCREPANCY =          -0.00






         TIME SUMMARY AT END OF TIME STEP    1 IN STRESS PERIOD    9
                    SECONDS     MINUTES      HOURS       DAYS        YEARS
                    -----------------------------------------------------------
   TIME STEP LENGTH 7.94880E+06 1.32480E+05  2208.0      92.000     0.25188    
 STRESS PERIOD TIME 7.94880E+06 1.32480E+05  2208.0      92.000     0.25188    
         TOTAL TIME 7.10208E+07 1.18368E+06  19728.      822.00      2.2505    
1
1
                            STRESS PERIOD NO.   10, LENGTH =   91.00000    
                            -----------------------------------------------

                              NUMBER OF TIME STEPS =     1

                               MULTIPLIER FOR DELT =     1.500

                            INITIAL TIME STEP SIZE =   91.00000    

 WELL NO.  LAYER   ROW   COL   STRESS RATE         
 --------------------------------------------------
      1      1     11     23      -9982.    
      2      1     13     22      -7684.    
      3      1      6     18     -0.1279E+05
      4      1      7     23      -7655.    

      4 WELLS

                 RECHARGE =  2.000000E-03

 REUSING STREAM SEGMENT DATA FROM LAST STRESS PERIOD
 
 SOLVING FOR HEAD 


     7 CALLS TO PCG ROUTINE FOR TIME STEP   1 IN STRESS PERIOD   10
    26 TOTAL ITERATIONS

 OUTPUT CONTROL FOR STRESS PERIOD   10   TIME STEP    1
    SAVE BUDGET
    SAVE HEAD FOR ALL LAYERS
    PRINT HEAD FOR ALL LAYERS
 UBDSV2 SAVING "STREAMFLOW OUT  " ON UNIT  50 AT TIME STEP  1, STRESS PERIOD  10



 STREAM LISTING     PERIOD     10   STEP        1

 LAYER ROW COL. STREAM  RCH.  FLOW INTO     FLOW TO   FLOW OUT OF   OVRLND.     DIRECT     STREAM       STREAM     STREAM     STREAM   STREAMBED  STREAMBED
                SEG.NO.  NO.  STRM. RCH.    AQUIFER    STRM. RCH.    RUNOFF     PRECIP       ET          HEAD       DEPTH      WIDTH   CONDCTNC.   GRADIENT

   1   13    1     1     1    1.0000E+05 -1.9502E+03   1.0195E+05  0.000E+00  0.000E+00  0.000E+00  4.84069E+01  1.455E-01  2.000E+01  2.000E+04 -9.751E-02
   1   13    2     1     2    1.0195E+05 -2.9243E+03   1.0487E+05  0.000E+00  0.000E+00  0.000E+00  4.79317E+01  1.476E-01  2.000E+01  2.000E+04 -1.462E-01
   1   14    3     1     3    1.0487E+05 -5.7708E+02   1.0545E+05  0.000E+00  0.000E+00  0.000E+00  4.74559E+01  1.491E-01  2.000E+01  2.000E+04 -2.885E-02
   1   15    4     1     4    1.0545E+05 -5.6671E+02   1.0602E+05  0.000E+00  0.000E+00  0.000E+00  4.69791E+01  1.496E-01  2.000E+01  2.000E+04 -2.834E-02
   1   16    5     1     5    1.0602E+05 -2.0973E+03   1.0812E+05  0.000E+00  0.000E+00  0.000E+00  4.65030E+01  1.507E-01  2.000E+01  2.000E+04 -1.049E-01
   1   16    6     1     6    1.0812E+05 -1.3029E+03   1.0942E+05  0.000E+00  0.000E+00  0.000E+00  4.60271E+01  1.521E-01  2.000E+01  2.000E+04 -6.514E-02
   1   16    7     1     7    1.0942E+05 -1.2724E+03   1.1069E+05  0.000E+00  0.000E+00  0.000E+00  4.55509E+01  1.532E-01  2.000E+01  2.000E+04 -6.362E-02
   1   16    8     1     8    1.1069E+05 -1.2677E+03   1.1196E+05  0.000E+00  0.000E+00  0.000E+00  4.50747E+01  1.543E-01  2.000E+01  2.000E+04 -6.339E-02
   1   16    9     1     9    1.1196E+05 -1.2648E+03   1.1322E+05  0.000E+00  0.000E+00  0.000E+00  4.45985E+01  1.553E-01  2.000E+01  2.000E+04 -6.324E-02
   1   16   10     1    10    1.1322E+05 -1.2622E+03   1.1449E+05  0.000E+00  0.000E+00  0.000E+00  4.41223E+01  1.564E-01  2.000E+01  2.000E+04 -6.311E-02
   1   16   11     1    11    1.1449E+05 -1.2806E+03   1.1577E+05  0.000E+00  0.000E+00  0.000E+00  4.36460E+01  1.574E-01  2.000E+01  2.000E+04 -6.403E-02
   1   16   12     1    12    1.1577E+05 -2.1329E+03   1.1790E+05  0.000E+00  0.000E+00  0.000E+00  4.31702E+01  1.588E-01  2.000E+01  2.000E+04 -1.066E-01
   1   15   13     1    13    1.1790E+05 -1.8602E+03   1.1976E+05  0.000E+00  0.000E+00  0.000E+00  4.26945E+01  1.604E-01  2.000E+01  2.000E+04 -9.301E-02
   1   14   14     1    14    1.1976E+05 -1.9161E+03   1.2168E+05  0.000E+00  0.000E+00  0.000E+00  4.22188E+01  1.620E-01  2.000E+01  2.000E+04 -9.581E-02
   1   13   15     1    15    1.2168E+05 -1.8895E+03   1.2356E+05  0.000E+00  0.000E+00  0.000E+00  4.17430E+01  1.635E-01  2.000E+01  2.000E+04 -9.447E-02
   1   12   16     1    16    1.2356E+05 -1.6758E+03   1.2524E+05  0.000E+00  0.000E+00  0.000E+00  4.12672E+01  1.649E-01  2.000E+01  2.000E+04 -8.379E-02
   1   12   17     1    17    1.2524E+05 -9.8394E+02   1.2622E+05  0.000E+00  0.000E+00  0.000E+00  4.07910E+01  1.660E-01  2.000E+01  2.000E+04 -4.920E-02
   1   12   18     1    18    1.2622E+05 -7.4118E+02   1.2697E+05  0.000E+00  0.000E+00  0.000E+00  4.03144E+01  1.666E-01  2.000E+01  2.000E+04 -3.706E-02
   1   12   19     1    19    1.2697E+05 -5.8384E+01   1.2702E+05  0.000E+00  0.000E+00  0.000E+00  3.98374E+01  1.670E-01  2.000E+01  2.000E+04 -2.919E-03
   1   13   20     1    20    1.2702E+05  4.1328E+02   1.2661E+05  0.000E+00  0.000E+00  0.000E+00  3.93600E+01  1.668E-01  2.000E+01  2.000E+04  2.066E-02
   1   14   21     1    21    1.2661E+05 -5.1307E+02   1.2712E+05  0.000E+00  0.000E+00  0.000E+00  3.88828E+01  1.669E-01  2.000E+01  2.000E+04 -2.565E-02
   1   14   22     1    22    1.2712E+05  6.1777E+03   1.2095E+05  0.000E+00  0.000E+00  0.000E+00  3.84032E+01  1.646E-01  2.000E+01  2.000E+04  3.089E-01
   1    9   30     2     1    5.0000E+04 -4.3600E+02   5.0436E+04  0.000E+00  0.000E+00  0.000E+00  4.02412E+01  1.162E-01  2.000E+01  2.000E+04 -2.180E-02
   1    9   29     2     2    5.0436E+04 -6.6021E+02   5.1096E+04  0.000E+00  0.000E+00  0.000E+00  3.99919E+01  1.169E-01  2.000E+01  2.000E+04 -3.301E-02
   1    9   28     2     3    5.1096E+04 -7.1832E+02   5.1815E+04  0.000E+00  0.000E+00  0.000E+00  3.97429E+01  1.179E-01  2.000E+01  2.000E+04 -3.592E-02
   1    9   27     2     4    5.1815E+04 -8.2377E+02   5.2638E+04  0.000E+00  0.000E+00  0.000E+00  3.94939E+01  1.189E-01  2.000E+01  2.000E+04 -4.119E-02
   1   10   26     2     5    5.2638E+04  1.2857E+02   5.2510E+04  0.000E+00  0.000E+00  0.000E+00  3.92444E+01  1.194E-01  2.000E+01  2.000E+04  6.428E-03
   1   11   25     2     6    5.2510E+04  1.4628E+03   5.1047E+04  0.000E+00  0.000E+00  0.000E+00  3.89933E+01  1.183E-01  2.000E+01  2.000E+04  7.314E-02
   1   12   24     2     7    5.1047E+04  2.9971E+03   4.8050E+04  0.000E+00  0.000E+00  0.000E+00  3.87402E+01  1.152E-01  2.000E+01  2.000E+04  1.499E-01
   1   13   23     2     8    4.8050E+04  8.8000E+02   4.7170E+04  0.000E+00  0.000E+00  0.000E+00  3.84875E+01  1.125E-01  2.000E+01  2.000E+04  4.400E-02
   1   14   22     2     9    4.7170E+04  2.8103E+03   4.4360E+04  0.000E+00  0.000E+00  0.000E+00  3.82349E+01  1.099E-01  2.000E+01  2.000E+04  1.405E-01
   1   14   22     3     1    1.6531E+05 -7.4865E+03   1.7279E+05  0.000E+00  0.000E+00  0.000E+00  3.77200E+01  1.645E-01  2.000E+01  2.000E+04 -3.743E-01
   1   15   23     3     2    1.7279E+05 -6.5871E+02   1.7345E+05  0.000E+00  0.000E+00  0.000E+00  3.68335E+01  1.668E-01  2.000E+01  2.000E+04 -3.294E-02
   1   15   24     3     3    1.7345E+05 -3.7918E+02   1.7383E+05  0.000E+00  0.000E+00  0.000E+00  3.59449E+01  1.671E-01  2.000E+01  2.000E+04 -1.896E-02
   1   15   25     3     4    1.7383E+05 -3.7421E+02   1.7420E+05  0.000E+00  0.000E+00  0.000E+00  3.50563E+01  1.674E-01  2.000E+01  2.000E+04 -1.871E-02
   1   15   26     3     5    1.7420E+05 -4.4764E+02   1.7465E+05  0.000E+00  0.000E+00  0.000E+00  3.41676E+01  1.676E-01  2.000E+01  2.000E+04 -2.238E-02
   1   16   27     3     6    1.7465E+05 -4.9788E+02   1.7515E+05  0.000E+00  0.000E+00  0.000E+00  3.32790E+01  1.679E-01  2.000E+01  2.000E+04 -2.489E-02
   1   17   28     3     7    1.7515E+05 -1.9316E+03   1.7708E+05  0.000E+00  0.000E+00  0.000E+00  3.23908E+01  1.686E-01  2.000E+01  2.000E+04 -9.658E-02
   1   18   29     3     8    1.7708E+05 -3.3036E+03   1.8039E+05  0.000E+00  0.000E+00  0.000E+00  3.15034E+01  1.701E-01  2.000E+01  2.000E+04 -1.652E-01
   1   18   30     3     9    1.8039E+05 -3.4866E+03   1.8387E+05  0.000E+00  0.000E+00  0.000E+00  3.06164E+01  1.720E-01  2.000E+01  2.000E+04 -1.743E-01



1
              HEAD IN LAYER   1 AT END OF TIME STEP   1 IN STRESS PERIOD   10
  ---------------------------------------------------------------------------

          1      2      3      4      5      6      7      8      9     10
         11     12     13     14     15     16     17     18     19     20
         21     22     23     24     25     26     27     28     29     30
 .........................................................................
   1  ****** ****** ****** ****** ****** ****** ****** ****** ****** ******
      ****** ****** ****** ****** ****** ****** ****** ****** ****** ******
      ****** ****** ****** ****** ****** ****** ****** ****** ****** ******
   2  ****** ****** ****** ****** ****** ****** ****** ****** ****** ******
      ****** ****** ****** ****** ****** ****** ****** ****** ****** ******
      ****** ****** ****** ****** ****** ****** ****** ****** ****** ******
   3  ****** ****** ****** ****** ****** ****** ****** ****** ****** ******
      ****** ****** ****** ****** ****** ****** ****** ****** ****** ******
      ****** ****** ****** ****** ****** ****** ****** ****** ****** ******
   4  ****** ****** ****** ****** ****** ****** ****** ****** ****** ******
      ****** ****** ****** ****** ****** ****** ****** ****** ****** ******
      ****** ****** ****** ****** ****** ****** ****** ****** ****** ******
   5  ****** ****** ****** ****** ****** ****** ****** ****** ****** ******
      ****** ****** ****** ****** ****** ****** ****** ****** ****** ******
      ****** ****** ****** ****** ****** ****** ****** ****** ****** ******
   6  ****** ****** ****** ****** ****** ****** ****** ****** ****** ******
      ****** ****** ****** ****** ****** ****** ****** ****** ****** ******
      ****** ****** ****** ****** ****** ****** ****** ****** ****** ******
   7  ****** ****** ****** ****** ****** ****** ****** ****** ****** ******
      ****** ****** ****** ****** ****** ****** ****** ****** ****** ******
      ****** ****** ****** ****** ****** ****** ****** ****** ****** ******
   8  ****** ****** ****** ****** ****** ****** ****** ****** ****** ******
      ****** ****** ****** ****** ****** ****** ****** ****** ****** ******
      ****** ****** ****** ****** ****** ****** ****** ****** ****** ******
   9  ****** ****** ****** ****** ****** ****** ****** ****** ****** ******
      ****** ****** ****** ****** ****** ****** ****** ****** ****** ******
      ****** ****** ****** ****** ****** ****** ****** ****** ****** ******
  10  ****** ****** ****** ****** ****** ****** ****** ****** ****** ******
      ****** ****** ****** ****** ****** ****** ****** ****** ****** ******
      ****** ****** ****** ****** ****** ****** ****** ****** ****** ******
  11  ****** ****** ****** ****** ****** ****** ****** ****** ****** ******
      ****** ****** ****** ****** ****** ****** ****** ****** ****** ******
      ****** ****** ****** ****** ****** ****** ****** ****** ****** ******
  12  ****** ****** ****** ****** ****** ****** ****** ****** ****** ******
      ****** ****** ****** ****** ****** ****** ****** ****** ****** ******
      ****** ****** ****** ****** ****** ****** ****** ****** ****** ******
  13  ****** ****** ****** ****** ****** ****** ****** ****** ****** ******
      ****** ****** ****** ****** ****** ****** ****** ****** ****** ******
      ****** ****** ****** ****** ****** ****** ****** ****** ****** ******
  14  ****** ****** ****** ****** ****** ****** ****** ****** ****** ******
      ****** ****** ****** ****** ****** ****** ****** ****** ****** ******
      ****** ****** ****** ****** ****** ****** ****** ****** ****** ******
  15  ****** ****** ****** ****** ****** ****** ****** ****** ****** ******
      ****** ****** ****** ****** ****** ****** ****** ****** ****** ******
      ****** ****** ****** ****** ****** ****** ****** ****** ****** ******
  16  ****** ****** ****** ****** ****** ****** ****** ****** ****** ******
      ****** ****** ****** ****** ****** ****** ****** ****** ****** ******
      ****** ****** ****** ****** ****** ****** ****** ****** ****** ******
  17  ****** ****** ****** ****** ****** ****** ****** ****** ****** ******
      ****** ****** ****** ****** ****** ****** ****** ****** ****** ******
      ****** ****** ****** ****** ****** ****** ****** ****** ****** ******
  18  ****** ****** ****** ****** ****** ****** ****** ****** ****** ******
      ****** ****** ****** ****** ****** ****** ****** ****** ****** ******
      ****** ****** ****** ****** ****** ****** ****** ****** ****** ******
  19  ****** ****** ****** ****** ****** ****** ****** ****** ****** ******
      ****** ****** ****** ****** ****** ****** ****** ****** ****** ******
      ****** ****** ****** ****** ****** ****** ****** ****** ****** ******
  20  ****** ****** ****** ****** ****** ****** ****** ****** ****** ******
      ****** ****** ****** ****** ****** ****** ****** ****** ****** ******
      ****** ****** ****** ****** ****** ****** ****** ****** ****** ******
  21  ****** ****** ****** ****** ****** ****** ****** ****** ****** ******
      ****** ****** ****** ****** ****** ****** ****** ****** ****** ******
      ****** ****** ****** ****** ****** ****** ****** ****** ****** ******
  22  ****** ****** ****** ****** ****** ****** ****** ****** ****** ******
      ****** ****** ****** ****** ****** ****** ****** ****** ****** ******
      ****** ****** ****** ****** ****** ****** ****** ****** ****** ******
  23  ****** ****** ****** ****** ****** ****** ****** ****** ****** ******
      ****** ****** ****** ****** ****** ****** ****** ****** ****** ******
      ****** ****** ****** ****** ****** ****** ****** ****** ****** ******
  24  ****** ****** ****** ****** ****** ****** ****** ****** ****** ******
      ****** ****** ****** ****** ****** ****** ****** ****** ****** ******
      ****** ****** ****** ****** ****** ****** ****** ****** ****** ******
  25  ****** ****** ****** ****** ****** ****** ****** ****** ****** ******
      ****** ****** ****** ****** ****** ****** ****** ****** ****** ******
      ****** ****** ****** ****** ****** ****** ****** ****** ****** ******

 HEAD WILL BE SAVED ON UNIT   51 AT END OF TIME STEP    1, STRESS PERIOD   10
1
  VOLUMETRIC BUDGET FOR ENTIRE MODEL AT END OF TIME STEP    1, STRESS PERIOD  10
  ------------------------------------------------------------------------------

     CUMULATIVE VOLUMES      L**3       RATES FOR THIS TIME STEP      L**3/T
     ------------------                 ------------------------

           IN:                                      IN:
           ---                                      ---
             STORAGE =    34612311.1113               STORAGE =           0.0000
       CONSTANT HEAD =    26015557.9076         CONSTANT HEAD =       32350.9784
               WELLS =           0.0000                 WELLS =           0.0000
            RECHARGE =    23901600.0000              RECHARGE =       55200.0000
      STREAM LEAKAGE =    13035190.2896        STREAM LEAKAGE =       14869.7049

            TOTAL IN =    97564659.3085              TOTAL IN =      102420.6833

          OUT:                                     OUT:
          ----                                     ----
             STORAGE =     2314484.7032               STORAGE =       15566.4031
       CONSTANT HEAD =           0.0000         CONSTANT HEAD =           0.0000
               WELLS =    34797128.2861                 WELLS =       38112.9554
            RECHARGE =           0.0000              RECHARGE =           0.0000
      STREAM LEAKAGE =    60453047.7999        STREAM LEAKAGE =       48741.3211

           TOTAL OUT =    97564660.7892             TOTAL OUT =      102420.6795

            IN - OUT =          -1.4808              IN - OUT =       3.7524E-03

 PERCENT DISCREPANCY =          -0.00     PERCENT DISCREPANCY =           0.00






         TIME SUMMARY AT END OF TIME STEP    1 IN STRESS PERIOD   10
                    SECONDS     MINUTES      HOURS       DAYS        YEARS
                    -----------------------------------------------------------
   TIME STEP LENGTH 7.86240E+06 1.31040E+05  2184.0      91.000     0.24914    
 STRESS PERIOD TIME 7.86240E+06 1.31040E+05  2184.0      91.000     0.24914    
         TOTAL TIME 7.88832E+07 1.31472E+06  21912.      913.00      2.4997    
1
1
                            STRESS PERIOD NO.   11, LENGTH =   91.00000    
                            -----------------------------------------------

                              NUMBER OF TIME STEPS =     1

                               MULTIPLIER FOR DELT =     1.500

                            INITIAL TIME STEP SIZE =   91.00000    

 WELL NO.  LAYER   ROW   COL   STRESS RATE         
 --------------------------------------------------
      1      1     11     23      -9982.    
      2      1     13     22      -7684.    
      3      1      6     18     -0.1279E+05
      4      1      7     23      -7655.    

      4 WELLS

                 RECHARGE =   0.00000    

 REUSING STREAM SEGMENT DATA FROM LAST STRESS PERIOD
 
 SOLVING FOR HEAD 


     7 CALLS TO PCG ROUTINE FOR TIME STEP   1 IN STRESS PERIOD   11
    26 TOTAL ITERATIONS

 OUTPUT CONTROL FOR STRESS PERIOD   11   TIME STEP    1
    SAVE BUDGET
    SAVE HEAD FOR ALL LAYERS
    PRINT HEAD FOR ALL LAYERS
 UBDSV2 SAVING "STREAMFLOW OUT  " ON UNIT  50 AT TIME STEP  1, STRESS PERIOD  11



 STREAM LISTING     PERIOD     11   STEP        1

 LAYER ROW COL. STREAM  RCH.  FLOW INTO     FLOW TO   FLOW OUT OF   OVRLND.     DIRECT     STREAM       STREAM     STREAM     STREAM   STREAMBED  STREAMBED
                SEG.NO.  NO.  STRM. RCH.    AQUIFER    STRM. RCH.    RUNOFF     PRECIP       ET          HEAD       DEPTH      WIDTH   CONDCTNC.   GRADIENT

   1   13    1     1     1    1.0000E+05 -1.3792E+03   1.0138E+05  0.000E+00  0.000E+00  0.000E+00  4.84066E+01  1.452E-01  2.000E+01  2.000E+04 -6.896E-02
   1   13    2     1     2    1.0138E+05 -2.2883E+03   1.0367E+05  0.000E+00  0.000E+00  0.000E+00  4.79309E+01  1.468E-01  2.000E+01  2.000E+04 -1.144E-01
   1   14    3     1     3    1.0367E+05 -3.4564E+02   1.0401E+05  0.000E+00  0.000E+00  0.000E+00  4.74548E+01  1.480E-01  2.000E+01  2.000E+04 -1.728E-02
   1   15    4     1     4    1.0401E+05 -3.2439E+02   1.0434E+05  0.000E+00  0.000E+00  0.000E+00  4.69778E+01  1.482E-01  2.000E+01  2.000E+04 -1.622E-02
   1   16    5     1     5    1.0434E+05 -1.4095E+03   1.0575E+05  0.000E+00  0.000E+00  0.000E+00  4.65013E+01  1.490E-01  2.000E+01  2.000E+04 -7.047E-02
   1   16    6     1     6    1.0575E+05 -8.8833E+02   1.0664E+05  0.000E+00  0.000E+00  0.000E+00  4.60250E+01  1.500E-01  2.000E+01  2.000E+04 -4.442E-02
   1   16    7     1     7    1.0664E+05 -8.7546E+02   1.0751E+05  0.000E+00  0.000E+00  0.000E+00  4.55484E+01  1.507E-01  2.000E+01  2.000E+04 -4.377E-02
   1   16    8     1     8    1.0751E+05 -8.7629E+02   1.0839E+05  0.000E+00  0.000E+00  0.000E+00  4.50719E+01  1.514E-01  2.000E+01  2.000E+04 -4.381E-02
   1   16    9     1     9    1.0839E+05 -8.7559E+02   1.0926E+05  0.000E+00  0.000E+00  0.000E+00  4.45954E+01  1.522E-01  2.000E+01  2.000E+04 -4.378E-02
   1   16   10     1    10    1.0926E+05 -8.7421E+02   1.1014E+05  0.000E+00  0.000E+00  0.000E+00  4.41188E+01  1.529E-01  2.000E+01  2.000E+04 -4.371E-02
   1   16   11     1    11    1.1014E+05 -8.9093E+02   1.1103E+05  0.000E+00  0.000E+00  0.000E+00  4.36423E+01  1.537E-01  2.000E+01  2.000E+04 -4.455E-02
   1   16   12     1    12    1.1103E+05 -1.4871E+03   1.1251E+05  0.000E+00  0.000E+00  0.000E+00  4.31660E+01  1.546E-01  2.000E+01  2.000E+04 -7.436E-02
   1   15   13     1    13    1.1251E+05 -1.1707E+03   1.1369E+05  0.000E+00  0.000E+00  0.000E+00  4.26898E+01  1.557E-01  2.000E+01  2.000E+04 -5.853E-02
   1   14   14     1    14    1.1369E+05 -1.2083E+03   1.1489E+05  0.000E+00  0.000E+00  0.000E+00  4.22135E+01  1.567E-01  2.000E+01  2.000E+04 -6.041E-02
   1   13   15     1    15    1.1489E+05 -1.1867E+03   1.1608E+05  0.000E+00  0.000E+00  0.000E+00  4.17373E+01  1.577E-01  2.000E+01  2.000E+04 -5.933E-02
   1   12   16     1    16    1.1608E+05 -9.9545E+02   1.1708E+05  0.000E+00  0.000E+00  0.000E+00  4.12609E+01  1.586E-01  2.000E+01  2.000E+04 -4.977E-02
   1   12   17     1    17    1.1708E+05 -4.7574E+02   1.1755E+05  0.000E+00  0.000E+00  0.000E+00  4.07842E+01  1.592E-01  2.000E+01  2.000E+04 -2.379E-02
   1   12   18     1    18    1.1755E+05 -2.4092E+02   1.1779E+05  0.000E+00  0.000E+00  0.000E+00  4.03072E+01  1.595E-01  2.000E+01  2.000E+04 -1.205E-02
   1   12   19     1    19    1.1779E+05  5.5577E+02   1.1724E+05  0.000E+00  0.000E+00  0.000E+00  3.98298E+01  1.594E-01  2.000E+01  2.000E+04  2.779E-02
   1   13   20     1    20    1.1724E+05  1.0260E+03   1.1621E+05  0.000E+00  0.000E+00  0.000E+00  3.93519E+01  1.587E-01  2.000E+01  2.000E+04  5.130E-02
   1   14   21     1    21    1.1621E+05  8.3636E+01   1.1613E+05  0.000E+00  0.000E+00  0.000E+00  3.88742E+01  1.583E-01  2.000E+01  2.000E+04  4.182E-03
   1   14   22     1    22    1.1613E+05  6.3290E+03   1.0980E+05  0.000E+00  0.000E+00  0.000E+00  3.83943E+01  1.556E-01  2.000E+01  2.000E+04  3.164E-01
   1    9   30     2     1    5.0000E+04  5.2483E+01   4.9948E+04  0.000E+00  0.000E+00  0.000E+00  4.02408E+01  1.158E-01  2.000E+01  2.000E+04  2.624E-03
   1    9   29     2     2    4.9948E+04 -1.7475E+02   5.0122E+04  0.000E+00  0.000E+00  0.000E+00  3.99909E+01  1.159E-01  2.000E+01  2.000E+04 -8.738E-03
   1    9   28     2     3    5.0122E+04 -2.3496E+02   5.0357E+04  0.000E+00  0.000E+00  0.000E+00  3.97412E+01  1.162E-01  2.000E+01  2.000E+04 -1.175E-02
   1    9   27     2     4    5.0357E+04 -1.8294E+02   5.0540E+04  0.000E+00  0.000E+00  0.000E+00  3.94915E+01  1.165E-01  2.000E+01  2.000E+04 -9.147E-03
   1   10   26     2     5    5.0540E+04  7.8361E+02   4.9757E+04  0.000E+00  0.000E+00  0.000E+00  3.92411E+01  1.161E-01  2.000E+01  2.000E+04  3.918E-02
   1   11   25     2     6    4.9757E+04  2.0939E+03   4.7663E+04  0.000E+00  0.000E+00  0.000E+00  3.89891E+01  1.141E-01  2.000E+01  2.000E+04  1.047E-01
   1   12   24     2     7    4.7663E+04  3.5711E+03   4.4092E+04  0.000E+00  0.000E+00  0.000E+00  3.87350E+01  1.100E-01  2.000E+01  2.000E+04  1.786E-01
   1   13   23     2     8    4.4092E+04  1.0659E+03   4.3026E+04  0.000E+00  0.000E+00  0.000E+00  3.84817E+01  1.067E-01  2.000E+01  2.000E+04  5.329E-02
   1   14   22     2     9    4.3026E+04  3.0164E+03   4.0009E+04  0.000E+00  0.000E+00  0.000E+00  3.82286E+01  1.036E-01  2.000E+01  2.000E+04  1.508E-01
   1   14   22     3     1    1.4981E+05 -7.3409E+03   1.5715E+05  0.000E+00  0.000E+00  0.000E+00  3.77108E+01  1.552E-01  2.000E+01  2.000E+04 -3.670E-01
   1   15   23     3     2    1.5715E+05 -4.6686E+02   1.5762E+05  0.000E+00  0.000E+00  0.000E+00  3.68242E+01  1.576E-01  2.000E+01  2.000E+04 -2.334E-02
   1   15   24     3     3    1.5762E+05 -2.1417E+02   1.5783E+05  0.000E+00  0.000E+00  0.000E+00  3.59356E+01  1.578E-01  2.000E+01  2.000E+04 -1.071E-02
   1   15   25     3     4    1.5783E+05 -2.0536E+02   1.5803E+05  0.000E+00  0.000E+00  0.000E+00  3.50468E+01  1.579E-01  2.000E+01  2.000E+04 -1.027E-02
   1   15   26     3     5    1.5803E+05 -2.5204E+02   1.5829E+05  0.000E+00  0.000E+00  0.000E+00  3.41580E+01  1.580E-01  2.000E+01  2.000E+04 -1.260E-02
   1   16   27     3     6    1.5829E+05 -2.7501E+02   1.5856E+05  0.000E+00  0.000E+00  0.000E+00  3.32693E+01  1.582E-01  2.000E+01  2.000E+04 -1.375E-02
   1   17   28     3     7    1.5856E+05 -1.3223E+03   1.5988E+05  0.000E+00  0.000E+00  0.000E+00  3.23809E+01  1.587E-01  2.000E+01  2.000E+04 -6.612E-02
   1   18   29     3     8    1.5988E+05 -2.6825E+03   1.6257E+05  0.000E+00  0.000E+00  0.000E+00  3.14932E+01  1.599E-01  2.000E+01  2.000E+04 -1.341E-01
   1   18   30     3     9    1.6257E+05 -2.9979E+03   1.6556E+05  0.000E+00  0.000E+00  0.000E+00  3.06060E+01  1.616E-01  2.000E+01  2.000E+04 -1.499E-01



1
              HEAD IN LAYER   1 AT END OF TIME STEP   1 IN STRESS PERIOD   11
  ---------------------------------------------------------------------------

          1      2      3      4      5      6      7      8      9     10
         11     12     13     14     15     16     17     18     19     20
         21     22     23     24     25     26     27     28     29     30
 .........................................................................
   1  ****** ****** ****** ****** ****** ****** ****** ****** ****** ******
      ****** ****** ****** ****** ****** ****** ****** ****** ****** ******
      ****** ****** ****** ****** ****** ****** ****** ****** ****** ******
   2  ****** ****** ****** ****** ****** ****** ****** ****** ****** ******
      ****** ****** ****** ****** ****** ****** ****** ****** ****** ******
      ****** ****** ****** ****** ****** ****** ****** ****** ****** ******
   3  ****** ****** ****** ****** ****** ****** ****** ****** ****** ******
      ****** ****** ****** ****** ****** ****** ****** ****** ****** ******
      ****** ****** ****** ****** ****** ****** ****** ****** ****** ******
   4  ****** ****** ****** ****** ****** ****** ****** ****** ****** ******
      ****** ****** ****** ****** ****** ****** ****** ****** ****** ******
      ****** ****** ****** ****** ****** ****** ****** ****** ****** ******
   5  ****** ****** ****** ****** ****** ****** ****** ****** ****** ******
      ****** ****** ****** ****** ****** ****** ****** ****** ****** ******
      ****** ****** ****** ****** ****** ****** ****** ****** ****** ******
   6  ****** ****** ****** ****** ****** ****** ****** ****** ****** ******
      ****** ****** ****** ****** ****** ****** ****** ****** ****** ******
      ****** ****** ****** ****** ****** ****** ****** ****** ****** ******
   7  ****** ****** ****** ****** ****** ****** ****** ****** ****** ******
      ****** ****** ****** ****** ****** ****** ****** ****** ****** ******
      ****** ****** ****** ****** ****** ****** ****** ****** ****** ******
   8  ****** ****** ****** ****** ****** ****** ****** ****** ****** ******
      ****** ****** ****** ****** ****** ****** ****** ****** ****** ******
      ****** ****** ****** ****** ****** ****** ****** ****** ****** ******
   9  ****** ****** ****** ****** ****** ****** ****** ****** ****** ******
      ****** ****** ****** ****** ****** ****** ****** ****** ****** ******
      ****** ****** ****** ****** ****** ****** ****** ****** ****** ******
  10  ****** ****** ****** ****** ****** ****** ****** ****** ****** ******
      ****** ****** ****** ****** ****** ****** ****** ****** ****** ******
      ****** ****** ****** ****** ****** ****** ****** ****** ****** ******
  11  ****** ****** ****** ****** ****** ****** ****** ****** ****** ******
      ****** ****** ****** ****** ****** ****** ****** ****** ****** ******
      ****** ****** ****** ****** ****** ****** ****** ****** ****** ******
  12  ****** ****** ****** ****** ****** ****** ****** ****** ****** ******
      ****** ****** ****** ****** ****** ****** ****** ****** ****** ******
      ****** ****** ****** ****** ****** ****** ****** ****** ****** ******
  13  ****** ****** ****** ****** ****** ****** ****** ****** ****** ******
      ****** ****** ****** ****** ****** ****** ****** ****** ****** ******
      ****** ****** ****** ****** ****** ****** ****** ****** ****** ******
  14  ****** ****** ****** ****** ****** ****** ****** ****** ****** ******
      ****** ****** ****** ****** ****** ****** ****** ****** ****** ******
      ****** ****** ****** ****** ****** ****** ****** ****** ****** ******
  15  ****** ****** ****** ****** ****** ****** ****** ****** ****** ******
      ****** ****** ****** ****** ****** ****** ****** ****** ****** ******
      ****** ****** ****** ****** ****** ****** ****** ****** ****** ******
  16  ****** ****** ****** ****** ****** ****** ****** ****** ****** ******
      ****** ****** ****** ****** ****** ****** ****** ****** ****** ******
      ****** ****** ****** ****** ****** ****** ****** ****** ****** ******
  17  ****** ****** ****** ****** ****** ****** ****** ****** ****** ******
      ****** ****** ****** ****** ****** ****** ****** ****** ****** ******
      ****** ****** ****** ****** ****** ****** ****** ****** ****** ******
  18  ****** ****** ****** ****** ****** ****** ****** ****** ****** ******
      ****** ****** ****** ****** ****** ****** ****** ****** ****** ******
      ****** ****** ****** ****** ****** ****** ****** ****** ****** ******
  19  ****** ****** ****** ****** ****** ****** ****** ****** ****** ******
      ****** ****** ****** ****** ****** ****** ****** ****** ****** ******
      ****** ****** ****** ****** ****** ****** ****** ****** ****** ******
  20  ****** ****** ****** ****** ****** ****** ****** ****** ****** ******
      ****** ****** ****** ****** ****** ****** ****** ****** ****** ******
      ****** ****** ****** ****** ****** ****** ****** ****** ****** ******
  21  ****** ****** ****** ****** ****** ****** ****** ****** ****** ******
      ****** ****** ****** ****** ****** ****** ****** ****** ****** ******
      ****** ****** ****** ****** ****** ****** ****** ****** ****** ******
  22  ****** ****** ****** ****** ****** ****** ****** ****** ****** ******
      ****** ****** ****** ****** ****** ****** ****** ****** ****** ******
      ****** ****** ****** ****** ****** ****** ****** ****** ****** ******
  23  ****** ****** ****** ****** ****** ****** ****** ****** ****** ******
      ****** ****** ****** ****** ****** ****** ****** ****** ****** ******
      ****** ****** ****** ****** ****** ****** ****** ****** ****** ******
  24  ****** ****** ****** ****** ****** ****** ****** ****** ****** ******
      ****** ****** ****** ****** ****** ****** ****** ****** ****** ******
      ****** ****** ****** ****** ****** ****** ****** ****** ****** ******
  25  ****** ****** ****** ****** ****** ****** ****** ****** ****** ******
      ****** ****** ****** ****** ****** ****** ****** ****** ****** ******
      ****** ****** ****** ****** ****** ****** ****** ****** ****** ******

 HEAD WILL BE SAVED ON UNIT   51 AT END OF TIME STEP    1, STRESS PERIOD   11
1
  VOLUMETRIC BUDGET FOR ENTIRE MODEL AT END OF TIME STEP    1, STRESS PERIOD  11
  ------------------------------------------------------------------------------

     CUMULATIVE VOLUMES      L**3       RATES FOR THIS TIME STEP      L**3/T
     ------------------                 ------------------------

           IN:                                      IN:
           ---                                      ---
             STORAGE =    36253132.0512               STORAGE =       18030.9993
       CONSTANT HEAD =    29259400.9761         CONSTANT HEAD =       35646.6271
               WELLS =           0.0000                 WELLS =           0.0000
            RECHARGE =    23901600.0000              RECHARGE =           0.0000
      STREAM LEAKAGE =    14725768.4023        STREAM LEAKAGE =       18577.7815

            TOTAL IN =   104139901.4296              TOTAL IN =       72255.4079

          OUT:                                     OUT:
          ----                                     ----
             STORAGE =     2314484.7032               STORAGE =           0.0000
       CONSTANT HEAD =           0.0000         CONSTANT HEAD =           0.0000
               WELLS =    38265407.2281                 WELLS =       38112.9554
            RECHARGE =           0.0000              RECHARGE =           0.0000
      STREAM LEAKAGE =    63560011.4209        STREAM LEAKAGE =       34142.4574

           TOTAL OUT =   104139903.3521             TOTAL OUT =       72255.4128

            IN - OUT =          -1.9225              IN - OUT =      -4.8546E-03

 PERCENT DISCREPANCY =          -0.00     PERCENT DISCREPANCY =          -0.00






         TIME SUMMARY AT END OF TIME STEP    1 IN STRESS PERIOD   11
                    SECONDS     MINUTES      HOURS       DAYS        YEARS
                    -----------------------------------------------------------
   TIME STEP LENGTH 7.86240E+06 1.31040E+05  2184.0      91.000     0.24914    
 STRESS PERIOD TIME 7.86240E+06 1.31040E+05  2184.0      91.000     0.24914    
         TOTAL TIME 8.67456E+07 1.44576E+06  24096.      1004.0      2.7488    
1
1
                            STRESS PERIOD NO.   12, LENGTH =   91.00000    
                            -----------------------------------------------

                              NUMBER OF TIME STEPS =     1

                               MULTIPLIER FOR DELT =     1.500

                            INITIAL TIME STEP SIZE =   91.00000    

 WELL NO.  LAYER   ROW   COL   STRESS RATE         
 --------------------------------------------------
      1      1     11     23      -9982.    
      2      1     13     22      -7684.    
      3      1      6     18     -0.1279E+05
      4      1      7     23      -7655.    

      4 WELLS

                 RECHARGE =  1.000000E-03

 REUSING STREAM SEGMENT DATA FROM LAST STRESS PERIOD
 
 SOLVING FOR HEAD 


     7 CALLS TO PCG ROUTINE FOR TIME STEP   1 IN STRESS PERIOD   12
    24 TOTAL ITERATIONS

 OUTPUT CONTROL FOR STRESS PERIOD   12   TIME STEP    1
    SAVE BUDGET
    SAVE HEAD FOR ALL LAYERS
    PRINT HEAD FOR ALL LAYERS
 UBDSV2 SAVING "STREAMFLOW OUT  " ON UNIT  50 AT TIME STEP  1, STRESS PERIOD  12



 STREAM LISTING     PERIOD     12   STEP        1

 LAYER ROW COL. STREAM  RCH.  FLOW INTO     FLOW TO   FLOW OUT OF   OVRLND.     DIRECT     STREAM       STREAM     STREAM     STREAM   STREAMBED  STREAMBED
                SEG.NO.  NO.  STRM. RCH.    AQUIFER    STRM. RCH.    RUNOFF     PRECIP       ET          HEAD       DEPTH      WIDTH   CONDCTNC.   GRADIENT

   1   13    1     1     1    1.0000E+05 -1.5210E+03   1.0152E+05  0.000E+00  0.000E+00  0.000E+00  4.84067E+01  1.453E-01  2.000E+01  2.000E+04 -7.605E-02
   1   13    2     1     2    1.0152E+05 -2.4405E+03   1.0396E+05  0.000E+00  0.000E+00  0.000E+00  4.79311E+01  1.470E-01  2.000E+01  2.000E+04 -1.220E-01
   1   14    3     1     3    1.0396E+05 -4.2377E+02   1.0439E+05  0.000E+00  0.000E+00  0.000E+00  4.74551E+01  1.482E-01  2.000E+01  2.000E+04 -2.119E-02
   1   15    4     1     4    1.0439E+05 -4.0643E+02   1.0479E+05  0.000E+00  0.000E+00  0.000E+00  4.69781E+01  1.486E-01  2.000E+01  2.000E+04 -2.032E-02
   1   16    5     1     5    1.0479E+05 -1.6192E+03   1.0641E+05  0.000E+00  0.000E+00  0.000E+00  4.65017E+01  1.495E-01  2.000E+01  2.000E+04 -8.096E-02
   1   16    6     1     6    1.0641E+05 -1.0186E+03   1.0743E+05  0.000E+00  0.000E+00  0.000E+00  4.60256E+01  1.506E-01  2.000E+01  2.000E+04 -5.093E-02
   1   16    7     1     7    1.0743E+05 -1.0006E+03   1.0843E+05  0.000E+00  0.000E+00  0.000E+00  4.55492E+01  1.514E-01  2.000E+01  2.000E+04 -5.003E-02
   1   16    8     1     8    1.0843E+05 -1.0004E+03   1.0943E+05  0.000E+00  0.000E+00  0.000E+00  4.50727E+01  1.523E-01  2.000E+01  2.000E+04 -5.002E-02
   1   16    9     1     9    1.0943E+05 -1.0001E+03   1.1043E+05  0.000E+00  0.000E+00  0.000E+00  4.45963E+01  1.531E-01  2.000E+01  2.000E+04 -5.001E-02
   1   16   10     1    10    1.1043E+05 -1.0002E+03   1.1143E+05  0.000E+00  0.000E+00  0.000E+00  4.41199E+01  1.539E-01  2.000E+01  2.000E+04 -5.001E-02
   1   16   11     1    11    1.1143E+05 -1.0192E+03   1.1245E+05  0.000E+00  0.000E+00  0.000E+00  4.36434E+01  1.548E-01  2.000E+01  2.000E+04 -5.096E-02
   1   16   12     1    12    1.1245E+05 -1.6887E+03   1.1414E+05  0.000E+00  0.000E+00  0.000E+00  4.31673E+01  1.559E-01  2.000E+01  2.000E+04 -8.444E-02
   1   15   13     1    13    1.1414E+05 -1.3869E+03   1.1553E+05  0.000E+00  0.000E+00  0.000E+00  4.26913E+01  1.572E-01  2.000E+01  2.000E+04 -6.935E-02
   1   14   14     1    14    1.1553E+05 -1.4247E+03   1.1695E+05  0.000E+00  0.000E+00  0.000E+00  4.22151E+01  1.583E-01  2.000E+01  2.000E+04 -7.123E-02
   1   13   15     1    15    1.1695E+05 -1.3954E+03   1.1835E+05  0.000E+00  0.000E+00  0.000E+00  4.17390E+01  1.595E-01  2.000E+01  2.000E+04 -6.977E-02
   1   12   16     1    16    1.1835E+05 -1.1772E+03   1.1952E+05  0.000E+00  0.000E+00  0.000E+00  4.12628E+01  1.605E-01  2.000E+01  2.000E+04 -5.886E-02
   1   12   17     1    17    1.1952E+05 -6.2837E+02   1.2015E+05  0.000E+00  0.000E+00  0.000E+00  4.07862E+01  1.612E-01  2.000E+01  2.000E+04 -3.142E-02
   1   12   18     1    18    1.2015E+05 -3.9589E+02   1.2055E+05  0.000E+00  0.000E+00  0.000E+00  4.03094E+01  1.617E-01  2.000E+01  2.000E+04 -1.979E-02
   1   12   19     1    19    1.2055E+05  3.6416E+02   1.2018E+05  0.000E+00  0.000E+00  0.000E+00  3.98321E+01  1.617E-01  2.000E+01  2.000E+04  1.821E-02
   1   13   20     1    20    1.2018E+05  8.1585E+02   1.1937E+05  0.000E+00  0.000E+00  0.000E+00  3.93544E+01  1.612E-01  2.000E+01  2.000E+04  4.079E-02
   1   14   21     1    21    1.1937E+05 -1.1067E+02   1.1948E+05  0.000E+00  0.000E+00  0.000E+00  3.88768E+01  1.609E-01  2.000E+01  2.000E+04 -5.534E-03
   1   14   22     1    22    1.1948E+05  6.2741E+03   1.1320E+05  0.000E+00  0.000E+00  0.000E+00  3.83970E+01  1.584E-01  2.000E+01  2.000E+04  3.137E-01
   1    9   30     2     1    5.0000E+04 -1.2369E+02   5.0124E+04  0.000E+00  0.000E+00  0.000E+00  4.02410E+01  1.160E-01  2.000E+01  2.000E+04 -6.185E-03
   1    9   29     2     2    5.0124E+04 -3.4886E+02   5.0473E+04  0.000E+00  0.000E+00  0.000E+00  3.99913E+01  1.163E-01  2.000E+01  2.000E+04 -1.744E-02
   1    9   28     2     3    5.0473E+04 -4.0550E+02   5.0878E+04  0.000E+00  0.000E+00  0.000E+00  3.97418E+01  1.168E-01  2.000E+01  2.000E+04 -2.028E-02
   1    9   27     2     4    5.0878E+04 -3.9144E+02   5.1269E+04  0.000E+00  0.000E+00  0.000E+00  3.94924E+01  1.174E-01  2.000E+01  2.000E+04 -1.957E-02
   1   10   26     2     5    5.1269E+04  5.5433E+02   5.0715E+04  0.000E+00  0.000E+00  0.000E+00  3.92422E+01  1.172E-01  2.000E+01  2.000E+04  2.772E-02
   1   11   25     2     6    5.0715E+04  1.8685E+03   4.8847E+04  0.000E+00  0.000E+00  0.000E+00  3.89906E+01  1.156E-01  2.000E+01  2.000E+04  9.343E-02
   1   12   24     2     7    4.8847E+04  3.3654E+03   4.5481E+04  0.000E+00  0.000E+00  0.000E+00  3.87369E+01  1.119E-01  2.000E+01  2.000E+04  1.683E-01
   1   13   23     2     8    4.5481E+04  9.8838E+02   4.4493E+04  0.000E+00  0.000E+00  0.000E+00  3.84837E+01  1.087E-01  2.000E+01  2.000E+04  4.942E-02
   1   14   22     2     9    4.4493E+04  2.9507E+03   4.1542E+04  0.000E+00  0.000E+00  0.000E+00  3.82309E+01  1.059E-01  2.000E+01  2.000E+04  1.475E-01
   1   14   22     3     1    1.5475E+05 -7.3914E+03   1.6214E+05  0.000E+00  0.000E+00  0.000E+00  3.77138E+01  1.582E-01  2.000E+01  2.000E+04 -3.696E-01
   1   15   23     3     2    1.6214E+05 -5.3895E+02   1.6268E+05  0.000E+00  0.000E+00  0.000E+00  3.68272E+01  1.606E-01  2.000E+01  2.000E+04 -2.695E-02
   1   15   24     3     3    1.6268E+05 -2.7930E+02   1.6296E+05  0.000E+00  0.000E+00  0.000E+00  3.59386E+01  1.608E-01  2.000E+01  2.000E+04 -1.396E-02
   1   15   25     3     4    1.6296E+05 -2.7175E+02   1.6323E+05  0.000E+00  0.000E+00  0.000E+00  3.50499E+01  1.610E-01  2.000E+01  2.000E+04 -1.359E-02
   1   15   26     3     5    1.6323E+05 -3.2953E+02   1.6356E+05  0.000E+00  0.000E+00  0.000E+00  3.41612E+01  1.612E-01  2.000E+01  2.000E+04 -1.648E-02
   1   16   27     3     6    1.6356E+05 -3.6183E+02   1.6392E+05  0.000E+00  0.000E+00  0.000E+00  3.32725E+01  1.614E-01  2.000E+01  2.000E+04 -1.809E-02
   1   17   28     3     7    1.6392E+05 -1.5432E+03   1.6546E+05  0.000E+00  0.000E+00  0.000E+00  3.23841E+01  1.619E-01  2.000E+01  2.000E+04 -7.716E-02
   1   18   29     3     8    1.6546E+05 -2.8835E+03   1.6835E+05  0.000E+00  0.000E+00  0.000E+00  3.14966E+01  1.632E-01  2.000E+01  2.000E+04 -1.442E-01
   1   18   30     3     9    1.6835E+05 -3.1663E+03   1.7151E+05  0.000E+00  0.000E+00  0.000E+00  3.06094E+01  1.650E-01  2.000E+01  2.000E+04 -1.583E-01



1
              HEAD IN LAYER   1 AT END OF TIME STEP   1 IN STRESS PERIOD   12
  ---------------------------------------------------------------------------

          1      2      3      4      5      6      7      8      9     10
         11     12     13     14     15     16     17     18     19     20
         21     22     23     24     25     26     27     28     29     30
 .........................................................................
   1  ****** ****** ****** ****** ****** ****** ****** ****** ****** ******
      ****** ****** ****** ****** ****** ****** ****** ****** ****** ******
      ****** ****** ****** ****** ****** ****** ****** ****** ****** ******
   2  ****** ****** ****** ****** ****** ****** ****** ****** ****** ******
      ****** ****** ****** ****** ****** ****** ****** ****** ****** ******
      ****** ****** ****** ****** ****** ****** ****** ****** ****** ******
   3  ****** ****** ****** ****** ****** ****** ****** ****** ****** ******
      ****** ****** ****** ****** ****** ****** ****** ****** ****** ******
      ****** ****** ****** ****** ****** ****** ****** ****** ****** ******
   4  ****** ****** ****** ****** ****** ****** ****** ****** ****** ******
      ****** ****** ****** ****** ****** ****** ****** ****** ****** ******
      ****** ****** ****** ****** ****** ****** ****** ****** ****** ******
   5  ****** ****** ****** ****** ****** ****** ****** ****** ****** ******
      ****** ****** ****** ****** ****** ****** ****** ****** ****** ******
      ****** ****** ****** ****** ****** ****** ****** ****** ****** ******
   6  ****** ****** ****** ****** ****** ****** ****** ****** ****** ******
      ****** ****** ****** ****** ****** ****** ****** ****** ****** ******
      ****** ****** ****** ****** ****** ****** ****** ****** ****** ******
   7  ****** ****** ****** ****** ****** ****** ****** ****** ****** ******
      ****** ****** ****** ****** ****** ****** ****** ****** ****** ******
      ****** ****** ****** ****** ****** ****** ****** ****** ****** ******
   8  ****** ****** ****** ****** ****** ****** ****** ****** ****** ******
      ****** ****** ****** ****** ****** ****** ****** ****** ****** ******
      ****** ****** ****** ****** ****** ****** ****** ****** ****** ******
   9  ****** ****** ****** ****** ****** ****** ****** ****** ****** ******
      ****** ****** ****** ****** ****** ****** ****** ****** ****** ******
      ****** ****** ****** ****** ****** ****** ****** ****** ****** ******
  10  ****** ****** ****** ****** ****** ****** ****** ****** ****** ******
      ****** ****** ****** ****** ****** ****** ****** ****** ****** ******
      ****** ****** ****** ****** ****** ****** ****** ****** ****** ******
  11  ****** ****** ****** ****** ****** ****** ****** ****** ****** ******
      ****** ****** ****** ****** ****** ****** ****** ****** ****** ******
      ****** ****** ****** ****** ****** ****** ****** ****** ****** ******
  12  ****** ****** ****** ****** ****** ****** ****** ****** ****** ******
      ****** ****** ****** ****** ****** ****** ****** ****** ****** ******
      ****** ****** ****** ****** ****** ****** ****** ****** ****** ******
  13  ****** ****** ****** ****** ****** ****** ****** ****** ****** ******
      ****** ****** ****** ****** ****** ****** ****** ****** ****** ******
      ****** ****** ****** ****** ****** ****** ****** ****** ****** ******
  14  ****** ****** ****** ****** ****** ****** ****** ****** ****** ******
      ****** ****** ****** ****** ****** ****** ****** ****** ****** ******
      ****** ****** ****** ****** ****** ****** ****** ****** ****** ******
  15  ****** ****** ****** ****** ****** ****** ****** ****** ****** ******
      ****** ****** ****** ****** ****** ****** ****** ****** ****** ******
      ****** ****** ****** ****** ****** ****** ****** ****** ****** ******
  16  ****** ****** ****** ****** ****** ****** ****** ****** ****** ******
      ****** ****** ****** ****** ****** ****** ****** ****** ****** ******
      ****** ****** ****** ****** ****** ****** ****** ****** ****** ******
  17  ****** ****** ****** ****** ****** ****** ****** ****** ****** ******
      ****** ****** ****** ****** ****** ****** ****** ****** ****** ******
      ****** ****** ****** ****** ****** ****** ****** ****** ****** ******
  18  ****** ****** ****** ****** ****** ****** ****** ****** ****** ******
      ****** ****** ****** ****** ****** ****** ****** ****** ****** ******
      ****** ****** ****** ****** ****** ****** ****** ****** ****** ******
  19  ****** ****** ****** ****** ****** ****** ****** ****** ****** ******
      ****** ****** ****** ****** ****** ****** ****** ****** ****** ******
      ****** ****** ****** ****** ****** ****** ****** ****** ****** ******
  20  ****** ****** ****** ****** ****** ****** ****** ****** ****** ******
      ****** ****** ****** ****** ****** ****** ****** ****** ****** ******
      ****** ****** ****** ****** ****** ****** ****** ****** ****** ******
  21  ****** ****** ****** ****** ****** ****** ****** ****** ****** ******
      ****** ****** ****** ****** ****** ****** ****** ****** ****** ******
      ****** ****** ****** ****** ****** ****** ****** ****** ****** ******
  22  ****** ****** ****** ****** ****** ****** ****** ****** ****** ******
      ****** ****** ****** ****** ****** ****** ****** ****** ****** ******
      ****** ****** ****** ****** ****** ****** ****** ****** ****** ******
  23  ****** ****** ****** ****** ****** ****** ****** ****** ****** ******
      ****** ****** ****** ****** ****** ****** ****** ****** ****** ******
      ****** ****** ****** ****** ****** ****** ****** ****** ****** ******
  24  ****** ****** ****** ****** ****** ****** ****** ****** ****** ******
      ****** ****** ****** ****** ****** ****** ****** ****** ****** ******
      ****** ****** ****** ****** ****** ****** ****** ****** ****** ******
  25  ****** ****** ****** ****** ****** ****** ****** ****** ****** ******
      ****** ****** ****** ****** ****** ****** ****** ****** ****** ******
      ****** ****** ****** ****** ****** ****** ****** ****** ****** ******

 HEAD WILL BE SAVED ON UNIT   51 AT END OF TIME STEP    1, STRESS PERIOD   12
1
  VOLUMETRIC BUDGET FOR ENTIRE MODEL AT END OF TIME STEP    1, STRESS PERIOD  12
  ------------------------------------------------------------------------------

     CUMULATIVE VOLUMES      L**3       RATES FOR THIS TIME STEP      L**3/T
     ------------------                 ------------------------

           IN:                                      IN:
           ---                                      ---
             STORAGE =    36255271.8194               STORAGE =          23.5139
       CONSTANT HEAD =    32440553.3867         CONSTANT HEAD =       34957.7188
               WELLS =           0.0000                 WELLS =           0.0000
            RECHARGE =    26413200.0000              RECHARGE =       27600.0000
      STREAM LEAKAGE =    16289284.0615        STREAM LEAKAGE =       17181.4908

            TOTAL IN =   111398309.2676              TOTAL IN =       79762.7235

          OUT:                                     OUT:
          ----                                     ----
             STORAGE =     2583536.0833               STORAGE =        2956.6086
       CONSTANT HEAD =           0.0000         CONSTANT HEAD =           0.0000
               WELLS =    41733686.1701                 WELLS =       38112.9554
            RECHARGE =           0.0000              RECHARGE =           0.0000
      STREAM LEAKAGE =    67081088.8564        STREAM LEAKAGE =       38693.1586

           TOTAL OUT =   111398311.1098             TOTAL OUT =       79762.7226

            IN - OUT =          -1.8422              IN - OUT =       8.8247E-04

 PERCENT DISCREPANCY =          -0.00     PERCENT DISCREPANCY =           0.00






         TIME SUMMARY AT END OF TIME STEP    1 IN STRESS PERIOD   12
                    SECONDS     MINUTES      HOURS       DAYS        YEARS
                    -----------------------------------------------------------
   TIME STEP LENGTH 7.86240E+06 1.31040E+05  2184.0      91.000     0.24914    
 STRESS PERIOD TIME 7.86240E+06 1.31040E+05  2184.0      91.000     0.24914    
         TOTAL TIME 9.46080E+07 1.57680E+06  26280.      1095.0      2.9979    
1

 Run end date and time (yyyy/mm/dd hh:mm:ss): 2018/10/14 23:23:46
 Elapsed run time:  0.089 Seconds

