                                  MODFLOW-2005     
      U.S. GEOLOGICAL SURVEY MODULAR FINITE-DIFFERENCE GROUND-WATER FLOW MODEL
                            VERSION 1.11.00 8/8/2013

 LIST FILE: supply2.lst
                         UNIT   10

 OPENING ..\data\supply.dis
 FILE TYPE:DIS   UNIT   11   STATUS:OLD    
 FORMAT:FORMATTED              ACCESS:SEQUENTIAL          

 OPENING ..\data\supply.ba6
 FILE TYPE:BAS6   UNIT   12   STATUS:OLD    
 FORMAT:FORMATTED              ACCESS:SEQUENTIAL          

 OPENING ..\data\supply.bc6
 FILE TYPE:BCF6   UNIT   13   STATUS:OLD    
 FORMAT:FORMATTED              ACCESS:SEQUENTIAL          

 OPENING ..\data\supply.rch
 FILE TYPE:RCH   UNIT   15   STATUS:OLD    
 FORMAT:FORMATTED              ACCESS:SEQUENTIAL          

 OPENING ..\data\supply2.sfr
 FILE TYPE:SFR   UNIT   16   STATUS:OLD    
 FORMAT:FORMATTED              ACCESS:SEQUENTIAL          

 OPENING ..\data\supply.oc
 FILE TYPE:OC   UNIT   17   STATUS:OLD    
 FORMAT:FORMATTED              ACCESS:SEQUENTIAL          

 OPENING ..\data\supply.pcg
 FILE TYPE:PCG   UNIT   18   STATUS:OLD    
 FORMAT:FORMATTED              ACCESS:SEQUENTIAL          

 OPENING supply2.wel
 FILE TYPE:WEL   UNIT   19   STATUS:OLD    
 FORMAT:FORMATTED              ACCESS:SEQUENTIAL          

 OPENING supply2sf.bin
 FILE TYPE:DATA(BINARY)   UNIT   50   STATUS:UNKNOWN
 FORMAT:BINARY                 ACCESS:SEQUENTIAL          

 OPENING supply2hd.bin
 FILE TYPE:DATA(BINARY)   UNIT   51   STATUS:UNKNOWN
 FORMAT:BINARY                 ACCESS:SEQUENTIAL          

 BAS -- BASIC PACKAGE, VERSION 7, 5/2/2005 INPUT READ FROM UNIT   12
 
 MODFLOW was compiled using uniform precision
 Precision of REAL and DOUBLE PRECISION variables:          15

 DISCRETIZATION INPUT DATA READ FROM UNIT   11
    1 LAYERS        25 ROWS        30 COLUMNS
   12 STRESS PERIOD(S) IN SIMULATION
 MODEL TIME UNIT IS DAYS
 MODEL LENGTH UNIT IS UNDEFINED
  Confining bed flag for each layer:
   0

                     DELR =   200.000    

                     DELC =   200.000    

 TOP ELEVATION OF LAYER 1 =  100.0000    

   MODEL LAYER BOTTOM EL. =   0.00000     FOR LAYER   1


 STRESS PERIOD     LENGTH       TIME STEPS     MULTIPLIER FOR DELT    SS FLAG
 ----------------------------------------------------------------------------
        1         92.00000          1                    1.500         TR
        2         91.00000          1                    1.500         TR
        3         91.00000          1                    1.500         TR
        4         91.00000          1                    1.500         TR
        5         92.00000          1                    1.500         TR
        6         91.00000          1                    1.500         TR
        7         91.00000          1                    1.500         TR
        8         91.00000          1                    1.500         TR
        9         92.00000          1                    1.500         TR
       10         91.00000          1                    1.500         TR
       11         91.00000          1                    1.500         TR
       12         91.00000          1                    1.500         TR

 TRANSIENT SIMULATION



 
 #MODOFC transient water supply sample problem                                   
 #                                                                               
 THE FREE FORMAT OPTION HAS BEEN SELECTED



                     BOUNDARY ARRAY FOR LAYER   1
 READING ON UNIT   12 WITH FORMAT: (20I4)              

 AQUIFER HEAD WILL BE SET TO   0.0000     AT ALL NO-FLOW NODES (IBOUND=0).



                       INITIAL HEAD FOR LAYER   1
 READING ON UNIT   12 WITH FORMAT: (10F13.0)           

 OUTPUT CONTROL IS SPECIFIED ONLY AT TIME STEPS FOR WHICH OUTPUT IS DESIRED
 COMPACT CELL-BY-CELL BUDGET FILES WILL BE WRITTEN
 HEAD PRINT FORMAT CODE IS  18    DRAWDOWN PRINT FORMAT CODE IS   0
 HEADS WILL BE SAVED ON UNIT   51    DRAWDOWNS WILL BE SAVED ON UNIT    0

 BCF -- BLOCK-CENTERED FLOW PACKAGE, VERSION 7, 5/2/2005
         INPUT READ FROM UNIT 13
 TRANSIENT SIMULATION
 HEAD AT CELLS THAT CONVERT TO DRY=   0.0000    
 WETTING CAPABILITY IS NOT ACTIVE
      LAYER  LAYER-TYPE CODE     INTERBLOCK T
      --------------------------------------------
         1            0          0 -- HARMONIC    

 COLUMN TO ROW ANISOTROPY =  1.000000    

     PRIMARY STORAGE COEF =  5.000000E-02 FOR LAYER   1

     TRANSMIS. ALONG ROWS =   5000.00     FOR LAYER   1

 WEL -- WELL PACKAGE, VERSION 7, 5/2/2005 INPUT READ FROM UNIT   19
 # Well package input file written by MMProc
 No named parameters
 MAXIMUM OF      7 ACTIVE WELLS AT ONE TIME


     0 Well parameters

 RCH -- RECHARGE PACKAGE, VERSION 7, 5/2/2005 INPUT READ FROM UNIT   15
 No named parameters
 OPTION 1 -- RECHARGE TO TOP LAYER


     0 Recharge parameters

 SFR7 -- STREAMFLOW ROUTING PACKAGE, VERSION 1.0.7, 2013-01-15
         INPUT READ FROM UNIT  16
 #  Supply2 test problem for GWM-VI
 #  The eighth entry in the first data line is ISTCB2 -
 #    Setting this to a negative number indicates that
 #    streamflows out of the reach will be saved to a
 #    binary file.  The absolute value of ISTCB2 is the
 #    unit to which unformatted flows will be written.
 #
 No named parameters
 Segment information will not be 
 read by reach
 No named parameters
 No specifed inflow files


 NUMBER OF STREAM REACHES IS   40

 NUMBER OF STREAM SEGMENTS IS    3

 NUMBER OF STREAM PARAMETERS IS    0

 NUMBER OF STREAM SEGMENTS DEFINED USING PARAMETERS IS              0

 MAXIMUM ERROR FOR STREAM LEAKAGE RATES IS  1.00E-04

 CONSTANT FOR MANNINGS EQUATION IS  1.2839E+05





   STREAM NETWORK DESCRIPTION: 

   LAYER    ROW    COL   SEGMENT   REACH     LENGTH
                          NUMBER   NUMBER    IN CELL        
   --------------------------------------------------
      1     13      1       1        1    2.0000E+02
      1     13      2       1        2    2.0000E+02
      1     14      3       1        3    2.0000E+02
      1     15      4       1        4    2.0000E+02
      1     16      5       1        5    2.0000E+02
      1     16      6       1        6    2.0000E+02
      1     16      7       1        7    2.0000E+02
      1     16      8       1        8    2.0000E+02
      1     16      9       1        9    2.0000E+02
      1     16     10       1       10    2.0000E+02
      1     16     11       1       11    2.0000E+02
      1     16     12       1       12    2.0000E+02
      1     15     13       1       13    2.0000E+02
      1     14     14       1       14    2.0000E+02
      1     13     15       1       15    2.0000E+02
      1     12     16       1       16    2.0000E+02
      1     12     17       1       17    2.0000E+02
      1     12     18       1       18    2.0000E+02
      1     12     19       1       19    2.0000E+02
      1     13     20       1       20    2.0000E+02
      1     14     21       1       21    2.0000E+02
      1     14     22       1       22    2.0000E+02
      1      9     30       2        1    2.0000E+02
      1      9     29       2        2    2.0000E+02
      1      9     28       2        3    2.0000E+02
      1      9     27       2        4    2.0000E+02
      1     10     26       2        5    2.0000E+02
      1     11     25       2        6    2.0000E+02
      1     12     24       2        7    2.0000E+02
      1     13     23       2        8    2.0000E+02
      1     14     22       2        9    2.0000E+02
      1     14     22       3        1    2.0000E+02
      1     15     23       3        2    2.0000E+02
      1     15     24       3        3    2.0000E+02
      1     15     25       3        4    2.0000E+02
      1     15     26       3        5    2.0000E+02
      1     16     27       3        6    2.0000E+02
      1     17     28       3        7    2.0000E+02
      1     18     29       3        8    2.0000E+02
      1     18     30       3        9    2.0000E+02




 PCG -- CONJUGATE-GRADIENT SOLUTION PACKAGE, VERSION 7, 5/2/2005
 MAXIMUM OF    500 CALLS OF SOLUTION ROUTINE
 MAXIMUM OF      5 INTERNAL ITERATIONS PER CALL TO SOLUTION ROUTINE
 MATRIX PRECONDITIONING TYPE :    1



                                    SOLUTION BY THE CONJUGATE-GRADIENT METHOD
                                   -------------------------------------------
                    MAXIMUM NUMBER OF CALLS TO PCG ROUTINE =      500
                        MAXIMUM ITERATIONS PER CALL TO PCG =        5
                               MATRIX PRECONDITIONING TYPE =        1
        RELAXATION FACTOR (ONLY USED WITH PRECOND. TYPE 1) =    0.10000E+01
 PARAMETER OF POLYNOMIAL PRECOND. = 2 (2) OR IS CALCULATED :        0
                         HEAD CHANGE CRITERION FOR CLOSURE =    0.10000E-05
                     RESIDUAL CHANGE CRITERION FOR CLOSURE =    0.10000E+01
            PCG HEAD AND RESIDUAL CHANGE PRINTOUT INTERVAL =        1
     PRINTING FROM SOLVER IS LIMITED(1) OR SUPPRESSED (>1) =        1
                            STEADY-STATE DAMPING PARAMETER =    0.10000E+01
                               TRANSIENT DAMPING PARAMETER =    0.10000E+01
1
                            STRESS PERIOD NO.    1, LENGTH =   92.00000    
                            -----------------------------------------------

                              NUMBER OF TIME STEPS =     1

                               MULTIPLIER FOR DELT =     1.500

                            INITIAL TIME STEP SIZE =   92.00000    

 WELL NO.  LAYER   ROW   COL   STRESS RATE         
 --------------------------------------------------
      1      1     22     29     -0.3000E+05
      2      1     24     24     -0.5000E+05
      3      1     24     27       0.000    

      3 WELLS

                 RECHARGE =  5.000000E-04



 CLASSIFICATION & COUNT OF STREAM SEGMENTS BASED ON SOURCE OF INFLOW:

                HEADWATER     DIVERSION     RECEIVES TRIBUTARY FLOW
                ---------     ---------     -----------------------
                     2              0               1



                    INPUT DATA FOR EACH STREAM SEGMENT
 ---------------------------------------------------------------------------------------------

 SEGMENT    SEG.     INFLOW   OVERLAND   STREAM    STREAM   ICALC  OUTFLOW  DIVERSION PRIORITY
    NO.    LENGTH     RATE     RUNOFF      ET       PPT.    METH.  TO SEG.  FROM SEG.    NO.

      1  4.400E+03 1.000E+05 0.000E+00 0.000E+00 0.000E+00    1        3        0        0
      2  1.800E+03 5.000E+04 0.000E+00 0.000E+00 0.000E+00    1        3        0        0
      3  1.800E+03 0.000E+00 0.000E+00 0.000E+00 0.000E+00    1        0        0        0


         STREAMBED PROPERTIES AND STREAM DIMENSIONS

 SEGMENT     BED HYD. COND.      BED THICKNESS     ELEV.-TOP OF BED     WIDTH OF STREAM     DEPTH OF STREAM    STREAM ROUGHNESS
    No.     UPPER     LOWER     UPPER     LOWER     UPPER     LOWER     UPPER     LOWER     UPPER     LOWER   CHANNEL      BANK

     1  5.000E+00 5.000E+00 1.000E+00 1.000E+00 4.850E+01 3.800E+01 2.000E+01 2.000E+01                     5.000E-02
     2  5.000E+00 5.000E+00 1.000E+00 1.000E+00 4.025E+01 3.800E+01 2.000E+01 2.000E+01                     5.000E-02
     3  5.000E+00 5.000E+00 1.000E+00 1.000E+00 3.800E+01 3.000E+01 2.000E+01 2.000E+01                     5.000E-02



 
 SOLVING FOR HEAD 


     8 CALLS TO PCG ROUTINE FOR TIME STEP   1 IN STRESS PERIOD    1
    32 TOTAL ITERATIONS

 OUTPUT CONTROL FOR STRESS PERIOD    1   TIME STEP    1
    SAVE BUDGET
    SAVE HEAD FOR ALL LAYERS
    PRINT HEAD FOR ALL LAYERS
 UBDSV2 SAVING "STREAMFLOW OUT  " ON UNIT  50 AT TIME STEP  1, STRESS PERIOD   1



 STREAM LISTING     PERIOD      1   STEP        1

 LAYER ROW COL. STREAM  RCH.  FLOW INTO     FLOW TO   FLOW OUT OF   OVRLND.     DIRECT     STREAM       STREAM     STREAM     STREAM   STREAMBED  STREAMBED
                SEG.NO.  NO.  STRM. RCH.    AQUIFER    STRM. RCH.    RUNOFF     PRECIP       ET          HEAD       DEPTH      WIDTH   CONDCTNC.   GRADIENT

   1   13    1     1     1    1.0000E+05 -3.1697E+04   1.3170E+05  0.000E+00  0.000E+00  0.000E+00  4.84194E+01  1.580E-01  2.000E+01  2.000E+04 -1.585E+00
   1   13    2     1     2    1.3170E+05 -4.2168E+04   1.7386E+05  0.000E+00  0.000E+00  0.000E+00  4.79706E+01  1.865E-01  2.000E+01  2.000E+04 -2.108E+00
   1   14    3     1     3    1.7386E+05 -3.7704E+04   2.1157E+05  0.000E+00  0.000E+00  0.000E+00  4.75212E+01  2.144E-01  2.000E+01  2.000E+04 -1.885E+00
   1   15    4     1     4    2.1157E+05 -3.6756E+04   2.4833E+05  0.000E+00  0.000E+00  0.000E+00  4.70679E+01  2.384E-01  2.000E+01  2.000E+04 -1.838E+00
   1   16    5     1     5    2.4833E+05 -3.7690E+04   2.8601E+05  0.000E+00  0.000E+00  0.000E+00  4.66131E+01  2.609E-01  2.000E+01  2.000E+04 -1.884E+00
   1   16    6     1     6    2.8601E+05 -3.2966E+04   3.1898E+05  0.000E+00  0.000E+00  0.000E+00  4.61560E+01  2.810E-01  2.000E+01  2.000E+04 -1.648E+00
   1   16    7     1     7    3.1898E+05 -3.2785E+04   3.5177E+05  0.000E+00  0.000E+00  0.000E+00  4.56967E+01  2.990E-01  2.000E+01  2.000E+04 -1.639E+00
   1   16    8     1     8    3.5177E+05 -3.3001E+04   3.8477E+05  0.000E+00  0.000E+00  0.000E+00  4.52367E+01  3.162E-01  2.000E+01  2.000E+04 -1.650E+00
   1   16    9     1     9    3.8477E+05 -3.3102E+04   4.1787E+05  0.000E+00  0.000E+00  0.000E+00  4.47762E+01  3.330E-01  2.000E+01  2.000E+04 -1.655E+00
   1   16   10     1    10    4.1787E+05 -3.3137E+04   4.5101E+05  0.000E+00  0.000E+00  0.000E+00  4.43151E+01  3.492E-01  2.000E+01  2.000E+04 -1.657E+00
   1   16   11     1    11    4.5101E+05 -3.3792E+04   4.8480E+05  0.000E+00  0.000E+00  0.000E+00  4.38537E+01  3.651E-01  2.000E+01  2.000E+04 -1.690E+00
   1   16   12     1    12    4.8480E+05 -3.9846E+04   5.2464E+05  0.000E+00  0.000E+00  0.000E+00  4.33934E+01  3.821E-01  2.000E+01  2.000E+04 -1.992E+00
   1   15   13     1    13    5.2464E+05 -3.9227E+04   5.6387E+05  0.000E+00  0.000E+00  0.000E+00  4.29339E+01  3.998E-01  2.000E+01  2.000E+04 -1.961E+00
   1   14   14     1    14    5.6387E+05 -4.0051E+04   6.0392E+05  0.000E+00  0.000E+00  0.000E+00  4.24738E+01  4.170E-01  2.000E+01  2.000E+04 -2.003E+00
   1   13   15     1    15    6.0392E+05 -4.2249E+04   6.4617E+05  0.000E+00  0.000E+00  0.000E+00  4.20139E+01  4.344E-01  2.000E+01  2.000E+04 -2.112E+00
   1   12   16     1    16    6.4617E+05 -4.8014E+04   6.9418E+05  0.000E+00  0.000E+00  0.000E+00  4.15552E+01  4.529E-01  2.000E+01  2.000E+04 -2.401E+00
   1   12   17     1    17    6.9418E+05 -3.7737E+04   7.3192E+05  0.000E+00  0.000E+00  0.000E+00  4.10951E+01  4.701E-01  2.000E+01  2.000E+04 -1.887E+00
   1   12   18     1    18    7.3192E+05 -3.5982E+04   7.6790E+05  0.000E+00  0.000E+00  0.000E+00  4.06323E+01  4.845E-01  2.000E+01  2.000E+04 -1.799E+00
   1   12   19     1    19    7.6790E+05 -4.0416E+04   8.0832E+05  0.000E+00  0.000E+00  0.000E+00  4.01697E+01  4.992E-01  2.000E+01  2.000E+04 -2.021E+00
   1   13   20     1    20    8.0832E+05 -3.0520E+04   8.3884E+05  0.000E+00  0.000E+00  0.000E+00  3.97057E+01  5.126E-01  2.000E+01  2.000E+04 -1.526E+00
   1   14   21     1    21    8.3884E+05 -2.2705E+04   8.6154E+05  0.000E+00  0.000E+00  0.000E+00  3.92383E+01  5.224E-01  2.000E+01  2.000E+04 -1.135E+00
   1   14   22     1    22    8.6154E+05 -2.8436E+03   8.6439E+05  0.000E+00  0.000E+00  0.000E+00  3.87658E+01  5.271E-01  2.000E+01  2.000E+04 -1.422E-01
   1    9   30     2     1    5.0000E+04 -2.9636E+04   7.9636E+04  0.000E+00  0.000E+00  0.000E+00  4.02604E+01  1.354E-01  2.000E+01  2.000E+04 -1.482E+00
   1    9   29     2     2    7.9636E+04 -3.2080E+04   1.1172E+05  0.000E+00  0.000E+00  0.000E+00  4.00460E+01  1.710E-01  2.000E+01  2.000E+04 -1.604E+00
   1    9   28     2     3    1.1172E+05 -3.6409E+04   1.4813E+05  0.000E+00  0.000E+00  0.000E+00  3.98305E+01  2.055E-01  2.000E+01  2.000E+04 -1.820E+00
   1    9   27     2     4    1.4813E+05 -5.1056E+04   1.9918E+05  0.000E+00  0.000E+00  0.000E+00  3.96196E+01  2.446E-01  2.000E+01  2.000E+04 -2.553E+00
   1   10   26     2     5    1.9918E+05 -3.7454E+04   2.3664E+05  0.000E+00  0.000E+00  0.000E+00  3.94052E+01  2.802E-01  2.000E+01  2.000E+04 -1.873E+00
   1   11   25     2     6    2.3664E+05 -2.9060E+04   2.6570E+05  0.000E+00  0.000E+00  0.000E+00  3.91802E+01  3.052E-01  2.000E+01  2.000E+04 -1.453E+00
   1   12   24     2     7    2.6570E+05 -2.2100E+04   2.8780E+05  0.000E+00  0.000E+00  0.000E+00  3.89485E+01  3.235E-01  2.000E+01  2.000E+04 -1.105E+00
   1   13   23     2     8    2.8780E+05 -1.6048E+04   3.0384E+05  0.000E+00  0.000E+00  0.000E+00  3.87117E+01  3.367E-01  2.000E+01  2.000E+04 -8.024E-01
   1   14   22     2     9    3.0384E+05 -8.7579E+03   3.1260E+05  0.000E+00  0.000E+00  0.000E+00  3.84701E+01  3.451E-01  2.000E+01  2.000E+04 -4.379E-01
   1   14   22     3     1    1.1770E+06 -1.6465E+04   1.1935E+06  0.000E+00  0.000E+00  0.000E+00  3.80847E+01  5.292E-01  2.000E+01  2.000E+04 -8.232E-01
   1   15   23     3     2    1.1935E+06 -2.6052E+04   1.2195E+06  0.000E+00  0.000E+00  0.000E+00  3.72015E+01  5.348E-01  2.000E+01  2.000E+04 -1.303E+00
   1   15   24     3     3    1.2195E+06 -2.1758E+04   1.2413E+06  0.000E+00  0.000E+00  0.000E+00  3.63189E+01  5.412E-01  2.000E+01  2.000E+04 -1.088E+00
   1   15   25     3     4    1.2413E+06 -2.1488E+04   1.2628E+06  0.000E+00  0.000E+00  0.000E+00  3.54357E+01  5.468E-01  2.000E+01  2.000E+04 -1.074E+00
   1   15   26     3     5    1.2628E+06 -2.4918E+04   1.2877E+06  0.000E+00  0.000E+00  0.000E+00  3.45529E+01  5.529E-01  2.000E+01  2.000E+04 -1.246E+00
   1   16   27     3     6    1.2877E+06 -3.1993E+04   1.3197E+06  0.000E+00  0.000E+00  0.000E+00  3.36714E+01  5.603E-01  2.000E+01  2.000E+04 -1.600E+00
   1   17   28     3     7    1.3197E+06 -3.8145E+04   1.3578E+06  0.000E+00  0.000E+00  0.000E+00  3.27915E+01  5.693E-01  2.000E+01  2.000E+04 -1.907E+00
   1   18   29     3     8    1.3578E+06 -4.6958E+04   1.4048E+06  0.000E+00  0.000E+00  0.000E+00  3.19134E+01  5.801E-01  2.000E+01  2.000E+04 -2.348E+00
   1   18   30     3     9    1.4048E+06 -4.3518E+04   1.4483E+06  0.000E+00  0.000E+00  0.000E+00  3.10358E+01  5.914E-01  2.000E+01  2.000E+04 -2.176E+00



1
              HEAD IN LAYER   1 AT END OF TIME STEP   1 IN STRESS PERIOD    1
  ---------------------------------------------------------------------------

          1      2      3      4      5      6      7      8      9     10
         11     12     13     14     15     16     17     18     19     20
         21     22     23     24     25     26     27     28     29     30
 .........................................................................
   1  ****** ****** ****** ****** ****** ****** ****** ****** ****** ******
      ****** ****** ****** ****** ****** ****** ****** ****** ****** ******
      ****** ****** ****** ****** ****** ****** ****** ****** ****** ******
   2  ****** ****** ****** ****** ****** ****** ****** ****** ****** ******
      ****** ****** ****** ****** ****** ****** ****** ****** ****** ******
      ****** ****** ****** ****** ****** ****** ****** ****** ****** ******
   3  ****** ****** ****** ****** ****** ****** ****** ****** ****** ******
      ****** ****** ****** ****** ****** ****** ****** ****** ****** ******
      ****** ****** ****** ****** ****** ****** ****** ****** ****** ******
   4  ****** ****** ****** ****** ****** ****** ****** ****** ****** ******
      ****** ****** ****** ****** ****** ****** ****** ****** ****** ******
      ****** ****** ****** ****** ****** ****** ****** ****** ****** ******
   5  ****** ****** ****** ****** ****** ****** ****** ****** ****** ******
      ****** ****** ****** ****** ****** ****** ****** ****** ****** ******
      ****** ****** ****** ****** ****** ****** ****** ****** ****** ******
   6  ****** ****** ****** ****** ****** ****** ****** ****** ****** ******
      ****** ****** ****** ****** ****** ****** ****** ****** ****** ******
      ****** ****** ****** ****** ****** ****** ****** ****** ****** ******
   7  ****** ****** ****** ****** ****** ****** ****** ****** ****** ******
      ****** ****** ****** ****** ****** ****** ****** ****** ****** ******
      ****** ****** ****** ****** ****** ****** ****** ****** ****** ******
   8  ****** ****** ****** ****** ****** ****** ****** ****** ****** ******
      ****** ****** ****** ****** ****** ****** ****** ****** ****** ******
      ****** ****** ****** ****** ****** ****** ****** ****** ****** ******
   9  ****** ****** ****** ****** ****** ****** ****** ****** ****** ******
      ****** ****** ****** ****** ****** ****** ****** ****** ****** ******
      ****** ****** ****** ****** ****** ****** ****** ****** ****** ******
  10  ****** ****** ****** ****** ****** ****** ****** ****** ****** ******
      ****** ****** ****** ****** ****** ****** ****** ****** ****** ******
      ****** ****** ****** ****** ****** ****** ****** ****** ****** ******
  11  ****** ****** ****** ****** ****** ****** ****** ****** ****** ******
      ****** ****** ****** ****** ****** ****** ****** ****** ****** ******
      ****** ****** ****** ****** ****** ****** ****** ****** ****** ******
  12  ****** ****** ****** ****** ****** ****** ****** ****** ****** ******
      ****** ****** ****** ****** ****** ****** ****** ****** ****** ******
      ****** ****** ****** ****** ****** ****** ****** ****** ****** ******
  13  ****** ****** ****** ****** ****** ****** ****** ****** ****** ******
      ****** ****** ****** ****** ****** ****** ****** ****** ****** ******
      ****** ****** ****** ****** ****** ****** ****** ****** ****** ******
  14  ****** ****** ****** ****** ****** ****** ****** ****** ****** ******
      ****** ****** ****** ****** ****** ****** ****** ****** ****** ******
      ****** ****** ****** ****** ****** ****** ****** ****** ****** ******
  15  ****** ****** ****** ****** ****** ****** ****** ****** ****** ******
      ****** ****** ****** ****** ****** ****** ****** ****** ****** ******
      ****** ****** ****** ****** ****** ****** ****** ****** ****** ******
  16  ****** ****** ****** ****** ****** ****** ****** ****** ****** ******
      ****** ****** ****** ****** ****** ****** ****** ****** ****** ******
      ****** ****** ****** ****** ****** ****** ****** ****** ****** ******
  17  ****** ****** ****** ****** ****** ****** ****** ****** ****** ******
      ****** ****** ****** ****** ****** ****** ****** ****** ****** ******
      ****** ****** ****** ****** ****** ****** ****** ****** ****** ******
  18  ****** ****** ****** ****** ****** ****** ****** ****** ****** ******
      ****** ****** ****** ****** ****** ****** ****** ****** ****** ******
      ****** ****** ****** ****** ****** ****** ****** ****** ****** ******
  19  ****** ****** ****** ****** ****** ****** ****** ****** ****** ******
      ****** ****** ****** ****** ****** ****** ****** ****** ****** ******
      ****** ****** ****** ****** ****** ****** ****** ****** ****** ******
  20  ****** ****** ****** ****** ****** ****** ****** ****** ****** ******
      ****** ****** ****** ****** ****** ****** ****** ****** ****** ******
      ****** ****** ****** ****** ****** ****** ****** ****** ****** ******
  21  ****** ****** ****** ****** ****** ****** ****** ****** ****** ******
      ****** ****** ****** ****** ****** ****** ****** ****** ****** ******
      ****** ****** ****** ****** ****** ****** ****** ****** ****** ******
  22  ****** ****** ****** ****** ****** ****** ****** ****** ****** ******
      ****** ****** ****** ****** ****** ****** ****** ****** ****** ******
      ****** ****** ****** ****** ****** ****** ****** ****** ****** ******
  23  ****** ****** ****** ****** ****** ****** ****** ****** ****** ******
      ****** ****** ****** ****** ****** ****** ****** ****** ****** ******
      ****** ****** ****** ****** ****** ****** ****** ****** ****** ******
  24  ****** ****** ****** ****** ****** ****** ****** ****** ****** ******
      ****** ****** ****** ****** ****** ****** ****** ****** ****** ******
      ****** ****** ****** ****** ****** ****** ****** ****** ****** ******
  25  ****** ****** ****** ****** ****** ****** ****** ****** ****** ******
      ****** ****** ****** ****** ****** ****** ****** ****** ****** ******
      ****** ****** ****** ****** ****** ****** ****** ****** ****** ******

 HEAD WILL BE SAVED ON UNIT   51 AT END OF TIME STEP    1, STRESS PERIOD    1
1
  VOLUMETRIC BUDGET FOR ENTIRE MODEL AT END OF TIME STEP    1, STRESS PERIOD   1
  ------------------------------------------------------------------------------

     CUMULATIVE VOLUMES      L**3       RATES FOR THIS TIME STEP      L**3/T
     ------------------                 ------------------------

           IN:                                      IN:
           ---                                      ---
             STORAGE =    19036224.8963               STORAGE =      206915.4880
       CONSTANT HEAD =   106496314.2565         CONSTANT HEAD =     1157568.6332
               WELLS =           0.0000                 WELLS =           0.0000
            RECHARGE =     1269600.0000              RECHARGE =       13800.0000
      STREAM LEAKAGE =           0.0000        STREAM LEAKAGE =           0.0000

            TOTAL IN =   126802139.1528              TOTAL IN =     1378284.1212

          OUT:                                     OUT:
          ----                                     ----
             STORAGE =           0.0000               STORAGE =           0.0000
       CONSTANT HEAD =           0.0000         CONSTANT HEAD =           0.0000
               WELLS =     7360000.0000                 WELLS =       80000.0000
            RECHARGE =           0.0000              RECHARGE =           0.0000
      STREAM LEAKAGE =   119442140.8664        STREAM LEAKAGE =     1298284.1399

           TOTAL OUT =   126802140.8664             TOTAL OUT =     1378284.1399

            IN - OUT =          -1.7135              IN - OUT =      -1.8625E-02

 PERCENT DISCREPANCY =          -0.00     PERCENT DISCREPANCY =          -0.00






         TIME SUMMARY AT END OF TIME STEP    1 IN STRESS PERIOD    1
                    SECONDS     MINUTES      HOURS       DAYS        YEARS
                    -----------------------------------------------------------
   TIME STEP LENGTH 7.94880E+06 1.32480E+05  2208.0      92.000     0.25188    
 STRESS PERIOD TIME 7.94880E+06 1.32480E+05  2208.0      92.000     0.25188    
         TOTAL TIME 7.94880E+06 1.32480E+05  2208.0      92.000     0.25188    
1
1
                            STRESS PERIOD NO.    2, LENGTH =   91.00000    
                            -----------------------------------------------

                              NUMBER OF TIME STEPS =     1

                               MULTIPLIER FOR DELT =     1.500

                            INITIAL TIME STEP SIZE =   91.00000    

 WELL NO.  LAYER   ROW   COL   STRESS RATE         
 --------------------------------------------------
      1      1     22     29     -0.3000E+05
      2      1     24     24     -0.5000E+05
      3      1     24     27       0.000    

      3 WELLS

                 RECHARGE =  2.000000E-03

 REUSING STREAM SEGMENT DATA FROM LAST STRESS PERIOD
 
 SOLVING FOR HEAD 


     6 CALLS TO PCG ROUTINE FOR TIME STEP   1 IN STRESS PERIOD    2
    24 TOTAL ITERATIONS

 OUTPUT CONTROL FOR STRESS PERIOD    2   TIME STEP    1
    SAVE BUDGET
    SAVE HEAD FOR ALL LAYERS
    PRINT HEAD FOR ALL LAYERS
 UBDSV2 SAVING "STREAMFLOW OUT  " ON UNIT  50 AT TIME STEP  1, STRESS PERIOD   2



 STREAM LISTING     PERIOD      2   STEP        1

 LAYER ROW COL. STREAM  RCH.  FLOW INTO     FLOW TO   FLOW OUT OF   OVRLND.     DIRECT     STREAM       STREAM     STREAM     STREAM   STREAMBED  STREAMBED
                SEG.NO.  NO.  STRM. RCH.    AQUIFER    STRM. RCH.    RUNOFF     PRECIP       ET          HEAD       DEPTH      WIDTH   CONDCTNC.   GRADIENT

   1   13    1     1     1    1.0000E+05 -2.8561E+04   1.2856E+05  0.000E+00  0.000E+00  0.000E+00  4.84181E+01  1.567E-01  2.000E+01  2.000E+04 -1.428E+00
   1   13    2     1     2    1.2856E+05 -3.8459E+04   1.6702E+05  0.000E+00  0.000E+00  0.000E+00  4.79669E+01  1.829E-01  2.000E+01  2.000E+04 -1.923E+00
   1   14    3     1     3    1.6702E+05 -3.3896E+04   2.0092E+05  0.000E+00  0.000E+00  0.000E+00  4.75153E+01  2.085E-01  2.000E+01  2.000E+04 -1.695E+00
   1   15    4     1     4    2.0092E+05 -3.3086E+04   2.3400E+05  0.000E+00  0.000E+00  0.000E+00  4.70601E+01  2.305E-01  2.000E+01  2.000E+04 -1.654E+00
   1   16    5     1     5    2.3400E+05 -3.4511E+04   2.6851E+05  0.000E+00  0.000E+00  0.000E+00  4.66037E+01  2.514E-01  2.000E+01  2.000E+04 -1.726E+00
   1   16    6     1     6    2.6851E+05 -3.0163E+04   2.9868E+05  0.000E+00  0.000E+00  0.000E+00  4.61454E+01  2.704E-01  2.000E+01  2.000E+04 -1.508E+00
   1   16    7     1     7    2.9868E+05 -2.9990E+04   3.2867E+05  0.000E+00  0.000E+00  0.000E+00  4.56849E+01  2.872E-01  2.000E+01  2.000E+04 -1.500E+00
   1   16    8     1     8    3.2867E+05 -3.0185E+04   3.5885E+05  0.000E+00  0.000E+00  0.000E+00  4.52239E+01  3.034E-01  2.000E+01  2.000E+04 -1.509E+00
   1   16    9     1     9    3.5885E+05 -3.0275E+04   3.8913E+05  0.000E+00  0.000E+00  0.000E+00  4.47624E+01  3.192E-01  2.000E+01  2.000E+04 -1.514E+00
   1   16   10     1    10    3.8913E+05 -3.0309E+04   4.1943E+05  0.000E+00  0.000E+00  0.000E+00  4.43004E+01  3.345E-01  2.000E+01  2.000E+04 -1.515E+00
   1   16   11     1    11    4.1943E+05 -3.0924E+04   4.5036E+05  0.000E+00  0.000E+00  0.000E+00  4.38381E+01  3.494E-01  2.000E+01  2.000E+04 -1.546E+00
   1   16   12     1    12    4.5036E+05 -3.6531E+04   4.8689E+05  0.000E+00  0.000E+00  0.000E+00  4.33768E+01  3.654E-01  2.000E+01  2.000E+04 -1.827E+00
   1   15   13     1    13    4.8689E+05 -3.5366E+04   5.2226E+05  0.000E+00  0.000E+00  0.000E+00  4.29161E+01  3.820E-01  2.000E+01  2.000E+04 -1.768E+00
   1   14   14     1    14    5.2226E+05 -3.5996E+04   5.5825E+05  0.000E+00  0.000E+00  0.000E+00  4.24548E+01  3.980E-01  2.000E+01  2.000E+04 -1.800E+00
   1   13   15     1    15    5.5825E+05 -3.8233E+04   5.9648E+05  0.000E+00  0.000E+00  0.000E+00  4.19937E+01  4.142E-01  2.000E+01  2.000E+04 -1.912E+00
   1   12   16     1    16    5.9648E+05 -4.4289E+04   6.4077E+05  0.000E+00  0.000E+00  0.000E+00  4.15340E+01  4.317E-01  2.000E+01  2.000E+04 -2.214E+00
   1   12   17     1    17    6.4077E+05 -3.4636E+04   6.7541E+05  0.000E+00  0.000E+00  0.000E+00  4.10730E+01  4.480E-01  2.000E+01  2.000E+04 -1.732E+00
   1   12   18     1    18    6.7541E+05 -3.2973E+04   7.0838E+05  0.000E+00  0.000E+00  0.000E+00  4.06094E+01  4.617E-01  2.000E+01  2.000E+04 -1.649E+00
   1   12   19     1    19    7.0838E+05 -3.7106E+04   7.4549E+05  0.000E+00  0.000E+00  0.000E+00  4.01460E+01  4.756E-01  2.000E+01  2.000E+04 -1.855E+00
   1   13   20     1    20    7.4549E+05 -2.7255E+04   7.7274E+05  0.000E+00  0.000E+00  0.000E+00  3.96813E+01  4.881E-01  2.000E+01  2.000E+04 -1.363E+00
   1   14   21     1    21    7.7274E+05 -1.9924E+04   7.9267E+05  0.000E+00  0.000E+00  0.000E+00  3.92131E+01  4.971E-01  2.000E+01  2.000E+04 -9.962E-01
   1   14   22     1    22    7.9267E+05 -1.7881E+03   7.9446E+05  0.000E+00  0.000E+00  0.000E+00  3.87399E+01  5.013E-01  2.000E+01  2.000E+04 -8.941E-02
   1    9   30     2     1    5.0000E+04 -2.6980E+04   7.6980E+04  0.000E+00  0.000E+00  0.000E+00  4.02587E+01  1.337E-01  2.000E+01  2.000E+04 -1.349E+00
   1    9   29     2     2    7.6980E+04 -2.9452E+04   1.0643E+05  0.000E+00  0.000E+00  0.000E+00  4.00417E+01  1.667E-01  2.000E+01  2.000E+04 -1.473E+00
   1    9   28     2     3    1.0643E+05 -3.3766E+04   1.4020E+05  0.000E+00  0.000E+00  0.000E+00  3.98242E+01  1.992E-01  2.000E+01  2.000E+04 -1.688E+00
   1    9   27     2     4    1.4020E+05 -4.8021E+04   1.8822E+05  0.000E+00  0.000E+00  0.000E+00  3.96115E+01  2.365E-01  2.000E+01  2.000E+04 -2.401E+00
   1   10   26     2     5    1.8822E+05 -3.4008E+04   2.2223E+05  0.000E+00  0.000E+00  0.000E+00  3.93953E+01  2.703E-01  2.000E+01  2.000E+04 -1.700E+00
   1   11   25     2     6    2.2223E+05 -2.5636E+04   2.4786E+05  0.000E+00  0.000E+00  0.000E+00  3.91683E+01  2.933E-01  2.000E+01  2.000E+04 -1.282E+00
   1   12   24     2     7    2.4786E+05 -1.8998E+04   2.6686E+05  0.000E+00  0.000E+00  0.000E+00  3.89347E+01  3.097E-01  2.000E+01  2.000E+04 -9.499E-01
   1   13   23     2     8    2.6686E+05 -1.3526E+04   2.8039E+05  0.000E+00  0.000E+00  0.000E+00  3.86963E+01  3.213E-01  2.000E+01  2.000E+04 -6.763E-01
   1   14   22     2     9    2.8039E+05 -7.5139E+03   2.8790E+05  0.000E+00  0.000E+00  0.000E+00  3.84536E+01  3.286E-01  2.000E+01  2.000E+04 -3.757E-01
   1   14   22     3     1    1.0824E+06 -1.5410E+04   1.0978E+06  0.000E+00  0.000E+00  0.000E+00  3.80588E+01  5.032E-01  2.000E+01  2.000E+04 -7.705E-01
   1   15   23     3     2    1.0978E+06 -2.3474E+04   1.1212E+06  0.000E+00  0.000E+00  0.000E+00  3.71753E+01  5.086E-01  2.000E+01  2.000E+04 -1.174E+00
   1   15   24     3     3    1.1212E+06 -1.9480E+04   1.1407E+06  0.000E+00  0.000E+00  0.000E+00  3.62923E+01  5.145E-01  2.000E+01  2.000E+04 -9.740E-01
   1   15   25     3     4    1.1407E+06 -1.9077E+04   1.1598E+06  0.000E+00  0.000E+00  0.000E+00  3.54086E+01  5.197E-01  2.000E+01  2.000E+04 -9.538E-01
   1   15   26     3     5    1.1598E+06 -2.1901E+04   1.1817E+06  0.000E+00  0.000E+00  0.000E+00  3.45253E+01  5.253E-01  2.000E+01  2.000E+04 -1.095E+00
   1   16   27     3     6    1.1817E+06 -2.8499E+04   1.2102E+06  0.000E+00  0.000E+00  0.000E+00  3.36431E+01  5.320E-01  2.000E+01  2.000E+04 -1.425E+00
   1   17   28     3     7    1.2102E+06 -3.4688E+04   1.2449E+06  0.000E+00  0.000E+00  0.000E+00  3.27626E+01  5.404E-01  2.000E+01  2.000E+04 -1.734E+00
   1   18   29     3     8    1.2449E+06 -4.3963E+04   1.2888E+06  0.000E+00  0.000E+00  0.000E+00  3.18841E+01  5.507E-01  2.000E+01  2.000E+04 -2.198E+00
   1   18   30     3     9    1.2888E+06 -4.0882E+04   1.3297E+06  0.000E+00  0.000E+00  0.000E+00  3.10062E+01  5.617E-01  2.000E+01  2.000E+04 -2.044E+00



1
              HEAD IN LAYER   1 AT END OF TIME STEP   1 IN STRESS PERIOD    2
  ---------------------------------------------------------------------------

          1      2      3      4      5      6      7      8      9     10
         11     12     13     14     15     16     17     18     19     20
         21     22     23     24     25     26     27     28     29     30
 .........................................................................
   1  ****** ****** ****** ****** ****** ****** ****** ****** ****** ******
      ****** ****** ****** ****** ****** ****** ****** ****** ****** ******
      ****** ****** ****** ****** ****** ****** ****** ****** ****** ******
   2  ****** ****** ****** ****** ****** ****** ****** ****** ****** ******
      ****** ****** ****** ****** ****** ****** ****** ****** ****** ******
      ****** ****** ****** ****** ****** ****** ****** ****** ****** ******
   3  ****** ****** ****** ****** ****** ****** ****** ****** ****** ******
      ****** ****** ****** ****** ****** ****** ****** ****** ****** ******
      ****** ****** ****** ****** ****** ****** ****** ****** ****** ******
   4  ****** ****** ****** ****** ****** ****** ****** ****** ****** ******
      ****** ****** ****** ****** ****** ****** ****** ****** ****** ******
      ****** ****** ****** ****** ****** ****** ****** ****** ****** ******
   5  ****** ****** ****** ****** ****** ****** ****** ****** ****** ******
      ****** ****** ****** ****** ****** ****** ****** ****** ****** ******
      ****** ****** ****** ****** ****** ****** ****** ****** ****** ******
   6  ****** ****** ****** ****** ****** ****** ****** ****** ****** ******
      ****** ****** ****** ****** ****** ****** ****** ****** ****** ******
      ****** ****** ****** ****** ****** ****** ****** ****** ****** ******
   7  ****** ****** ****** ****** ****** ****** ****** ****** ****** ******
      ****** ****** ****** ****** ****** ****** ****** ****** ****** ******
      ****** ****** ****** ****** ****** ****** ****** ****** ****** ******
   8  ****** ****** ****** ****** ****** ****** ****** ****** ****** ******
      ****** ****** ****** ****** ****** ****** ****** ****** ****** ******
      ****** ****** ****** ****** ****** ****** ****** ****** ****** ******
   9  ****** ****** ****** ****** ****** ****** ****** ****** ****** ******
      ****** ****** ****** ****** ****** ****** ****** ****** ****** ******
      ****** ****** ****** ****** ****** ****** ****** ****** ****** ******
  10  ****** ****** ****** ****** ****** ****** ****** ****** ****** ******
      ****** ****** ****** ****** ****** ****** ****** ****** ****** ******
      ****** ****** ****** ****** ****** ****** ****** ****** ****** ******
  11  ****** ****** ****** ****** ****** ****** ****** ****** ****** ******
      ****** ****** ****** ****** ****** ****** ****** ****** ****** ******
      ****** ****** ****** ****** ****** ****** ****** ****** ****** ******
  12  ****** ****** ****** ****** ****** ****** ****** ****** ****** ******
      ****** ****** ****** ****** ****** ****** ****** ****** ****** ******
      ****** ****** ****** ****** ****** ****** ****** ****** ****** ******
  13  ****** ****** ****** ****** ****** ****** ****** ****** ****** ******
      ****** ****** ****** ****** ****** ****** ****** ****** ****** ******
      ****** ****** ****** ****** ****** ****** ****** ****** ****** ******
  14  ****** ****** ****** ****** ****** ****** ****** ****** ****** ******
      ****** ****** ****** ****** ****** ****** ****** ****** ****** ******
      ****** ****** ****** ****** ****** ****** ****** ****** ****** ******
  15  ****** ****** ****** ****** ****** ****** ****** ****** ****** ******
      ****** ****** ****** ****** ****** ****** ****** ****** ****** ******
      ****** ****** ****** ****** ****** ****** ****** ****** ****** ******
  16  ****** ****** ****** ****** ****** ****** ****** ****** ****** ******
      ****** ****** ****** ****** ****** ****** ****** ****** ****** ******
      ****** ****** ****** ****** ****** ****** ****** ****** ****** ******
  17  ****** ****** ****** ****** ****** ****** ****** ****** ****** ******
      ****** ****** ****** ****** ****** ****** ****** ****** ****** ******
      ****** ****** ****** ****** ****** ****** ****** ****** ****** ******
  18  ****** ****** ****** ****** ****** ****** ****** ****** ****** ******
      ****** ****** ****** ****** ****** ****** ****** ****** ****** ******
      ****** ****** ****** ****** ****** ****** ****** ****** ****** ******
  19  ****** ****** ****** ****** ****** ****** ****** ****** ****** ******
      ****** ****** ****** ****** ****** ****** ****** ****** ****** ******
      ****** ****** ****** ****** ****** ****** ****** ****** ****** ******
  20  ****** ****** ****** ****** ****** ****** ****** ****** ****** ******
      ****** ****** ****** ****** ****** ****** ****** ****** ****** ******
      ****** ****** ****** ****** ****** ****** ****** ****** ****** ******
  21  ****** ****** ****** ****** ****** ****** ****** ****** ****** ******
      ****** ****** ****** ****** ****** ****** ****** ****** ****** ******
      ****** ****** ****** ****** ****** ****** ****** ****** ****** ******
  22  ****** ****** ****** ****** ****** ****** ****** ****** ****** ******
      ****** ****** ****** ****** ****** ****** ****** ****** ****** ******
      ****** ****** ****** ****** ****** ****** ****** ****** ****** ******
  23  ****** ****** ****** ****** ****** ****** ****** ****** ****** ******
      ****** ****** ****** ****** ****** ****** ****** ****** ****** ******
      ****** ****** ****** ****** ****** ****** ****** ****** ****** ******
  24  ****** ****** ****** ****** ****** ****** ****** ****** ****** ******
      ****** ****** ****** ****** ****** ****** ****** ****** ****** ******
      ****** ****** ****** ****** ****** ****** ****** ****** ****** ******
  25  ****** ****** ****** ****** ****** ****** ****** ****** ****** ******
      ****** ****** ****** ****** ****** ****** ****** ****** ****** ******
      ****** ****** ****** ****** ****** ****** ****** ****** ****** ******

 HEAD WILL BE SAVED ON UNIT   51 AT END OF TIME STEP    1, STRESS PERIOD    2
1
  VOLUMETRIC BUDGET FOR ENTIRE MODEL AT END OF TIME STEP    1, STRESS PERIOD   2
  ------------------------------------------------------------------------------

     CUMULATIVE VOLUMES      L**3       RATES FOR THIS TIME STEP      L**3/T
     ------------------                 ------------------------

           IN:                                      IN:
           ---                                      ---
             STORAGE =    19706510.3985               STORAGE =        7365.7747
       CONSTANT HEAD =   215438387.3495         CONSTANT HEAD =     1197165.6384
               WELLS =           0.0000                 WELLS =           0.0000
            RECHARGE =     6292800.0000              RECHARGE =       55200.0000
      STREAM LEAKAGE =           0.0000        STREAM LEAKAGE =           0.0000

            TOTAL IN =   241437697.7480              TOTAL IN =     1259731.4131

          OUT:                                     OUT:
          ----                                     ----
             STORAGE =           0.0000               STORAGE =           0.0000
       CONSTANT HEAD =           0.0000         CONSTANT HEAD =           0.0000
               WELLS =    14640000.0000                 WELLS =       80000.0000
            RECHARGE =           0.0000              RECHARGE =           0.0000
      STREAM LEAKAGE =   226797704.9850        STREAM LEAKAGE =     1179731.4738

           TOTAL OUT =   241437704.9850             TOTAL OUT =     1259731.4738

            IN - OUT =          -7.2370              IN - OUT =      -6.0697E-02

 PERCENT DISCREPANCY =          -0.00     PERCENT DISCREPANCY =          -0.00






         TIME SUMMARY AT END OF TIME STEP    1 IN STRESS PERIOD    2
                    SECONDS     MINUTES      HOURS       DAYS        YEARS
                    -----------------------------------------------------------
   TIME STEP LENGTH 7.86240E+06 1.31040E+05  2184.0      91.000     0.24914    
 STRESS PERIOD TIME 7.86240E+06 1.31040E+05  2184.0      91.000     0.24914    
         TOTAL TIME 1.58112E+07 2.63520E+05  4392.0      183.00     0.50103    
1
1
                            STRESS PERIOD NO.    3, LENGTH =   91.00000    
                            -----------------------------------------------

                              NUMBER OF TIME STEPS =     1

                               MULTIPLIER FOR DELT =     1.500

                            INITIAL TIME STEP SIZE =   91.00000    

 WELL NO.  LAYER   ROW   COL   STRESS RATE         
 --------------------------------------------------
      1      1     22     29     -0.3000E+05
      2      1     24     24     -0.5000E+05
      3      1     24     27       0.000    

      3 WELLS

                 RECHARGE =   0.00000    

 REUSING STREAM SEGMENT DATA FROM LAST STRESS PERIOD
 
 SOLVING FOR HEAD 


     6 CALLS TO PCG ROUTINE FOR TIME STEP   1 IN STRESS PERIOD    3
    23 TOTAL ITERATIONS

 OUTPUT CONTROL FOR STRESS PERIOD    3   TIME STEP    1
    SAVE BUDGET
    SAVE HEAD FOR ALL LAYERS
    PRINT HEAD FOR ALL LAYERS
 UBDSV2 SAVING "STREAMFLOW OUT  " ON UNIT  50 AT TIME STEP  1, STRESS PERIOD   3



 STREAM LISTING     PERIOD      3   STEP        1

 LAYER ROW COL. STREAM  RCH.  FLOW INTO     FLOW TO   FLOW OUT OF   OVRLND.     DIRECT     STREAM       STREAM     STREAM     STREAM   STREAMBED  STREAMBED
                SEG.NO.  NO.  STRM. RCH.    AQUIFER    STRM. RCH.    RUNOFF     PRECIP       ET          HEAD       DEPTH      WIDTH   CONDCTNC.   GRADIENT

   1   13    1     1     1    1.0000E+05 -2.7529E+04   1.2753E+05  0.000E+00  0.000E+00  0.000E+00  4.84177E+01  1.563E-01  2.000E+01  2.000E+04 -1.376E+00
   1   13    2     1     2    1.2753E+05 -3.7219E+04   1.6475E+05  0.000E+00  0.000E+00  0.000E+00  4.79657E+01  1.816E-01  2.000E+01  2.000E+04 -1.861E+00
   1   14    3     1     3    1.6475E+05 -3.2697E+04   1.9745E+05  0.000E+00  0.000E+00  0.000E+00  4.75134E+01  2.066E-01  2.000E+01  2.000E+04 -1.635E+00
   1   15    4     1     4    1.9745E+05 -3.1944E+04   2.2939E+05  0.000E+00  0.000E+00  0.000E+00  4.70575E+01  2.280E-01  2.000E+01  2.000E+04 -1.597E+00
   1   16    5     1     5    2.2939E+05 -3.3492E+04   2.6288E+05  0.000E+00  0.000E+00  0.000E+00  4.66006E+01  2.483E-01  2.000E+01  2.000E+04 -1.675E+00
   1   16    6     1     6    2.6288E+05 -2.9273E+04   2.9216E+05  0.000E+00  0.000E+00  0.000E+00  4.61419E+01  2.669E-01  2.000E+01  2.000E+04 -1.464E+00
   1   16    7     1     7    2.9216E+05 -2.9107E+04   3.2126E+05  0.000E+00  0.000E+00  0.000E+00  4.56811E+01  2.834E-01  2.000E+01  2.000E+04 -1.455E+00
   1   16    8     1     8    3.2126E+05 -2.9299E+04   3.5056E+05  0.000E+00  0.000E+00  0.000E+00  4.52197E+01  2.993E-01  2.000E+01  2.000E+04 -1.465E+00
   1   16    9     1     9    3.5056E+05 -2.9388E+04   3.7995E+05  0.000E+00  0.000E+00  0.000E+00  4.47579E+01  3.147E-01  2.000E+01  2.000E+04 -1.469E+00
   1   16   10     1    10    3.7995E+05 -2.9425E+04   4.0937E+05  0.000E+00  0.000E+00  0.000E+00  4.42956E+01  3.297E-01  2.000E+01  2.000E+04 -1.471E+00
   1   16   11     1    11    4.0937E+05 -3.0030E+04   4.3940E+05  0.000E+00  0.000E+00  0.000E+00  4.38330E+01  3.443E-01  2.000E+01  2.000E+04 -1.501E+00
   1   16   12     1    12    4.3940E+05 -3.5489E+04   4.7489E+05  0.000E+00  0.000E+00  0.000E+00  4.33714E+01  3.600E-01  2.000E+01  2.000E+04 -1.774E+00
   1   15   13     1    13    4.7489E+05 -3.4204E+04   5.0910E+05  0.000E+00  0.000E+00  0.000E+00  4.29104E+01  3.763E-01  2.000E+01  2.000E+04 -1.710E+00
   1   14   14     1    14    5.0910E+05 -3.4789E+04   5.4389E+05  0.000E+00  0.000E+00  0.000E+00  4.24487E+01  3.919E-01  2.000E+01  2.000E+04 -1.739E+00
   1   13   15     1    15    5.4389E+05 -3.7033E+04   5.8092E+05  0.000E+00  0.000E+00  0.000E+00  4.19873E+01  4.077E-01  2.000E+01  2.000E+04 -1.852E+00
   1   12   16     1    16    5.8092E+05 -4.3127E+04   6.2405E+05  0.000E+00  0.000E+00  0.000E+00  4.15272E+01  4.249E-01  2.000E+01  2.000E+04 -2.156E+00
   1   12   17     1    17    6.2405E+05 -3.3709E+04   6.5776E+05  0.000E+00  0.000E+00  0.000E+00  4.10660E+01  4.410E-01  2.000E+01  2.000E+04 -1.685E+00
   1   12   18     1    18    6.5776E+05 -3.2093E+04   6.8985E+05  0.000E+00  0.000E+00  0.000E+00  4.06021E+01  4.544E-01  2.000E+01  2.000E+04 -1.605E+00
   1   12   19     1    19    6.8985E+05 -3.6149E+04   7.2600E+05  0.000E+00  0.000E+00  0.000E+00  4.01385E+01  4.681E-01  2.000E+01  2.000E+04 -1.807E+00
   1   13   20     1    20    7.2600E+05 -2.6368E+04   7.5237E+05  0.000E+00  0.000E+00  0.000E+00  3.96736E+01  4.804E-01  2.000E+01  2.000E+04 -1.318E+00
   1   14   21     1    21    7.5237E+05 -1.9162E+04   7.7153E+05  0.000E+00  0.000E+00  0.000E+00  3.92051E+01  4.892E-01  2.000E+01  2.000E+04 -9.581E-01
   1   14   22     1    22    7.7153E+05 -1.5257E+03   7.7305E+05  0.000E+00  0.000E+00  0.000E+00  3.87318E+01  4.932E-01  2.000E+01  2.000E+04 -7.629E-02
   1    9   30     2     1    5.0000E+04 -2.6312E+04   7.6312E+04  0.000E+00  0.000E+00  0.000E+00  4.02583E+01  1.333E-01  2.000E+01  2.000E+04 -1.316E+00
   1    9   29     2     2    7.6312E+04 -2.8784E+04   1.0510E+05  0.000E+00  0.000E+00  0.000E+00  4.00406E+01  1.656E-01  2.000E+01  2.000E+04 -1.439E+00
   1    9   28     2     3    1.0510E+05 -3.3074E+04   1.3817E+05  0.000E+00  0.000E+00  0.000E+00  3.98225E+01  1.975E-01  2.000E+01  2.000E+04 -1.654E+00
   1    9   27     2     4    1.3817E+05 -4.7168E+04   1.8534E+05  0.000E+00  0.000E+00  0.000E+00  3.96094E+01  2.344E-01  2.000E+01  2.000E+04 -2.358E+00
   1   10   26     2     5    1.8534E+05 -3.3119E+04   2.1846E+05  0.000E+00  0.000E+00  0.000E+00  3.93927E+01  2.677E-01  2.000E+01  2.000E+04 -1.656E+00
   1   11   25     2     6    2.1846E+05 -2.4778E+04   2.4323E+05  0.000E+00  0.000E+00  0.000E+00  3.91651E+01  2.901E-01  2.000E+01  2.000E+04 -1.239E+00
   1   12   24     2     7    2.4323E+05 -1.8232E+04   2.6147E+05  0.000E+00  0.000E+00  0.000E+00  3.89310E+01  3.060E-01  2.000E+01  2.000E+04 -9.116E-01
   1   13   23     2     8    2.6147E+05 -1.2906E+04   2.7437E+05  0.000E+00  0.000E+00  0.000E+00  3.86922E+01  3.172E-01  2.000E+01  2.000E+04 -6.453E-01
   1   14   22     2     9    2.7437E+05 -7.1755E+03   2.8155E+05  0.000E+00  0.000E+00  0.000E+00  3.84493E+01  3.243E-01  2.000E+01  2.000E+04 -3.588E-01
   1   14   22     3     1    1.0546E+06 -1.5141E+04   1.0697E+06  0.000E+00  0.000E+00  0.000E+00  3.80510E+01  4.955E-01  2.000E+01  2.000E+04 -7.571E-01
   1   15   23     3     2    1.0697E+06 -2.2771E+04   1.0925E+06  0.000E+00  0.000E+00  0.000E+00  3.71674E+01  5.008E-01  2.000E+01  2.000E+04 -1.139E+00
   1   15   24     3     3    1.0925E+06 -1.8904E+04   1.1114E+06  0.000E+00  0.000E+00  0.000E+00  3.62843E+01  5.065E-01  2.000E+01  2.000E+04 -9.452E-01
   1   15   25     3     4    1.1114E+06 -1.8506E+04   1.1299E+06  0.000E+00  0.000E+00  0.000E+00  3.54006E+01  5.117E-01  2.000E+01  2.000E+04 -9.253E-01
   1   15   26     3     5    1.1299E+06 -2.1234E+04   1.1512E+06  0.000E+00  0.000E+00  0.000E+00  3.45171E+01  5.171E-01  2.000E+01  2.000E+04 -1.062E+00
   1   16   27     3     6    1.1512E+06 -2.7691E+04   1.1789E+06  0.000E+00  0.000E+00  0.000E+00  3.36348E+01  5.237E-01  2.000E+01  2.000E+04 -1.385E+00
   1   17   28     3     7    1.1789E+06 -3.3862E+04   1.2127E+06  0.000E+00  0.000E+00  0.000E+00  3.27542E+01  5.320E-01  2.000E+01  2.000E+04 -1.693E+00
   1   18   29     3     8    1.2127E+06 -4.3191E+04   1.2559E+06  0.000E+00  0.000E+00  0.000E+00  3.18755E+01  5.422E-01  2.000E+01  2.000E+04 -2.160E+00
   1   18   30     3     9    1.2559E+06 -4.0240E+04   1.2961E+06  0.000E+00  0.000E+00  0.000E+00  3.09976E+01  5.531E-01  2.000E+01  2.000E+04 -2.012E+00



1
              HEAD IN LAYER   1 AT END OF TIME STEP   1 IN STRESS PERIOD    3
  ---------------------------------------------------------------------------

          1      2      3      4      5      6      7      8      9     10
         11     12     13     14     15     16     17     18     19     20
         21     22     23     24     25     26     27     28     29     30
 .........................................................................
   1  ****** ****** ****** ****** ****** ****** ****** ****** ****** ******
      ****** ****** ****** ****** ****** ****** ****** ****** ****** ******
      ****** ****** ****** ****** ****** ****** ****** ****** ****** ******
   2  ****** ****** ****** ****** ****** ****** ****** ****** ****** ******
      ****** ****** ****** ****** ****** ****** ****** ****** ****** ******
      ****** ****** ****** ****** ****** ****** ****** ****** ****** ******
   3  ****** ****** ****** ****** ****** ****** ****** ****** ****** ******
      ****** ****** ****** ****** ****** ****** ****** ****** ****** ******
      ****** ****** ****** ****** ****** ****** ****** ****** ****** ******
   4  ****** ****** ****** ****** ****** ****** ****** ****** ****** ******
      ****** ****** ****** ****** ****** ****** ****** ****** ****** ******
      ****** ****** ****** ****** ****** ****** ****** ****** ****** ******
   5  ****** ****** ****** ****** ****** ****** ****** ****** ****** ******
      ****** ****** ****** ****** ****** ****** ****** ****** ****** ******
      ****** ****** ****** ****** ****** ****** ****** ****** ****** ******
   6  ****** ****** ****** ****** ****** ****** ****** ****** ****** ******
      ****** ****** ****** ****** ****** ****** ****** ****** ****** ******
      ****** ****** ****** ****** ****** ****** ****** ****** ****** ******
   7  ****** ****** ****** ****** ****** ****** ****** ****** ****** ******
      ****** ****** ****** ****** ****** ****** ****** ****** ****** ******
      ****** ****** ****** ****** ****** ****** ****** ****** ****** ******
   8  ****** ****** ****** ****** ****** ****** ****** ****** ****** ******
      ****** ****** ****** ****** ****** ****** ****** ****** ****** ******
      ****** ****** ****** ****** ****** ****** ****** ****** ****** ******
   9  ****** ****** ****** ****** ****** ****** ****** ****** ****** ******
      ****** ****** ****** ****** ****** ****** ****** ****** ****** ******
      ****** ****** ****** ****** ****** ****** ****** ****** ****** ******
  10  ****** ****** ****** ****** ****** ****** ****** ****** ****** ******
      ****** ****** ****** ****** ****** ****** ****** ****** ****** ******
      ****** ****** ****** ****** ****** ****** ****** ****** ****** ******
  11  ****** ****** ****** ****** ****** ****** ****** ****** ****** ******
      ****** ****** ****** ****** ****** ****** ****** ****** ****** ******
      ****** ****** ****** ****** ****** ****** ****** ****** ****** ******
  12  ****** ****** ****** ****** ****** ****** ****** ****** ****** ******
      ****** ****** ****** ****** ****** ****** ****** ****** ****** ******
      ****** ****** ****** ****** ****** ****** ****** ****** ****** ******
  13  ****** ****** ****** ****** ****** ****** ****** ****** ****** ******
      ****** ****** ****** ****** ****** ****** ****** ****** ****** ******
      ****** ****** ****** ****** ****** ****** ****** ****** ****** ******
  14  ****** ****** ****** ****** ****** ****** ****** ****** ****** ******
      ****** ****** ****** ****** ****** ****** ****** ****** ****** ******
      ****** ****** ****** ****** ****** ****** ****** ****** ****** ******
  15  ****** ****** ****** ****** ****** ****** ****** ****** ****** ******
      ****** ****** ****** ****** ****** ****** ****** ****** ****** ******
      ****** ****** ****** ****** ****** ****** ****** ****** ****** ******
  16  ****** ****** ****** ****** ****** ****** ****** ****** ****** ******
      ****** ****** ****** ****** ****** ****** ****** ****** ****** ******
      ****** ****** ****** ****** ****** ****** ****** ****** ****** ******
  17  ****** ****** ****** ****** ****** ****** ****** ****** ****** ******
      ****** ****** ****** ****** ****** ****** ****** ****** ****** ******
      ****** ****** ****** ****** ****** ****** ****** ****** ****** ******
  18  ****** ****** ****** ****** ****** ****** ****** ****** ****** ******
      ****** ****** ****** ****** ****** ****** ****** ****** ****** ******
      ****** ****** ****** ****** ****** ****** ****** ****** ****** ******
  19  ****** ****** ****** ****** ****** ****** ****** ****** ****** ******
      ****** ****** ****** ****** ****** ****** ****** ****** ****** ******
      ****** ****** ****** ****** ****** ****** ****** ****** ****** ******
  20  ****** ****** ****** ****** ****** ****** ****** ****** ****** ******
      ****** ****** ****** ****** ****** ****** ****** ****** ****** ******
      ****** ****** ****** ****** ****** ****** ****** ****** ****** ******
  21  ****** ****** ****** ****** ****** ****** ****** ****** ****** ******
      ****** ****** ****** ****** ****** ****** ****** ****** ****** ******
      ****** ****** ****** ****** ****** ****** ****** ****** ****** ******
  22  ****** ****** ****** ****** ****** ****** ****** ****** ****** ******
      ****** ****** ****** ****** ****** ****** ****** ****** ****** ******
      ****** ****** ****** ****** ****** ****** ****** ****** ****** ******
  23  ****** ****** ****** ****** ****** ****** ****** ****** ****** ******
      ****** ****** ****** ****** ****** ****** ****** ****** ****** ******
      ****** ****** ****** ****** ****** ****** ****** ****** ****** ******
  24  ****** ****** ****** ****** ****** ****** ****** ****** ****** ******
      ****** ****** ****** ****** ****** ****** ****** ****** ****** ******
      ****** ****** ****** ****** ****** ****** ****** ****** ****** ******
  25  ****** ****** ****** ****** ****** ****** ****** ****** ****** ******
      ****** ****** ****** ****** ****** ****** ****** ****** ****** ******
      ****** ****** ****** ****** ****** ****** ****** ****** ****** ******

 HEAD WILL BE SAVED ON UNIT   51 AT END OF TIME STEP    1, STRESS PERIOD    3
1
  VOLUMETRIC BUDGET FOR ENTIRE MODEL AT END OF TIME STEP    1, STRESS PERIOD   3
  ------------------------------------------------------------------------------

     CUMULATIVE VOLUMES      L**3       RATES FOR THIS TIME STEP      L**3/T
     ------------------                 ------------------------

           IN:                                      IN:
           ---                                      ---
             STORAGE =    19983642.0972               STORAGE =        3045.4033
       CONSTANT HEAD =   326740454.2844         CONSTANT HEAD =     1223099.6366
               WELLS =           0.0000                 WELLS =           0.0000
            RECHARGE =     6292800.0000              RECHARGE =           0.0000
      STREAM LEAKAGE =           0.0000        STREAM LEAKAGE =           0.0000

            TOTAL IN =   353016896.3816              TOTAL IN =     1226145.0399

          OUT:                                     OUT:
          ----                                     ----
             STORAGE =           0.0000               STORAGE =           0.0000
       CONSTANT HEAD =           0.0000         CONSTANT HEAD =           0.0000
               WELLS =    21920000.0000                 WELLS =       80000.0000
            RECHARGE =           0.0000              RECHARGE =           0.0000
      STREAM LEAKAGE =   331096907.4353        STREAM LEAKAGE =     1146145.0819

           TOTAL OUT =   353016907.4353             TOTAL OUT =     1226145.0819

            IN - OUT =         -11.0537              IN - OUT =      -4.1942E-02

 PERCENT DISCREPANCY =          -0.00     PERCENT DISCREPANCY =          -0.00






         TIME SUMMARY AT END OF TIME STEP    1 IN STRESS PERIOD    3
                    SECONDS     MINUTES      HOURS       DAYS        YEARS
                    -----------------------------------------------------------
   TIME STEP LENGTH 7.86240E+06 1.31040E+05  2184.0      91.000     0.24914    
 STRESS PERIOD TIME 7.86240E+06 1.31040E+05  2184.0      91.000     0.24914    
         TOTAL TIME 2.36736E+07 3.94560E+05  6576.0      274.00     0.75017    
1
1
                            STRESS PERIOD NO.    4, LENGTH =   91.00000    
                            -----------------------------------------------

                              NUMBER OF TIME STEPS =     1

                               MULTIPLIER FOR DELT =     1.500

                            INITIAL TIME STEP SIZE =   91.00000    

 WELL NO.  LAYER   ROW   COL   STRESS RATE         
 --------------------------------------------------
      1      1     22     29     -0.3000E+05
      2      1     24     24       0.000    
      3      1     24     27       0.000    

      3 WELLS

                 RECHARGE =  1.000000E-03

 REUSING STREAM SEGMENT DATA FROM LAST STRESS PERIOD
 
 SOLVING FOR HEAD 


     6 CALLS TO PCG ROUTINE FOR TIME STEP   1 IN STRESS PERIOD    4
    22 TOTAL ITERATIONS

 OUTPUT CONTROL FOR STRESS PERIOD    4   TIME STEP    1
    SAVE BUDGET
    SAVE HEAD FOR ALL LAYERS
    PRINT HEAD FOR ALL LAYERS
 UBDSV2 SAVING "STREAMFLOW OUT  " ON UNIT  50 AT TIME STEP  1, STRESS PERIOD   4



 STREAM LISTING     PERIOD      4   STEP        1

 LAYER ROW COL. STREAM  RCH.  FLOW INTO     FLOW TO   FLOW OUT OF   OVRLND.     DIRECT     STREAM       STREAM     STREAM     STREAM   STREAMBED  STREAMBED
                SEG.NO.  NO.  STRM. RCH.    AQUIFER    STRM. RCH.    RUNOFF     PRECIP       ET          HEAD       DEPTH      WIDTH   CONDCTNC.   GRADIENT

   1   13    1     1     1    1.0000E+05 -2.7911E+04   1.2791E+05  0.000E+00  0.000E+00  0.000E+00  4.84178E+01  1.564E-01  2.000E+01  2.000E+04 -1.396E+00
   1   13    2     1     2    1.2791E+05 -3.7672E+04   1.6558E+05  0.000E+00  0.000E+00  0.000E+00  4.79662E+01  1.821E-01  2.000E+01  2.000E+04 -1.884E+00
   1   14    3     1     3    1.6558E+05 -3.3149E+04   1.9873E+05  0.000E+00  0.000E+00  0.000E+00  4.75141E+01  2.073E-01  2.000E+01  2.000E+04 -1.657E+00
   1   15    4     1     4    1.9873E+05 -3.2383E+04   2.3111E+05  0.000E+00  0.000E+00  0.000E+00  4.70585E+01  2.289E-01  2.000E+01  2.000E+04 -1.619E+00
   1   16    5     1     5    2.3111E+05 -3.3895E+04   2.6501E+05  0.000E+00  0.000E+00  0.000E+00  4.66018E+01  2.495E-01  2.000E+01  2.000E+04 -1.695E+00
   1   16    6     1     6    2.6501E+05 -2.9624E+04   2.9463E+05  0.000E+00  0.000E+00  0.000E+00  4.61432E+01  2.682E-01  2.000E+01  2.000E+04 -1.481E+00
   1   16    7     1     7    2.9463E+05 -2.9456E+04   3.2409E+05  0.000E+00  0.000E+00  0.000E+00  4.56826E+01  2.848E-01  2.000E+01  2.000E+04 -1.473E+00
   1   16    8     1     8    3.2409E+05 -2.9652E+04   3.5374E+05  0.000E+00  0.000E+00  0.000E+00  4.52213E+01  3.009E-01  2.000E+01  2.000E+04 -1.483E+00
   1   16    9     1     9    3.5374E+05 -2.9747E+04   3.8349E+05  0.000E+00  0.000E+00  0.000E+00  4.47596E+01  3.164E-01  2.000E+01  2.000E+04 -1.487E+00
   1   16   10     1    10    3.8349E+05 -2.9792E+04   4.1328E+05  0.000E+00  0.000E+00  0.000E+00  4.42974E+01  3.315E-01  2.000E+01  2.000E+04 -1.490E+00
   1   16   11     1    11    4.1328E+05 -3.0417E+04   4.4370E+05  0.000E+00  0.000E+00  0.000E+00  4.38350E+01  3.463E-01  2.000E+01  2.000E+04 -1.521E+00
   1   16   12     1    12    4.4370E+05 -3.5976E+04   4.7967E+05  0.000E+00  0.000E+00  0.000E+00  4.33735E+01  3.622E-01  2.000E+01  2.000E+04 -1.799E+00
   1   15   13     1    13    4.7967E+05 -3.4734E+04   5.1441E+05  0.000E+00  0.000E+00  0.000E+00  4.29127E+01  3.786E-01  2.000E+01  2.000E+04 -1.737E+00
   1   14   14     1    14    5.1441E+05 -3.5330E+04   5.4974E+05  0.000E+00  0.000E+00  0.000E+00  4.24512E+01  3.944E-01  2.000E+01  2.000E+04 -1.767E+00
   1   13   15     1    15    5.4974E+05 -3.7557E+04   5.8729E+05  0.000E+00  0.000E+00  0.000E+00  4.19899E+01  4.104E-01  2.000E+01  2.000E+04 -1.878E+00
   1   12   16     1    16    5.8729E+05 -4.3603E+04   6.3090E+05  0.000E+00  0.000E+00  0.000E+00  4.15300E+01  4.277E-01  2.000E+01  2.000E+04 -2.180E+00
   1   12   17     1    17    6.3090E+05 -3.4115E+04   6.6501E+05  0.000E+00  0.000E+00  0.000E+00  4.10689E+01  4.439E-01  2.000E+01  2.000E+04 -1.706E+00
   1   12   18     1    18    6.6501E+05 -3.2490E+04   6.9750E+05  0.000E+00  0.000E+00  0.000E+00  4.06051E+01  4.574E-01  2.000E+01  2.000E+04 -1.625E+00
   1   12   19     1    19    6.9750E+05 -3.6580E+04   7.3408E+05  0.000E+00  0.000E+00  0.000E+00  4.01416E+01  4.712E-01  2.000E+01  2.000E+04 -1.829E+00
   1   13   20     1    20    7.3408E+05 -2.6847E+04   7.6093E+05  0.000E+00  0.000E+00  0.000E+00  3.96768E+01  4.836E-01  2.000E+01  2.000E+04 -1.342E+00
   1   14   21     1    21    7.6093E+05 -1.9690E+04   7.8062E+05  0.000E+00  0.000E+00  0.000E+00  3.92085E+01  4.926E-01  2.000E+01  2.000E+04 -9.845E-01
   1   14   22     1    22    7.8062E+05 -1.7187E+03   7.8234E+05  0.000E+00  0.000E+00  0.000E+00  3.87353E+01  4.967E-01  2.000E+01  2.000E+04 -8.593E-02
   1    9   30     2     1    5.0000E+04 -2.6603E+04   7.6603E+04  0.000E+00  0.000E+00  0.000E+00  4.02585E+01  1.335E-01  2.000E+01  2.000E+04 -1.330E+00
   1    9   29     2     2    7.6603E+04 -2.9073E+04   1.0568E+05  0.000E+00  0.000E+00  0.000E+00  4.00411E+01  1.661E-01  2.000E+01  2.000E+04 -1.454E+00
   1    9   28     2     3    1.0568E+05 -3.3371E+04   1.3905E+05  0.000E+00  0.000E+00  0.000E+00  3.98232E+01  1.982E-01  2.000E+01  2.000E+04 -1.669E+00
   1    9   27     2     4    1.3905E+05 -4.7526E+04   1.8657E+05  0.000E+00  0.000E+00  0.000E+00  3.96103E+01  2.353E-01  2.000E+01  2.000E+04 -2.376E+00
   1   10   26     2     5    1.8657E+05 -3.3497E+04   2.2007E+05  0.000E+00  0.000E+00  0.000E+00  3.93938E+01  2.688E-01  2.000E+01  2.000E+04 -1.675E+00
   1   11   25     2     6    2.2007E+05 -2.5151E+04   2.4522E+05  0.000E+00  0.000E+00  0.000E+00  3.91665E+01  2.915E-01  2.000E+01  2.000E+04 -1.258E+00
   1   12   24     2     7    2.4522E+05 -1.8579E+04   2.6380E+05  0.000E+00  0.000E+00  0.000E+00  3.89326E+01  3.076E-01  2.000E+01  2.000E+04 -9.290E-01
   1   13   23     2     8    2.6380E+05 -1.3216E+04   2.7702E+05  0.000E+00  0.000E+00  0.000E+00  3.86940E+01  3.190E-01  2.000E+01  2.000E+04 -6.608E-01
   1   14   22     2     9    2.7702E+05 -7.4002E+03   2.8442E+05  0.000E+00  0.000E+00  0.000E+00  3.84512E+01  3.262E-01  2.000E+01  2.000E+04 -3.700E-01
   1   14   22     3     1    1.0668E+06 -1.5336E+04   1.0821E+06  0.000E+00  0.000E+00  0.000E+00  3.80544E+01  4.989E-01  2.000E+01  2.000E+04 -7.668E-01
   1   15   23     3     2    1.0821E+06 -2.3462E+04   1.1056E+06  0.000E+00  0.000E+00  0.000E+00  3.71709E+01  5.043E-01  2.000E+01  2.000E+04 -1.173E+00
   1   15   24     3     3    1.1056E+06 -1.9472E+04   1.1250E+06  0.000E+00  0.000E+00  0.000E+00  3.62880E+01  5.102E-01  2.000E+01  2.000E+04 -9.736E-01
   1   15   25     3     4    1.1250E+06 -1.9034E+04   1.1441E+06  0.000E+00  0.000E+00  0.000E+00  3.54043E+01  5.155E-01  2.000E+01  2.000E+04 -9.517E-01
   1   15   26     3     5    1.1441E+06 -2.1758E+04   1.1658E+06  0.000E+00  0.000E+00  0.000E+00  3.45210E+01  5.210E-01  2.000E+01  2.000E+04 -1.088E+00
   1   16   27     3     6    1.1658E+06 -2.8465E+04   1.1943E+06  0.000E+00  0.000E+00  0.000E+00  3.36389E+01  5.278E-01  2.000E+01  2.000E+04 -1.423E+00
   1   17   28     3     7    1.1943E+06 -3.4765E+04   1.2290E+06  0.000E+00  0.000E+00  0.000E+00  3.27584E+01  5.362E-01  2.000E+01  2.000E+04 -1.738E+00
   1   18   29     3     8    1.2290E+06 -4.4178E+04   1.2732E+06  0.000E+00  0.000E+00  0.000E+00  3.18799E+01  5.466E-01  2.000E+01  2.000E+04 -2.209E+00
   1   18   30     3     9    1.2732E+06 -4.0957E+04   1.3142E+06  0.000E+00  0.000E+00  0.000E+00  3.10021E+01  5.577E-01  2.000E+01  2.000E+04 -2.048E+00



1
              HEAD IN LAYER   1 AT END OF TIME STEP   1 IN STRESS PERIOD    4
  ---------------------------------------------------------------------------

          1      2      3      4      5      6      7      8      9     10
         11     12     13     14     15     16     17     18     19     20
         21     22     23     24     25     26     27     28     29     30
 .........................................................................
   1  ****** ****** ****** ****** ****** ****** ****** ****** ****** ******
      ****** ****** ****** ****** ****** ****** ****** ****** ****** ******
      ****** ****** ****** ****** ****** ****** ****** ****** ****** ******
   2  ****** ****** ****** ****** ****** ****** ****** ****** ****** ******
      ****** ****** ****** ****** ****** ****** ****** ****** ****** ******
      ****** ****** ****** ****** ****** ****** ****** ****** ****** ******
   3  ****** ****** ****** ****** ****** ****** ****** ****** ****** ******
      ****** ****** ****** ****** ****** ****** ****** ****** ****** ******
      ****** ****** ****** ****** ****** ****** ****** ****** ****** ******
   4  ****** ****** ****** ****** ****** ****** ****** ****** ****** ******
      ****** ****** ****** ****** ****** ****** ****** ****** ****** ******
      ****** ****** ****** ****** ****** ****** ****** ****** ****** ******
   5  ****** ****** ****** ****** ****** ****** ****** ****** ****** ******
      ****** ****** ****** ****** ****** ****** ****** ****** ****** ******
      ****** ****** ****** ****** ****** ****** ****** ****** ****** ******
   6  ****** ****** ****** ****** ****** ****** ****** ****** ****** ******
      ****** ****** ****** ****** ****** ****** ****** ****** ****** ******
      ****** ****** ****** ****** ****** ****** ****** ****** ****** ******
   7  ****** ****** ****** ****** ****** ****** ****** ****** ****** ******
      ****** ****** ****** ****** ****** ****** ****** ****** ****** ******
      ****** ****** ****** ****** ****** ****** ****** ****** ****** ******
   8  ****** ****** ****** ****** ****** ****** ****** ****** ****** ******
      ****** ****** ****** ****** ****** ****** ****** ****** ****** ******
      ****** ****** ****** ****** ****** ****** ****** ****** ****** ******
   9  ****** ****** ****** ****** ****** ****** ****** ****** ****** ******
      ****** ****** ****** ****** ****** ****** ****** ****** ****** ******
      ****** ****** ****** ****** ****** ****** ****** ****** ****** ******
  10  ****** ****** ****** ****** ****** ****** ****** ****** ****** ******
      ****** ****** ****** ****** ****** ****** ****** ****** ****** ******
      ****** ****** ****** ****** ****** ****** ****** ****** ****** ******
  11  ****** ****** ****** ****** ****** ****** ****** ****** ****** ******
      ****** ****** ****** ****** ****** ****** ****** ****** ****** ******
      ****** ****** ****** ****** ****** ****** ****** ****** ****** ******
  12  ****** ****** ****** ****** ****** ****** ****** ****** ****** ******
      ****** ****** ****** ****** ****** ****** ****** ****** ****** ******
      ****** ****** ****** ****** ****** ****** ****** ****** ****** ******
  13  ****** ****** ****** ****** ****** ****** ****** ****** ****** ******
      ****** ****** ****** ****** ****** ****** ****** ****** ****** ******
      ****** ****** ****** ****** ****** ****** ****** ****** ****** ******
  14  ****** ****** ****** ****** ****** ****** ****** ****** ****** ******
      ****** ****** ****** ****** ****** ****** ****** ****** ****** ******
      ****** ****** ****** ****** ****** ****** ****** ****** ****** ******
  15  ****** ****** ****** ****** ****** ****** ****** ****** ****** ******
      ****** ****** ****** ****** ****** ****** ****** ****** ****** ******
      ****** ****** ****** ****** ****** ****** ****** ****** ****** ******
  16  ****** ****** ****** ****** ****** ****** ****** ****** ****** ******
      ****** ****** ****** ****** ****** ****** ****** ****** ****** ******
      ****** ****** ****** ****** ****** ****** ****** ****** ****** ******
  17  ****** ****** ****** ****** ****** ****** ****** ****** ****** ******
      ****** ****** ****** ****** ****** ****** ****** ****** ****** ******
      ****** ****** ****** ****** ****** ****** ****** ****** ****** ******
  18  ****** ****** ****** ****** ****** ****** ****** ****** ****** ******
      ****** ****** ****** ****** ****** ****** ****** ****** ****** ******
      ****** ****** ****** ****** ****** ****** ****** ****** ****** ******
  19  ****** ****** ****** ****** ****** ****** ****** ****** ****** ******
      ****** ****** ****** ****** ****** ****** ****** ****** ****** ******
      ****** ****** ****** ****** ****** ****** ****** ****** ****** ******
  20  ****** ****** ****** ****** ****** ****** ****** ****** ****** ******
      ****** ****** ****** ****** ****** ****** ****** ****** ****** ******
      ****** ****** ****** ****** ****** ****** ****** ****** ****** ******
  21  ****** ****** ****** ****** ****** ****** ****** ****** ****** ******
      ****** ****** ****** ****** ****** ****** ****** ****** ****** ******
      ****** ****** ****** ****** ****** ****** ****** ****** ****** ******
  22  ****** ****** ****** ****** ****** ****** ****** ****** ****** ******
      ****** ****** ****** ****** ****** ****** ****** ****** ****** ******
      ****** ****** ****** ****** ****** ****** ****** ****** ****** ******
  23  ****** ****** ****** ****** ****** ****** ****** ****** ****** ******
      ****** ****** ****** ****** ****** ****** ****** ****** ****** ******
      ****** ****** ****** ****** ****** ****** ****** ****** ****** ******
  24  ****** ****** ****** ****** ****** ****** ****** ****** ****** ******
      ****** ****** ****** ****** ****** ****** ****** ****** ****** ******
      ****** ****** ****** ****** ****** ****** ****** ****** ****** ******
  25  ****** ****** ****** ****** ****** ****** ****** ****** ****** ******
      ****** ****** ****** ****** ****** ****** ****** ****** ****** ******
      ****** ****** ****** ****** ****** ****** ****** ****** ****** ******

 HEAD WILL BE SAVED ON UNIT   51 AT END OF TIME STEP    1, STRESS PERIOD    4
1
  VOLUMETRIC BUDGET FOR ENTIRE MODEL AT END OF TIME STEP    1, STRESS PERIOD   4
  ------------------------------------------------------------------------------

     CUMULATIVE VOLUMES      L**3       RATES FOR THIS TIME STEP      L**3/T
     ------------------                 ------------------------

           IN:                                      IN:
           ---                                      ---
             STORAGE =    19983642.0972               STORAGE =           0.0000
       CONSTANT HEAD =   433088969.2848         CONSTANT HEAD =     1168665.0000
               WELLS =           0.0000                 WELLS =           0.0000
            RECHARGE =     8804400.0000              RECHARGE =       27600.0000
      STREAM LEAKAGE =           0.0000        STREAM LEAKAGE =           0.0000

            TOTAL IN =   461877011.3820              TOTAL IN =     1196265.0000

          OUT:                                     OUT:
          ----                                     ----
             STORAGE =      189855.6341               STORAGE =        2086.3256
       CONSTANT HEAD =           0.0000         CONSTANT HEAD =           0.0000
               WELLS =    24650000.0000                 WELLS =       30000.0000
            RECHARGE =           0.0000              RECHARGE =           0.0000
      STREAM LEAKAGE =   437037164.3801        STREAM LEAKAGE =     1164178.6477

           TOTAL OUT =   461877020.0142             TOTAL OUT =     1196264.9734

            IN - OUT =          -8.6322              IN - OUT =       2.6610E-02

 PERCENT DISCREPANCY =          -0.00     PERCENT DISCREPANCY =           0.00






         TIME SUMMARY AT END OF TIME STEP    1 IN STRESS PERIOD    4
                    SECONDS     MINUTES      HOURS       DAYS        YEARS
                    -----------------------------------------------------------
   TIME STEP LENGTH 7.86240E+06 1.31040E+05  2184.0      91.000     0.24914    
 STRESS PERIOD TIME 7.86240E+06 1.31040E+05  2184.0      91.000     0.24914    
         TOTAL TIME 3.15360E+07 5.25600E+05  8760.0      365.00     0.99932    
1
1
                            STRESS PERIOD NO.    5, LENGTH =   92.00000    
                            -----------------------------------------------

                              NUMBER OF TIME STEPS =     1

                               MULTIPLIER FOR DELT =     1.500

                            INITIAL TIME STEP SIZE =   92.00000    

 WELL NO.  LAYER   ROW   COL   STRESS RATE         
 --------------------------------------------------
      1      1     22     29     -0.3000E+05
      2      1     24     24     -0.5000E+05
      3      1     24     27       0.000    

      3 WELLS

                 RECHARGE =  5.000000E-04

 REUSING STREAM SEGMENT DATA FROM LAST STRESS PERIOD
 
 SOLVING FOR HEAD 


     6 CALLS TO PCG ROUTINE FOR TIME STEP   1 IN STRESS PERIOD    5
    22 TOTAL ITERATIONS

 OUTPUT CONTROL FOR STRESS PERIOD    5   TIME STEP    1
    SAVE BUDGET
    SAVE HEAD FOR ALL LAYERS
    PRINT HEAD FOR ALL LAYERS
 UBDSV2 SAVING "STREAMFLOW OUT  " ON UNIT  50 AT TIME STEP  1, STRESS PERIOD   5



 STREAM LISTING     PERIOD      5   STEP        1

 LAYER ROW COL. STREAM  RCH.  FLOW INTO     FLOW TO   FLOW OUT OF   OVRLND.     DIRECT     STREAM       STREAM     STREAM     STREAM   STREAMBED  STREAMBED
                SEG.NO.  NO.  STRM. RCH.    AQUIFER    STRM. RCH.    RUNOFF     PRECIP       ET          HEAD       DEPTH      WIDTH   CONDCTNC.   GRADIENT

   1   13    1     1     1    1.0000E+05 -2.7711E+04   1.2771E+05  0.000E+00  0.000E+00  0.000E+00  4.84177E+01  1.564E-01  2.000E+01  2.000E+04 -1.386E+00
   1   13    2     1     2    1.2771E+05 -3.7433E+04   1.6514E+05  0.000E+00  0.000E+00  0.000E+00  4.79659E+01  1.818E-01  2.000E+01  2.000E+04 -1.872E+00
   1   14    3     1     3    1.6514E+05 -3.2912E+04   1.9806E+05  0.000E+00  0.000E+00  0.000E+00  4.75137E+01  2.069E-01  2.000E+01  2.000E+04 -1.646E+00
   1   15    4     1     4    1.9806E+05 -3.2154E+04   2.3021E+05  0.000E+00  0.000E+00  0.000E+00  4.70580E+01  2.284E-01  2.000E+01  2.000E+04 -1.608E+00
   1   16    5     1     5    2.3021E+05 -3.3685E+04   2.6390E+05  0.000E+00  0.000E+00  0.000E+00  4.66012E+01  2.489E-01  2.000E+01  2.000E+04 -1.684E+00
   1   16    6     1     6    2.6390E+05 -2.9440E+04   2.9334E+05  0.000E+00  0.000E+00  0.000E+00  4.61425E+01  2.675E-01  2.000E+01  2.000E+04 -1.472E+00
   1   16    7     1     7    2.9334E+05 -2.9272E+04   3.2261E+05  0.000E+00  0.000E+00  0.000E+00  4.56818E+01  2.841E-01  2.000E+01  2.000E+04 -1.464E+00
   1   16    8     1     8    3.2261E+05 -2.9465E+04   3.5207E+05  0.000E+00  0.000E+00  0.000E+00  4.52205E+01  3.000E-01  2.000E+01  2.000E+04 -1.473E+00
   1   16    9     1     9    3.5207E+05 -2.9555E+04   3.8163E+05  0.000E+00  0.000E+00  0.000E+00  4.47587E+01  3.155E-01  2.000E+01  2.000E+04 -1.478E+00
   1   16   10     1    10    3.8163E+05 -2.9592E+04   4.1122E+05  0.000E+00  0.000E+00  0.000E+00  4.42964E+01  3.305E-01  2.000E+01  2.000E+04 -1.480E+00
   1   16   11     1    11    4.1122E+05 -3.0201E+04   4.4142E+05  0.000E+00  0.000E+00  0.000E+00  4.38339E+01  3.453E-01  2.000E+01  2.000E+04 -1.510E+00
   1   16   12     1    12    4.4142E+05 -3.5693E+04   4.7711E+05  0.000E+00  0.000E+00  0.000E+00  4.33724E+01  3.610E-01  2.000E+01  2.000E+04 -1.785E+00
   1   15   13     1    13    4.7711E+05 -3.4426E+04   5.1154E+05  0.000E+00  0.000E+00  0.000E+00  4.29114E+01  3.773E-01  2.000E+01  2.000E+04 -1.721E+00
   1   14   14     1    14    5.1154E+05 -3.5016E+04   5.4656E+05  0.000E+00  0.000E+00  0.000E+00  4.24498E+01  3.930E-01  2.000E+01  2.000E+04 -1.751E+00
   1   13   15     1    15    5.4656E+05 -3.7256E+04   5.8381E+05  0.000E+00  0.000E+00  0.000E+00  4.19885E+01  4.089E-01  2.000E+01  2.000E+04 -1.863E+00
   1   12   16     1    16    5.8381E+05 -4.3338E+04   6.2715E+05  0.000E+00  0.000E+00  0.000E+00  4.15284E+01  4.262E-01  2.000E+01  2.000E+04 -2.167E+00
   1   12   17     1    17    6.2715E+05 -3.3884E+04   6.6103E+05  0.000E+00  0.000E+00  0.000E+00  4.10673E+01  4.423E-01  2.000E+01  2.000E+04 -1.694E+00
   1   12   18     1    18    6.6103E+05 -3.2262E+04   6.9330E+05  0.000E+00  0.000E+00  0.000E+00  4.06035E+01  4.558E-01  2.000E+01  2.000E+04 -1.613E+00
   1   12   19     1    19    6.9330E+05 -3.6334E+04   7.2963E+05  0.000E+00  0.000E+00  0.000E+00  4.01399E+01  4.695E-01  2.000E+01  2.000E+04 -1.817E+00
   1   13   20     1    20    7.2963E+05 -2.6550E+04   7.5618E+05  0.000E+00  0.000E+00  0.000E+00  3.96750E+01  4.818E-01  2.000E+01  2.000E+04 -1.327E+00
   1   14   21     1    21    7.5618E+05 -1.9328E+04   7.7551E+05  0.000E+00  0.000E+00  0.000E+00  3.92066E+01  4.907E-01  2.000E+01  2.000E+04 -9.664E-01
   1   14   22     1    22    7.7551E+05 -1.5850E+03   7.7709E+05  0.000E+00  0.000E+00  0.000E+00  3.87333E+01  4.947E-01  2.000E+01  2.000E+04 -7.925E-02
   1    9   30     2     1    5.0000E+04 -2.6451E+04   7.6451E+04  0.000E+00  0.000E+00  0.000E+00  4.02584E+01  1.334E-01  2.000E+01  2.000E+04 -1.323E+00
   1    9   29     2     2    7.6451E+04 -2.8922E+04   1.0537E+05  0.000E+00  0.000E+00  0.000E+00  4.00409E+01  1.659E-01  2.000E+01  2.000E+04 -1.446E+00
   1    9   28     2     3    1.0537E+05 -3.3216E+04   1.3859E+05  0.000E+00  0.000E+00  0.000E+00  3.98229E+01  1.979E-01  2.000E+01  2.000E+04 -1.661E+00
   1    9   27     2     4    1.3859E+05 -4.7339E+04   1.8593E+05  0.000E+00  0.000E+00  0.000E+00  3.96098E+01  2.348E-01  2.000E+01  2.000E+04 -2.367E+00
   1   10   26     2     5    1.8593E+05 -3.3297E+04   2.1923E+05  0.000E+00  0.000E+00  0.000E+00  3.93932E+01  2.682E-01  2.000E+01  2.000E+04 -1.665E+00
   1   11   25     2     6    2.1923E+05 -2.4951E+04   2.4418E+05  0.000E+00  0.000E+00  0.000E+00  3.91658E+01  2.908E-01  2.000E+01  2.000E+04 -1.248E+00
   1   12   24     2     7    2.4418E+05 -1.8388E+04   2.6256E+05  0.000E+00  0.000E+00  0.000E+00  3.89318E+01  3.068E-01  2.000E+01  2.000E+04 -9.194E-01
   1   13   23     2     8    2.6256E+05 -1.3035E+04   2.7560E+05  0.000E+00  0.000E+00  0.000E+00  3.86931E+01  3.181E-01  2.000E+01  2.000E+04 -6.518E-01
   1   14   22     2     9    2.7560E+05 -7.2479E+03   2.8285E+05  0.000E+00  0.000E+00  0.000E+00  3.84502E+01  3.252E-01  2.000E+01  2.000E+04 -3.624E-01
   1   14   22     3     1    1.0599E+06 -1.5201E+04   1.0751E+06  0.000E+00  0.000E+00  0.000E+00  3.80525E+01  4.970E-01  2.000E+01  2.000E+04 -7.601E-01
   1   15   23     3     2    1.0751E+06 -2.2936E+04   1.0981E+06  0.000E+00  0.000E+00  0.000E+00  3.71689E+01  5.023E-01  2.000E+01  2.000E+04 -1.147E+00
   1   15   24     3     3    1.0981E+06 -1.9041E+04   1.1171E+06  0.000E+00  0.000E+00  0.000E+00  3.62859E+01  5.081E-01  2.000E+01  2.000E+04 -9.520E-01
   1   15   25     3     4    1.1171E+06 -1.8641E+04   1.1358E+06  0.000E+00  0.000E+00  0.000E+00  3.54021E+01  5.132E-01  2.000E+01  2.000E+04 -9.320E-01
   1   15   26     3     5    1.1358E+06 -2.1386E+04   1.1571E+06  0.000E+00  0.000E+00  0.000E+00  3.45187E+01  5.187E-01  2.000E+01  2.000E+04 -1.069E+00
   1   16   27     3     6    1.1571E+06 -2.7881E+04   1.1850E+06  0.000E+00  0.000E+00  0.000E+00  3.36365E+01  5.254E-01  2.000E+01  2.000E+04 -1.394E+00
   1   17   28     3     7    1.1850E+06 -3.4062E+04   1.2191E+06  0.000E+00  0.000E+00  0.000E+00  3.27559E+01  5.336E-01  2.000E+01  2.000E+04 -1.703E+00
   1   18   29     3     8    1.2191E+06 -4.3386E+04   1.2625E+06  0.000E+00  0.000E+00  0.000E+00  3.18772E+01  5.439E-01  2.000E+01  2.000E+04 -2.169E+00
   1   18   30     3     9    1.2625E+06 -4.0398E+04   1.3029E+06  0.000E+00  0.000E+00  0.000E+00  3.09993E+01  5.548E-01  2.000E+01  2.000E+04 -2.020E+00



1
              HEAD IN LAYER   1 AT END OF TIME STEP   1 IN STRESS PERIOD    5
  ---------------------------------------------------------------------------

          1      2      3      4      5      6      7      8      9     10
         11     12     13     14     15     16     17     18     19     20
         21     22     23     24     25     26     27     28     29     30
 .........................................................................
   1  ****** ****** ****** ****** ****** ****** ****** ****** ****** ******
      ****** ****** ****** ****** ****** ****** ****** ****** ****** ******
      ****** ****** ****** ****** ****** ****** ****** ****** ****** ******
   2  ****** ****** ****** ****** ****** ****** ****** ****** ****** ******
      ****** ****** ****** ****** ****** ****** ****** ****** ****** ******
      ****** ****** ****** ****** ****** ****** ****** ****** ****** ******
   3  ****** ****** ****** ****** ****** ****** ****** ****** ****** ******
      ****** ****** ****** ****** ****** ****** ****** ****** ****** ******
      ****** ****** ****** ****** ****** ****** ****** ****** ****** ******
   4  ****** ****** ****** ****** ****** ****** ****** ****** ****** ******
      ****** ****** ****** ****** ****** ****** ****** ****** ****** ******
      ****** ****** ****** ****** ****** ****** ****** ****** ****** ******
   5  ****** ****** ****** ****** ****** ****** ****** ****** ****** ******
      ****** ****** ****** ****** ****** ****** ****** ****** ****** ******
      ****** ****** ****** ****** ****** ****** ****** ****** ****** ******
   6  ****** ****** ****** ****** ****** ****** ****** ****** ****** ******
      ****** ****** ****** ****** ****** ****** ****** ****** ****** ******
      ****** ****** ****** ****** ****** ****** ****** ****** ****** ******
   7  ****** ****** ****** ****** ****** ****** ****** ****** ****** ******
      ****** ****** ****** ****** ****** ****** ****** ****** ****** ******
      ****** ****** ****** ****** ****** ****** ****** ****** ****** ******
   8  ****** ****** ****** ****** ****** ****** ****** ****** ****** ******
      ****** ****** ****** ****** ****** ****** ****** ****** ****** ******
      ****** ****** ****** ****** ****** ****** ****** ****** ****** ******
   9  ****** ****** ****** ****** ****** ****** ****** ****** ****** ******
      ****** ****** ****** ****** ****** ****** ****** ****** ****** ******
      ****** ****** ****** ****** ****** ****** ****** ****** ****** ******
  10  ****** ****** ****** ****** ****** ****** ****** ****** ****** ******
      ****** ****** ****** ****** ****** ****** ****** ****** ****** ******
      ****** ****** ****** ****** ****** ****** ****** ****** ****** ******
  11  ****** ****** ****** ****** ****** ****** ****** ****** ****** ******
      ****** ****** ****** ****** ****** ****** ****** ****** ****** ******
      ****** ****** ****** ****** ****** ****** ****** ****** ****** ******
  12  ****** ****** ****** ****** ****** ****** ****** ****** ****** ******
      ****** ****** ****** ****** ****** ****** ****** ****** ****** ******
      ****** ****** ****** ****** ****** ****** ****** ****** ****** ******
  13  ****** ****** ****** ****** ****** ****** ****** ****** ****** ******
      ****** ****** ****** ****** ****** ****** ****** ****** ****** ******
      ****** ****** ****** ****** ****** ****** ****** ****** ****** ******
  14  ****** ****** ****** ****** ****** ****** ****** ****** ****** ******
      ****** ****** ****** ****** ****** ****** ****** ****** ****** ******
      ****** ****** ****** ****** ****** ****** ****** ****** ****** ******
  15  ****** ****** ****** ****** ****** ****** ****** ****** ****** ******
      ****** ****** ****** ****** ****** ****** ****** ****** ****** ******
      ****** ****** ****** ****** ****** ****** ****** ****** ****** ******
  16  ****** ****** ****** ****** ****** ****** ****** ****** ****** ******
      ****** ****** ****** ****** ****** ****** ****** ****** ****** ******
      ****** ****** ****** ****** ****** ****** ****** ****** ****** ******
  17  ****** ****** ****** ****** ****** ****** ****** ****** ****** ******
      ****** ****** ****** ****** ****** ****** ****** ****** ****** ******
      ****** ****** ****** ****** ****** ****** ****** ****** ****** ******
  18  ****** ****** ****** ****** ****** ****** ****** ****** ****** ******
      ****** ****** ****** ****** ****** ****** ****** ****** ****** ******
      ****** ****** ****** ****** ****** ****** ****** ****** ****** ******
  19  ****** ****** ****** ****** ****** ****** ****** ****** ****** ******
      ****** ****** ****** ****** ****** ****** ****** ****** ****** ******
      ****** ****** ****** ****** ****** ****** ****** ****** ****** ******
  20  ****** ****** ****** ****** ****** ****** ****** ****** ****** ******
      ****** ****** ****** ****** ****** ****** ****** ****** ****** ******
      ****** ****** ****** ****** ****** ****** ****** ****** ****** ******
  21  ****** ****** ****** ****** ****** ****** ****** ****** ****** ******
      ****** ****** ****** ****** ****** ****** ****** ****** ****** ******
      ****** ****** ****** ****** ****** ****** ****** ****** ****** ******
  22  ****** ****** ****** ****** ****** ****** ****** ****** ****** ******
      ****** ****** ****** ****** ****** ****** ****** ****** ****** ******
      ****** ****** ****** ****** ****** ****** ****** ****** ****** ******
  23  ****** ****** ****** ****** ****** ****** ****** ****** ****** ******
      ****** ****** ****** ****** ****** ****** ****** ****** ****** ******
      ****** ****** ****** ****** ****** ****** ****** ****** ****** ******
  24  ****** ****** ****** ****** ****** ****** ****** ****** ****** ******
      ****** ****** ****** ****** ****** ****** ****** ****** ****** ******
      ****** ****** ****** ****** ****** ****** ****** ****** ****** ******
  25  ****** ****** ****** ****** ****** ****** ****** ****** ****** ******
      ****** ****** ****** ****** ****** ****** ****** ****** ****** ******
      ****** ****** ****** ****** ****** ****** ****** ****** ****** ******

 HEAD WILL BE SAVED ON UNIT   51 AT END OF TIME STEP    1, STRESS PERIOD    5
1
  VOLUMETRIC BUDGET FOR ENTIRE MODEL AT END OF TIME STEP    1, STRESS PERIOD   5
  ------------------------------------------------------------------------------

     CUMULATIVE VOLUMES      L**3       RATES FOR THIS TIME STEP      L**3/T
     ------------------                 ------------------------

           IN:                                      IN:
           ---                                      ---
             STORAGE =    20120661.1491               STORAGE =        1489.3375
       CONSTANT HEAD =   545106467.4102         CONSTANT HEAD =     1217581.5014
               WELLS =           0.0000                 WELLS =           0.0000
            RECHARGE =    10074000.0000              RECHARGE =       13800.0000
      STREAM LEAKAGE =           0.0000        STREAM LEAKAGE =           0.0000

            TOTAL IN =   575301128.5593              TOTAL IN =     1232870.8389

          OUT:                                     OUT:
          ----                                     ----
             STORAGE =      189855.6341               STORAGE =           0.0000
       CONSTANT HEAD =           0.0000         CONSTANT HEAD =           0.0000
               WELLS =    32010000.0000                 WELLS =       80000.0000
            RECHARGE =           0.0000              RECHARGE =           0.0000
      STREAM LEAKAGE =   543101282.9282        STREAM LEAKAGE =     1152870.8538

           TOTAL OUT =   575301138.5622             TOTAL OUT =     1232870.8538

            IN - OUT =         -10.0030              IN - OUT =      -1.4899E-02

 PERCENT DISCREPANCY =          -0.00     PERCENT DISCREPANCY =          -0.00






         TIME SUMMARY AT END OF TIME STEP    1 IN STRESS PERIOD    5
                    SECONDS     MINUTES      HOURS       DAYS        YEARS
                    -----------------------------------------------------------
   TIME STEP LENGTH 7.94880E+06 1.32480E+05  2208.0      92.000     0.25188    
 STRESS PERIOD TIME 7.94880E+06 1.32480E+05  2208.0      92.000     0.25188    
         TOTAL TIME 3.94848E+07 6.58080E+05  10968.      457.00      1.2512    
1
1
                            STRESS PERIOD NO.    6, LENGTH =   91.00000    
                            -----------------------------------------------

                              NUMBER OF TIME STEPS =     1

                               MULTIPLIER FOR DELT =     1.500

                            INITIAL TIME STEP SIZE =   91.00000    

 WELL NO.  LAYER   ROW   COL   STRESS RATE         
 --------------------------------------------------
      1      1     22     29     -0.3000E+05
      2      1     24     24     -0.5000E+05
      3      1     24     27       0.000    

      3 WELLS

                 RECHARGE =  2.000000E-03

 REUSING STREAM SEGMENT DATA FROM LAST STRESS PERIOD
 
 SOLVING FOR HEAD 


     6 CALLS TO PCG ROUTINE FOR TIME STEP   1 IN STRESS PERIOD    6
    22 TOTAL ITERATIONS

 OUTPUT CONTROL FOR STRESS PERIOD    6   TIME STEP    1
    SAVE BUDGET
    SAVE HEAD FOR ALL LAYERS
    PRINT HEAD FOR ALL LAYERS
 UBDSV2 SAVING "STREAMFLOW OUT  " ON UNIT  50 AT TIME STEP  1, STRESS PERIOD   6



 STREAM LISTING     PERIOD      6   STEP        1

 LAYER ROW COL. STREAM  RCH.  FLOW INTO     FLOW TO   FLOW OUT OF   OVRLND.     DIRECT     STREAM       STREAM     STREAM     STREAM   STREAMBED  STREAMBED
                SEG.NO.  NO.  STRM. RCH.    AQUIFER    STRM. RCH.    RUNOFF     PRECIP       ET          HEAD       DEPTH      WIDTH   CONDCTNC.   GRADIENT

   1   13    1     1     1    1.0000E+05 -2.8362E+04   1.2836E+05  0.000E+00  0.000E+00  0.000E+00  4.84180E+01  1.566E-01  2.000E+01  2.000E+04 -1.418E+00
   1   13    2     1     2    1.2836E+05 -3.8212E+04   1.6657E+05  0.000E+00  0.000E+00  0.000E+00  4.79667E+01  1.826E-01  2.000E+01  2.000E+04 -1.911E+00
   1   14    3     1     3    1.6657E+05 -3.3674E+04   2.0025E+05  0.000E+00  0.000E+00  0.000E+00  4.75150E+01  2.082E-01  2.000E+01  2.000E+04 -1.684E+00
   1   15    4     1     4    2.0025E+05 -3.2886E+04   2.3313E+05  0.000E+00  0.000E+00  0.000E+00  4.70596E+01  2.301E-01  2.000E+01  2.000E+04 -1.644E+00
   1   16    5     1     5    2.3313E+05 -3.4345E+04   2.6748E+05  0.000E+00  0.000E+00  0.000E+00  4.66031E+01  2.508E-01  2.000E+01  2.000E+04 -1.717E+00
   1   16    6     1     6    2.6748E+05 -3.0014E+04   2.9749E+05  0.000E+00  0.000E+00  0.000E+00  4.61447E+01  2.697E-01  2.000E+01  2.000E+04 -1.501E+00
   1   16    7     1     7    2.9749E+05 -2.9840E+04   3.2733E+05  0.000E+00  0.000E+00  0.000E+00  4.56843E+01  2.865E-01  2.000E+01  2.000E+04 -1.492E+00
   1   16    8     1     8    3.2733E+05 -3.0034E+04   3.5737E+05  0.000E+00  0.000E+00  0.000E+00  4.52232E+01  3.027E-01  2.000E+01  2.000E+04 -1.502E+00
   1   16    9     1     9    3.5737E+05 -3.0123E+04   3.8749E+05  0.000E+00  0.000E+00  0.000E+00  4.47616E+01  3.184E-01  2.000E+01  2.000E+04 -1.506E+00
   1   16   10     1    10    3.8749E+05 -3.0158E+04   4.1765E+05  0.000E+00  0.000E+00  0.000E+00  4.42995E+01  3.336E-01  2.000E+01  2.000E+04 -1.508E+00
   1   16   11     1    11    4.1765E+05 -3.0773E+04   4.4842E+05  0.000E+00  0.000E+00  0.000E+00  4.38372E+01  3.485E-01  2.000E+01  2.000E+04 -1.539E+00
   1   16   12     1    12    4.4842E+05 -3.6357E+04   4.8478E+05  0.000E+00  0.000E+00  0.000E+00  4.33759E+01  3.645E-01  2.000E+01  2.000E+04 -1.818E+00
   1   15   13     1    13    4.8478E+05 -3.5159E+04   5.1994E+05  0.000E+00  0.000E+00  0.000E+00  4.29151E+01  3.810E-01  2.000E+01  2.000E+04 -1.758E+00
   1   14   14     1    14    5.1994E+05 -3.5774E+04   5.5571E+05  0.000E+00  0.000E+00  0.000E+00  4.24537E+01  3.969E-01  2.000E+01  2.000E+04 -1.789E+00
   1   13   15     1    15    5.5571E+05 -3.8009E+04   5.9372E+05  0.000E+00  0.000E+00  0.000E+00  4.19926E+01  4.130E-01  2.000E+01  2.000E+04 -1.900E+00
   1   12   16     1    16    5.9372E+05 -4.4068E+04   6.3779E+05  0.000E+00  0.000E+00  0.000E+00  4.15328E+01  4.305E-01  2.000E+01  2.000E+04 -2.203E+00
   1   12   17     1    17    6.3779E+05 -3.4470E+04   6.7226E+05  0.000E+00  0.000E+00  0.000E+00  4.10718E+01  4.468E-01  2.000E+01  2.000E+04 -1.724E+00
   1   12   18     1    18    6.7226E+05 -3.2821E+04   7.0508E+05  0.000E+00  0.000E+00  0.000E+00  4.06081E+01  4.604E-01  2.000E+01  2.000E+04 -1.641E+00
   1   12   19     1    19    7.0508E+05 -3.6945E+04   7.4203E+05  0.000E+00  0.000E+00  0.000E+00  4.01447E+01  4.742E-01  2.000E+01  2.000E+04 -1.847E+00
   1   13   20     1    20    7.4203E+05 -2.7116E+04   7.6914E+05  0.000E+00  0.000E+00  0.000E+00  3.96799E+01  4.867E-01  2.000E+01  2.000E+04 -1.356E+00
   1   14   21     1    21    7.6914E+05 -1.9807E+04   7.8895E+05  0.000E+00  0.000E+00  0.000E+00  3.92117E+01  4.957E-01  2.000E+01  2.000E+04 -9.904E-01
   1   14   22     1    22    7.8895E+05 -1.7538E+03   7.9070E+05  0.000E+00  0.000E+00  0.000E+00  3.87385E+01  4.999E-01  2.000E+01  2.000E+04 -8.769E-02
   1    9   30     2     1    5.0000E+04 -2.6895E+04   7.6895E+04  0.000E+00  0.000E+00  0.000E+00  4.02587E+01  1.337E-01  2.000E+01  2.000E+04 -1.345E+00
   1    9   29     2     2    7.6895E+04 -2.9366E+04   1.0626E+05  0.000E+00  0.000E+00  0.000E+00  4.00416E+01  1.666E-01  2.000E+01  2.000E+04 -1.468E+00
   1    9   28     2     3    1.0626E+05 -3.3675E+04   1.3994E+05  0.000E+00  0.000E+00  0.000E+00  3.98239E+01  1.989E-01  2.000E+01  2.000E+04 -1.684E+00
   1    9   27     2     4    1.3994E+05 -4.7903E+04   1.8784E+05  0.000E+00  0.000E+00  0.000E+00  3.96112E+01  2.362E-01  2.000E+01  2.000E+04 -2.395E+00
   1   10   26     2     5    1.8784E+05 -3.3881E+04   2.2172E+05  0.000E+00  0.000E+00  0.000E+00  3.93950E+01  2.700E-01  2.000E+01  2.000E+04 -1.694E+00
   1   11   25     2     6    2.2172E+05 -2.5513E+04   2.4723E+05  0.000E+00  0.000E+00  0.000E+00  3.91678E+01  2.928E-01  2.000E+01  2.000E+04 -1.276E+00
   1   12   24     2     7    2.4723E+05 -1.8890E+04   2.6612E+05  0.000E+00  0.000E+00  0.000E+00  3.89342E+01  3.092E-01  2.000E+01  2.000E+04 -9.445E-01
   1   13   23     2     8    2.6612E+05 -1.3441E+04   2.7957E+05  0.000E+00  0.000E+00  0.000E+00  3.86957E+01  3.207E-01  2.000E+01  2.000E+04 -6.721E-01
   1   14   22     2     9    2.7957E+05 -7.4630E+03   2.8703E+05  0.000E+00  0.000E+00  0.000E+00  3.84530E+01  3.280E-01  2.000E+01  2.000E+04 -3.731E-01
   1   14   22     3     1    1.0777E+06 -1.5374E+04   1.0931E+06  0.000E+00  0.000E+00  0.000E+00  3.80575E+01  5.019E-01  2.000E+01  2.000E+04 -7.687E-01
   1   15   23     3     2    1.0931E+06 -2.3372E+04   1.1165E+06  0.000E+00  0.000E+00  0.000E+00  3.71740E+01  5.073E-01  2.000E+01  2.000E+04 -1.169E+00
   1   15   24     3     3    1.1165E+06 -1.9403E+04   1.1359E+06  0.000E+00  0.000E+00  0.000E+00  3.62910E+01  5.132E-01  2.000E+01  2.000E+04 -9.701E-01
   1   15   25     3     4    1.1359E+06 -1.9002E+04   1.1549E+06  0.000E+00  0.000E+00  0.000E+00  3.54073E+01  5.184E-01  2.000E+01  2.000E+04 -9.501E-01
   1   15   26     3     5    1.1549E+06 -2.1812E+04   1.1767E+06  0.000E+00  0.000E+00  0.000E+00  3.45239E+01  5.239E-01  2.000E+01  2.000E+04 -1.091E+00
   1   16   27     3     6    1.1767E+06 -2.8388E+04   1.2051E+06  0.000E+00  0.000E+00  0.000E+00  3.36418E+01  5.307E-01  2.000E+01  2.000E+04 -1.419E+00
   1   17   28     3     7    1.2051E+06 -3.4576E+04   1.2397E+06  0.000E+00  0.000E+00  0.000E+00  3.27613E+01  5.390E-01  2.000E+01  2.000E+04 -1.729E+00
   1   18   29     3     8    1.2397E+06 -4.3862E+04   1.2835E+06  0.000E+00  0.000E+00  0.000E+00  3.18827E+01  5.494E-01  2.000E+01  2.000E+04 -2.193E+00
   1   18   30     3     9    1.2835E+06 -4.0800E+04   1.3243E+06  0.000E+00  0.000E+00  0.000E+00  3.10048E+01  5.603E-01  2.000E+01  2.000E+04 -2.040E+00



1
              HEAD IN LAYER   1 AT END OF TIME STEP   1 IN STRESS PERIOD    6
  ---------------------------------------------------------------------------

          1      2      3      4      5      6      7      8      9     10
         11     12     13     14     15     16     17     18     19     20
         21     22     23     24     25     26     27     28     29     30
 .........................................................................
   1  ****** ****** ****** ****** ****** ****** ****** ****** ****** ******
      ****** ****** ****** ****** ****** ****** ****** ****** ****** ******
      ****** ****** ****** ****** ****** ****** ****** ****** ****** ******
   2  ****** ****** ****** ****** ****** ****** ****** ****** ****** ******
      ****** ****** ****** ****** ****** ****** ****** ****** ****** ******
      ****** ****** ****** ****** ****** ****** ****** ****** ****** ******
   3  ****** ****** ****** ****** ****** ****** ****** ****** ****** ******
      ****** ****** ****** ****** ****** ****** ****** ****** ****** ******
      ****** ****** ****** ****** ****** ****** ****** ****** ****** ******
   4  ****** ****** ****** ****** ****** ****** ****** ****** ****** ******
      ****** ****** ****** ****** ****** ****** ****** ****** ****** ******
      ****** ****** ****** ****** ****** ****** ****** ****** ****** ******
   5  ****** ****** ****** ****** ****** ****** ****** ****** ****** ******
      ****** ****** ****** ****** ****** ****** ****** ****** ****** ******
      ****** ****** ****** ****** ****** ****** ****** ****** ****** ******
   6  ****** ****** ****** ****** ****** ****** ****** ****** ****** ******
      ****** ****** ****** ****** ****** ****** ****** ****** ****** ******
      ****** ****** ****** ****** ****** ****** ****** ****** ****** ******
   7  ****** ****** ****** ****** ****** ****** ****** ****** ****** ******
      ****** ****** ****** ****** ****** ****** ****** ****** ****** ******
      ****** ****** ****** ****** ****** ****** ****** ****** ****** ******
   8  ****** ****** ****** ****** ****** ****** ****** ****** ****** ******
      ****** ****** ****** ****** ****** ****** ****** ****** ****** ******
      ****** ****** ****** ****** ****** ****** ****** ****** ****** ******
   9  ****** ****** ****** ****** ****** ****** ****** ****** ****** ******
      ****** ****** ****** ****** ****** ****** ****** ****** ****** ******
      ****** ****** ****** ****** ****** ****** ****** ****** ****** ******
  10  ****** ****** ****** ****** ****** ****** ****** ****** ****** ******
      ****** ****** ****** ****** ****** ****** ****** ****** ****** ******
      ****** ****** ****** ****** ****** ****** ****** ****** ****** ******
  11  ****** ****** ****** ****** ****** ****** ****** ****** ****** ******
      ****** ****** ****** ****** ****** ****** ****** ****** ****** ******
      ****** ****** ****** ****** ****** ****** ****** ****** ****** ******
  12  ****** ****** ****** ****** ****** ****** ****** ****** ****** ******
      ****** ****** ****** ****** ****** ****** ****** ****** ****** ******
      ****** ****** ****** ****** ****** ****** ****** ****** ****** ******
  13  ****** ****** ****** ****** ****** ****** ****** ****** ****** ******
      ****** ****** ****** ****** ****** ****** ****** ****** ****** ******
      ****** ****** ****** ****** ****** ****** ****** ****** ****** ******
  14  ****** ****** ****** ****** ****** ****** ****** ****** ****** ******
      ****** ****** ****** ****** ****** ****** ****** ****** ****** ******
      ****** ****** ****** ****** ****** ****** ****** ****** ****** ******
  15  ****** ****** ****** ****** ****** ****** ****** ****** ****** ******
      ****** ****** ****** ****** ****** ****** ****** ****** ****** ******
      ****** ****** ****** ****** ****** ****** ****** ****** ****** ******
  16  ****** ****** ****** ****** ****** ****** ****** ****** ****** ******
      ****** ****** ****** ****** ****** ****** ****** ****** ****** ******
      ****** ****** ****** ****** ****** ****** ****** ****** ****** ******
  17  ****** ****** ****** ****** ****** ****** ****** ****** ****** ******
      ****** ****** ****** ****** ****** ****** ****** ****** ****** ******
      ****** ****** ****** ****** ****** ****** ****** ****** ****** ******
  18  ****** ****** ****** ****** ****** ****** ****** ****** ****** ******
      ****** ****** ****** ****** ****** ****** ****** ****** ****** ******
      ****** ****** ****** ****** ****** ****** ****** ****** ****** ******
  19  ****** ****** ****** ****** ****** ****** ****** ****** ****** ******
      ****** ****** ****** ****** ****** ****** ****** ****** ****** ******
      ****** ****** ****** ****** ****** ****** ****** ****** ****** ******
  20  ****** ****** ****** ****** ****** ****** ****** ****** ****** ******
      ****** ****** ****** ****** ****** ****** ****** ****** ****** ******
      ****** ****** ****** ****** ****** ****** ****** ****** ****** ******
  21  ****** ****** ****** ****** ****** ****** ****** ****** ****** ******
      ****** ****** ****** ****** ****** ****** ****** ****** ****** ******
      ****** ****** ****** ****** ****** ****** ****** ****** ****** ******
  22  ****** ****** ****** ****** ****** ****** ****** ****** ****** ******
      ****** ****** ****** ****** ****** ****** ****** ****** ****** ******
      ****** ****** ****** ****** ****** ****** ****** ****** ****** ******
  23  ****** ****** ****** ****** ****** ****** ****** ****** ****** ******
      ****** ****** ****** ****** ****** ****** ****** ****** ****** ******
      ****** ****** ****** ****** ****** ****** ****** ****** ****** ******
  24  ****** ****** ****** ****** ****** ****** ****** ****** ****** ******
      ****** ****** ****** ****** ****** ****** ****** ****** ****** ******
      ****** ****** ****** ****** ****** ****** ****** ****** ****** ******
  25  ****** ****** ****** ****** ****** ****** ****** ****** ****** ******
      ****** ****** ****** ****** ****** ****** ****** ****** ****** ******
      ****** ****** ****** ****** ****** ****** ****** ****** ****** ******

 HEAD WILL BE SAVED ON UNIT   51 AT END OF TIME STEP    1, STRESS PERIOD    6
1
  VOLUMETRIC BUDGET FOR ENTIRE MODEL AT END OF TIME STEP    1, STRESS PERIOD   6
  ------------------------------------------------------------------------------

     CUMULATIVE VOLUMES      L**3       RATES FOR THIS TIME STEP      L**3/T
     ------------------                 ------------------------

           IN:                                      IN:
           ---                                      ---
             STORAGE =    20120661.1491               STORAGE =           0.0000
       CONSTANT HEAD =   654399672.6724         CONSTANT HEAD =     1201024.2337
               WELLS =           0.0000                 WELLS =           0.0000
            RECHARGE =    15097200.0000              RECHARGE =       55200.0000
      STREAM LEAKAGE =           0.0000        STREAM LEAKAGE =           0.0000

            TOTAL IN =   689617533.8214              TOTAL IN =     1256224.2337

          OUT:                                     OUT:
          ----                                     ----
             STORAGE =      362977.2105               STORAGE =        1902.4349
       CONSTANT HEAD =           0.0000         CONSTANT HEAD =           0.0000
               WELLS =    39290000.0000                 WELLS =       80000.0000
            RECHARGE =           0.0000              RECHARGE =           0.0000
      STREAM LEAKAGE =   649964563.6520        STREAM LEAKAGE =     1174321.7662

           TOTAL OUT =   689617540.8625             TOTAL OUT =     1256224.2011

            IN - OUT =          -7.0411              IN - OUT =       3.2548E-02

 PERCENT DISCREPANCY =          -0.00     PERCENT DISCREPANCY =           0.00






         TIME SUMMARY AT END OF TIME STEP    1 IN STRESS PERIOD    6
                    SECONDS     MINUTES      HOURS       DAYS        YEARS
                    -----------------------------------------------------------
   TIME STEP LENGTH 7.86240E+06 1.31040E+05  2184.0      91.000     0.24914    
 STRESS PERIOD TIME 7.86240E+06 1.31040E+05  2184.0      91.000     0.24914    
         TOTAL TIME 4.73472E+07 7.89120E+05  13152.      548.00      1.5003    
1
1
                            STRESS PERIOD NO.    7, LENGTH =   91.00000    
                            -----------------------------------------------

                              NUMBER OF TIME STEPS =     1

                               MULTIPLIER FOR DELT =     1.500

                            INITIAL TIME STEP SIZE =   91.00000    

 WELL NO.  LAYER   ROW   COL   STRESS RATE         
 --------------------------------------------------
      1      1     22     29     -0.3000E+05
      2      1     24     24     -0.5000E+05
      3      1     24     27     -0.5500E+05

      3 WELLS

                 RECHARGE =   0.00000    

 REUSING STREAM SEGMENT DATA FROM LAST STRESS PERIOD
 
 SOLVING FOR HEAD 


     6 CALLS TO PCG ROUTINE FOR TIME STEP   1 IN STRESS PERIOD    7
    23 TOTAL ITERATIONS

 OUTPUT CONTROL FOR STRESS PERIOD    7   TIME STEP    1
    SAVE BUDGET
    SAVE HEAD FOR ALL LAYERS
    PRINT HEAD FOR ALL LAYERS
 UBDSV2 SAVING "STREAMFLOW OUT  " ON UNIT  50 AT TIME STEP  1, STRESS PERIOD   7



 STREAM LISTING     PERIOD      7   STEP        1

 LAYER ROW COL. STREAM  RCH.  FLOW INTO     FLOW TO   FLOW OUT OF   OVRLND.     DIRECT     STREAM       STREAM     STREAM     STREAM   STREAMBED  STREAMBED
                SEG.NO.  NO.  STRM. RCH.    AQUIFER    STRM. RCH.    RUNOFF     PRECIP       ET          HEAD       DEPTH      WIDTH   CONDCTNC.   GRADIENT

   1   13    1     1     1    1.0000E+05 -2.7516E+04   1.2752E+05  0.000E+00  0.000E+00  0.000E+00  4.84176E+01  1.563E-01  2.000E+01  2.000E+04 -1.376E+00
   1   13    2     1     2    1.2752E+05 -3.7201E+04   1.6472E+05  0.000E+00  0.000E+00  0.000E+00  4.79657E+01  1.816E-01  2.000E+01  2.000E+04 -1.860E+00
   1   14    3     1     3    1.6472E+05 -3.2682E+04   1.9740E+05  0.000E+00  0.000E+00  0.000E+00  4.75134E+01  2.065E-01  2.000E+01  2.000E+04 -1.634E+00
   1   15    4     1     4    1.9740E+05 -3.1930E+04   2.2933E+05  0.000E+00  0.000E+00  0.000E+00  4.70575E+01  2.279E-01  2.000E+01  2.000E+04 -1.597E+00
   1   16    5     1     5    2.2933E+05 -3.3480E+04   2.6281E+05  0.000E+00  0.000E+00  0.000E+00  4.66006E+01  2.483E-01  2.000E+01  2.000E+04 -1.674E+00
   1   16    6     1     6    2.6281E+05 -2.9262E+04   2.9207E+05  0.000E+00  0.000E+00  0.000E+00  4.61418E+01  2.668E-01  2.000E+01  2.000E+04 -1.463E+00
   1   16    7     1     7    2.9207E+05 -2.9094E+04   3.2117E+05  0.000E+00  0.000E+00  0.000E+00  4.56811E+01  2.833E-01  2.000E+01  2.000E+04 -1.455E+00
   1   16    8     1     8    3.2117E+05 -2.9284E+04   3.5045E+05  0.000E+00  0.000E+00  0.000E+00  4.52197E+01  2.992E-01  2.000E+01  2.000E+04 -1.464E+00
   1   16    9     1     9    3.5045E+05 -2.9371E+04   3.7982E+05  0.000E+00  0.000E+00  0.000E+00  4.47578E+01  3.146E-01  2.000E+01  2.000E+04 -1.469E+00
   1   16   10     1    10    3.7982E+05 -2.9404E+04   4.0922E+05  0.000E+00  0.000E+00  0.000E+00  4.42955E+01  3.296E-01  2.000E+01  2.000E+04 -1.470E+00
   1   16   11     1    11    4.0922E+05 -3.0002E+04   4.3923E+05  0.000E+00  0.000E+00  0.000E+00  4.38329E+01  3.443E-01  2.000E+01  2.000E+04 -1.500E+00
   1   16   12     1    12    4.3923E+05 -3.5441E+04   4.7467E+05  0.000E+00  0.000E+00  0.000E+00  4.33713E+01  3.600E-01  2.000E+01  2.000E+04 -1.772E+00
   1   15   13     1    13    4.7467E+05 -3.4150E+04   5.0882E+05  0.000E+00  0.000E+00  0.000E+00  4.29102E+01  3.762E-01  2.000E+01  2.000E+04 -1.707E+00
   1   14   14     1    14    5.0882E+05 -3.4733E+04   5.4355E+05  0.000E+00  0.000E+00  0.000E+00  4.24486E+01  3.917E-01  2.000E+01  2.000E+04 -1.737E+00
   1   13   15     1    15    5.4355E+05 -3.6982E+04   5.8053E+05  0.000E+00  0.000E+00  0.000E+00  4.19871E+01  4.076E-01  2.000E+01  2.000E+04 -1.849E+00
   1   12   16     1    16    5.8053E+05 -4.3090E+04   6.2362E+05  0.000E+00  0.000E+00  0.000E+00  4.15270E+01  4.247E-01  2.000E+01  2.000E+04 -2.155E+00
   1   12   17     1    17    6.2362E+05 -3.3671E+04   6.5729E+05  0.000E+00  0.000E+00  0.000E+00  4.10658E+01  4.408E-01  2.000E+01  2.000E+04 -1.684E+00
   1   12   18     1    18    6.5729E+05 -3.2053E+04   6.8935E+05  0.000E+00  0.000E+00  0.000E+00  4.06019E+01  4.542E-01  2.000E+01  2.000E+04 -1.603E+00
   1   12   19     1    19    6.8935E+05 -3.6107E+04   7.2545E+05  0.000E+00  0.000E+00  0.000E+00  4.01383E+01  4.679E-01  2.000E+01  2.000E+04 -1.805E+00
   1   13   20     1    20    7.2545E+05 -2.6288E+04   7.5174E+05  0.000E+00  0.000E+00  0.000E+00  3.96733E+01  4.801E-01  2.000E+01  2.000E+04 -1.314E+00
   1   14   21     1    21    7.5174E+05 -1.9024E+04   7.7077E+05  0.000E+00  0.000E+00  0.000E+00  3.92048E+01  4.889E-01  2.000E+01  2.000E+04 -9.512E-01
   1   14   22     1    22    7.7077E+05 -1.4686E+03   7.7224E+05  0.000E+00  0.000E+00  0.000E+00  3.87315E+01  4.929E-01  2.000E+01  2.000E+04 -7.343E-02
   1    9   30     2     1    5.0000E+04 -2.6292E+04   7.6292E+04  0.000E+00  0.000E+00  0.000E+00  4.02583E+01  1.333E-01  2.000E+01  2.000E+04 -1.315E+00
   1    9   29     2     2    7.6292E+04 -2.8765E+04   1.0506E+05  0.000E+00  0.000E+00  0.000E+00  4.00406E+01  1.656E-01  2.000E+01  2.000E+04 -1.438E+00
   1    9   28     2     3    1.0506E+05 -3.3056E+04   1.3811E+05  0.000E+00  0.000E+00  0.000E+00  3.98225E+01  1.975E-01  2.000E+01  2.000E+04 -1.653E+00
   1    9   27     2     4    1.3811E+05 -4.7151E+04   1.8526E+05  0.000E+00  0.000E+00  0.000E+00  3.96093E+01  2.343E-01  2.000E+01  2.000E+04 -2.358E+00
   1   10   26     2     5    1.8526E+05 -3.3092E+04   2.1836E+05  0.000E+00  0.000E+00  0.000E+00  3.93926E+01  2.676E-01  2.000E+01  2.000E+04 -1.655E+00
   1   11   25     2     6    2.1836E+05 -2.4746E+04   2.4310E+05  0.000E+00  0.000E+00  0.000E+00  3.91650E+01  2.900E-01  2.000E+01  2.000E+04 -1.237E+00
   1   12   24     2     7    2.4310E+05 -1.8195E+04   2.6130E+05  0.000E+00  0.000E+00  0.000E+00  3.89309E+01  3.059E-01  2.000E+01  2.000E+04 -9.098E-01
   1   13   23     2     8    2.6130E+05 -1.2860E+04   2.7416E+05  0.000E+00  0.000E+00  0.000E+00  3.86921E+01  3.171E-01  2.000E+01  2.000E+04 -6.430E-01
   1   14   22     2     9    2.7416E+05 -7.1158E+03   2.8127E+05  0.000E+00  0.000E+00  0.000E+00  3.84491E+01  3.241E-01  2.000E+01  2.000E+04 -3.558E-01
   1   14   22     3     1    1.0535E+06 -1.5084E+04   1.0686E+06  0.000E+00  0.000E+00  0.000E+00  3.80507E+01  4.952E-01  2.000E+01  2.000E+04 -7.542E-01
   1   15   23     3     2    1.0686E+06 -2.2476E+04   1.0911E+06  0.000E+00  0.000E+00  0.000E+00  3.71671E+01  5.004E-01  2.000E+01  2.000E+04 -1.124E+00
   1   15   24     3     3    1.0911E+06 -1.8628E+04   1.1097E+06  0.000E+00  0.000E+00  0.000E+00  3.62839E+01  5.061E-01  2.000E+01  2.000E+04 -9.314E-01
   1   15   25     3     4    1.1097E+06 -1.8227E+04   1.1279E+06  0.000E+00  0.000E+00  0.000E+00  3.54000E+01  5.112E-01  2.000E+01  2.000E+04 -9.114E-01
   1   15   26     3     5    1.1279E+06 -2.0956E+04   1.1489E+06  0.000E+00  0.000E+00  0.000E+00  3.45165E+01  5.165E-01  2.000E+01  2.000E+04 -1.048E+00
   1   16   27     3     6    1.1489E+06 -2.7125E+04   1.1760E+06  0.000E+00  0.000E+00  0.000E+00  3.36341E+01  5.230E-01  2.000E+01  2.000E+04 -1.356E+00
   1   17   28     3     7    1.1760E+06 -3.2961E+04   1.2090E+06  0.000E+00  0.000E+00  0.000E+00  3.27533E+01  5.311E-01  2.000E+01  2.000E+04 -1.648E+00
   1   18   29     3     8    1.2090E+06 -4.1789E+04   1.2508E+06  0.000E+00  0.000E+00  0.000E+00  3.18744E+01  5.410E-01  2.000E+01  2.000E+04 -2.089E+00
   1   18   30     3     9    1.2508E+06 -3.9154E+04   1.2899E+06  0.000E+00  0.000E+00  0.000E+00  3.09961E+01  5.516E-01  2.000E+01  2.000E+04 -1.958E+00



1
              HEAD IN LAYER   1 AT END OF TIME STEP   1 IN STRESS PERIOD    7
  ---------------------------------------------------------------------------

          1      2      3      4      5      6      7      8      9     10
         11     12     13     14     15     16     17     18     19     20
         21     22     23     24     25     26     27     28     29     30
 .........................................................................
   1  ****** ****** ****** ****** ****** ****** ****** ****** ****** ******
      ****** ****** ****** ****** ****** ****** ****** ****** ****** ******
      ****** ****** ****** ****** ****** ****** ****** ****** ****** ******
   2  ****** ****** ****** ****** ****** ****** ****** ****** ****** ******
      ****** ****** ****** ****** ****** ****** ****** ****** ****** ******
      ****** ****** ****** ****** ****** ****** ****** ****** ****** ******
   3  ****** ****** ****** ****** ****** ****** ****** ****** ****** ******
      ****** ****** ****** ****** ****** ****** ****** ****** ****** ******
      ****** ****** ****** ****** ****** ****** ****** ****** ****** ******
   4  ****** ****** ****** ****** ****** ****** ****** ****** ****** ******
      ****** ****** ****** ****** ****** ****** ****** ****** ****** ******
      ****** ****** ****** ****** ****** ****** ****** ****** ****** ******
   5  ****** ****** ****** ****** ****** ****** ****** ****** ****** ******
      ****** ****** ****** ****** ****** ****** ****** ****** ****** ******
      ****** ****** ****** ****** ****** ****** ****** ****** ****** ******
   6  ****** ****** ****** ****** ****** ****** ****** ****** ****** ******
      ****** ****** ****** ****** ****** ****** ****** ****** ****** ******
      ****** ****** ****** ****** ****** ****** ****** ****** ****** ******
   7  ****** ****** ****** ****** ****** ****** ****** ****** ****** ******
      ****** ****** ****** ****** ****** ****** ****** ****** ****** ******
      ****** ****** ****** ****** ****** ****** ****** ****** ****** ******
   8  ****** ****** ****** ****** ****** ****** ****** ****** ****** ******
      ****** ****** ****** ****** ****** ****** ****** ****** ****** ******
      ****** ****** ****** ****** ****** ****** ****** ****** ****** ******
   9  ****** ****** ****** ****** ****** ****** ****** ****** ****** ******
      ****** ****** ****** ****** ****** ****** ****** ****** ****** ******
      ****** ****** ****** ****** ****** ****** ****** ****** ****** ******
  10  ****** ****** ****** ****** ****** ****** ****** ****** ****** ******
      ****** ****** ****** ****** ****** ****** ****** ****** ****** ******
      ****** ****** ****** ****** ****** ****** ****** ****** ****** ******
  11  ****** ****** ****** ****** ****** ****** ****** ****** ****** ******
      ****** ****** ****** ****** ****** ****** ****** ****** ****** ******
      ****** ****** ****** ****** ****** ****** ****** ****** ****** ******
  12  ****** ****** ****** ****** ****** ****** ****** ****** ****** ******
      ****** ****** ****** ****** ****** ****** ****** ****** ****** ******
      ****** ****** ****** ****** ****** ****** ****** ****** ****** ******
  13  ****** ****** ****** ****** ****** ****** ****** ****** ****** ******
      ****** ****** ****** ****** ****** ****** ****** ****** ****** ******
      ****** ****** ****** ****** ****** ****** ****** ****** ****** ******
  14  ****** ****** ****** ****** ****** ****** ****** ****** ****** ******
      ****** ****** ****** ****** ****** ****** ****** ****** ****** ******
      ****** ****** ****** ****** ****** ****** ****** ****** ****** ******
  15  ****** ****** ****** ****** ****** ****** ****** ****** ****** ******
      ****** ****** ****** ****** ****** ****** ****** ****** ****** ******
      ****** ****** ****** ****** ****** ****** ****** ****** ****** ******
  16  ****** ****** ****** ****** ****** ****** ****** ****** ****** ******
      ****** ****** ****** ****** ****** ****** ****** ****** ****** ******
      ****** ****** ****** ****** ****** ****** ****** ****** ****** ******
  17  ****** ****** ****** ****** ****** ****** ****** ****** ****** ******
      ****** ****** ****** ****** ****** ****** ****** ****** ****** ******
      ****** ****** ****** ****** ****** ****** ****** ****** ****** ******
  18  ****** ****** ****** ****** ****** ****** ****** ****** ****** ******
      ****** ****** ****** ****** ****** ****** ****** ****** ****** ******
      ****** ****** ****** ****** ****** ****** ****** ****** ****** ******
  19  ****** ****** ****** ****** ****** ****** ****** ****** ****** ******
      ****** ****** ****** ****** ****** ****** ****** ****** ****** ******
      ****** ****** ****** ****** ****** ****** ****** ****** ****** ******
  20  ****** ****** ****** ****** ****** ****** ****** ****** ****** ******
      ****** ****** ****** ****** ****** ****** ****** ****** ****** ******
      ****** ****** ****** ****** ****** ****** ****** ****** ****** ******
  21  ****** ****** ****** ****** ****** ****** ****** ****** ****** ******
      ****** ****** ****** ****** ****** ****** ****** ****** ****** ******
      ****** ****** ****** ****** ****** ****** ****** ****** ****** ******
  22  ****** ****** ****** ****** ****** ****** ****** ****** ****** ******
      ****** ****** ****** ****** ****** ****** ****** ****** ****** ******
      ****** ****** ****** ****** ****** ****** ****** ****** ****** ******
  23  ****** ****** ****** ****** ****** ****** ****** ****** ****** ******
      ****** ****** ****** ****** ****** ****** ****** ****** ****** ******
      ****** ****** ****** ****** ****** ****** ****** ****** ****** ******
  24  ****** ****** ****** ****** ****** ****** ****** ****** ****** ******
      ****** ****** ****** ****** ****** ****** ****** ****** ****** ******
      ****** ****** ****** ****** ****** ****** ****** ****** ****** ******
  25  ****** ****** ****** ****** ****** ****** ****** ****** ****** ******
      ****** ****** ****** ****** ****** ****** ****** ****** ****** ******
      ****** ****** ****** ****** ****** ****** ****** ****** ****** ******

 HEAD WILL BE SAVED ON UNIT   51 AT END OF TIME STEP    1, STRESS PERIOD    7
1
  VOLUMETRIC BUDGET FOR ENTIRE MODEL AT END OF TIME STEP    1, STRESS PERIOD   7
  ------------------------------------------------------------------------------

     CUMULATIVE VOLUMES      L**3       RATES FOR THIS TIME STEP      L**3/T
     ------------------                 ------------------------

           IN:                                      IN:
           ---                                      ---
             STORAGE =    20436458.1938               STORAGE =        3470.2972
       CONSTANT HEAD =   770100660.9480         CONSTANT HEAD =     1271439.4316
               WELLS =           0.0000                 WELLS =           0.0000
            RECHARGE =    15097200.0000              RECHARGE =           0.0000
      STREAM LEAKAGE =           0.0000        STREAM LEAKAGE =           0.0000

            TOTAL IN =   805634319.1418              TOTAL IN =     1274909.7288

          OUT:                                     OUT:
          ----                                     ----
             STORAGE =      362977.2105               STORAGE =           0.0000
       CONSTANT HEAD =           0.0000         CONSTANT HEAD =           0.0000
               WELLS =    51575045.5000                 WELLS =      135000.5000
            RECHARGE =           0.0000              RECHARGE =           0.0000
      STREAM LEAKAGE =   753696307.7789        STREAM LEAKAGE =     1139909.2761

           TOTAL OUT =   805634330.4895             TOTAL OUT =     1274909.7761

            IN - OUT =         -11.3476              IN - OUT =      -4.7325E-02

 PERCENT DISCREPANCY =          -0.00     PERCENT DISCREPANCY =          -0.00






         TIME SUMMARY AT END OF TIME STEP    1 IN STRESS PERIOD    7
                    SECONDS     MINUTES      HOURS       DAYS        YEARS
                    -----------------------------------------------------------
   TIME STEP LENGTH 7.86240E+06 1.31040E+05  2184.0      91.000     0.24914    
 STRESS PERIOD TIME 7.86240E+06 1.31040E+05  2184.0      91.000     0.24914    
         TOTAL TIME 5.52096E+07 9.20160E+05  15336.      639.00      1.7495    
1
1
                            STRESS PERIOD NO.    8, LENGTH =   91.00000    
                            -----------------------------------------------

                              NUMBER OF TIME STEPS =     1

                               MULTIPLIER FOR DELT =     1.500

                            INITIAL TIME STEP SIZE =   91.00000    

 WELL NO.  LAYER   ROW   COL   STRESS RATE         
 --------------------------------------------------
      1      1     22     29     -0.3000E+05
      2      1     24     24       0.000    
      3      1     24     27     -0.5500E+05

      3 WELLS

                 RECHARGE =  1.000000E-03

 REUSING STREAM SEGMENT DATA FROM LAST STRESS PERIOD
 
 SOLVING FOR HEAD 


     6 CALLS TO PCG ROUTINE FOR TIME STEP   1 IN STRESS PERIOD    8
    22 TOTAL ITERATIONS

 OUTPUT CONTROL FOR STRESS PERIOD    8   TIME STEP    1
    SAVE BUDGET
    SAVE HEAD FOR ALL LAYERS
    PRINT HEAD FOR ALL LAYERS
 UBDSV2 SAVING "STREAMFLOW OUT  " ON UNIT  50 AT TIME STEP  1, STRESS PERIOD   8



 STREAM LISTING     PERIOD      8   STEP        1

 LAYER ROW COL. STREAM  RCH.  FLOW INTO     FLOW TO   FLOW OUT OF   OVRLND.     DIRECT     STREAM       STREAM     STREAM     STREAM   STREAMBED  STREAMBED
                SEG.NO.  NO.  STRM. RCH.    AQUIFER    STRM. RCH.    RUNOFF     PRECIP       ET          HEAD       DEPTH      WIDTH   CONDCTNC.   GRADIENT

   1   13    1     1     1    1.0000E+05 -2.7909E+04   1.2791E+05  0.000E+00  0.000E+00  0.000E+00  4.84178E+01  1.564E-01  2.000E+01  2.000E+04 -1.395E+00
   1   13    2     1     2    1.2791E+05 -3.7670E+04   1.6558E+05  0.000E+00  0.000E+00  0.000E+00  4.79662E+01  1.821E-01  2.000E+01  2.000E+04 -1.883E+00
   1   14    3     1     3    1.6558E+05 -3.3146E+04   1.9873E+05  0.000E+00  0.000E+00  0.000E+00  4.75141E+01  2.073E-01  2.000E+01  2.000E+04 -1.657E+00
   1   15    4     1     4    1.9873E+05 -3.2380E+04   2.3111E+05  0.000E+00  0.000E+00  0.000E+00  4.70585E+01  2.289E-01  2.000E+01  2.000E+04 -1.619E+00
   1   16    5     1     5    2.3111E+05 -3.3891E+04   2.6500E+05  0.000E+00  0.000E+00  0.000E+00  4.66018E+01  2.495E-01  2.000E+01  2.000E+04 -1.695E+00
   1   16    6     1     6    2.6500E+05 -2.9620E+04   2.9462E+05  0.000E+00  0.000E+00  0.000E+00  4.61432E+01  2.682E-01  2.000E+01  2.000E+04 -1.481E+00
   1   16    7     1     7    2.9462E+05 -2.9451E+04   3.2407E+05  0.000E+00  0.000E+00  0.000E+00  4.56826E+01  2.848E-01  2.000E+01  2.000E+04 -1.473E+00
   1   16    8     1     8    3.2407E+05 -2.9645E+04   3.5371E+05  0.000E+00  0.000E+00  0.000E+00  4.52213E+01  3.009E-01  2.000E+01  2.000E+04 -1.482E+00
   1   16    9     1     9    3.5371E+05 -2.9737E+04   3.8345E+05  0.000E+00  0.000E+00  0.000E+00  4.47596E+01  3.164E-01  2.000E+01  2.000E+04 -1.487E+00
   1   16   10     1    10    3.8345E+05 -2.9777E+04   4.1323E+05  0.000E+00  0.000E+00  0.000E+00  4.42974E+01  3.315E-01  2.000E+01  2.000E+04 -1.489E+00
   1   16   11     1    11    4.1323E+05 -3.0394E+04   4.4362E+05  0.000E+00  0.000E+00  0.000E+00  4.38349E+01  3.463E-01  2.000E+01  2.000E+04 -1.520E+00
   1   16   12     1    12    4.4362E+05 -3.5931E+04   4.7955E+05  0.000E+00  0.000E+00  0.000E+00  4.33735E+01  3.621E-01  2.000E+01  2.000E+04 -1.797E+00
   1   15   13     1    13    4.7955E+05 -3.4685E+04   5.1424E+05  0.000E+00  0.000E+00  0.000E+00  4.29126E+01  3.785E-01  2.000E+01  2.000E+04 -1.734E+00
   1   14   14     1    14    5.1424E+05 -3.5281E+04   5.4952E+05  0.000E+00  0.000E+00  0.000E+00  4.24511E+01  3.943E-01  2.000E+01  2.000E+04 -1.764E+00
   1   13   15     1    15    5.4952E+05 -3.7514E+04   5.8703E+05  0.000E+00  0.000E+00  0.000E+00  4.19898E+01  4.103E-01  2.000E+01  2.000E+04 -1.876E+00
   1   12   16     1    16    5.8703E+05 -4.3577E+04   6.3061E+05  0.000E+00  0.000E+00  0.000E+00  4.15299E+01  4.276E-01  2.000E+01  2.000E+04 -2.179E+00
   1   12   17     1    17    6.3061E+05 -3.4082E+04   6.6469E+05  0.000E+00  0.000E+00  0.000E+00  4.10687E+01  4.437E-01  2.000E+01  2.000E+04 -1.704E+00
   1   12   18     1    18    6.6469E+05 -3.2454E+04   6.9714E+05  0.000E+00  0.000E+00  0.000E+00  4.06050E+01  4.573E-01  2.000E+01  2.000E+04 -1.623E+00
   1   12   19     1    19    6.9714E+05 -3.6542E+04   7.3369E+05  0.000E+00  0.000E+00  0.000E+00  4.01415E+01  4.710E-01  2.000E+01  2.000E+04 -1.827E+00
   1   13   20     1    20    7.3369E+05 -2.6767E+04   7.6045E+05  0.000E+00  0.000E+00  0.000E+00  3.96766E+01  4.834E-01  2.000E+01  2.000E+04 -1.338E+00
   1   14   21     1    21    7.6045E+05 -1.9545E+04   7.8000E+05  0.000E+00  0.000E+00  0.000E+00  3.92083E+01  4.924E-01  2.000E+01  2.000E+04 -9.773E-01
   1   14   22     1    22    7.8000E+05 -1.6585E+03   7.8166E+05  0.000E+00  0.000E+00  0.000E+00  3.87351E+01  4.964E-01  2.000E+01  2.000E+04 -8.293E-02
   1    9   30     2     1    5.0000E+04 -2.6584E+04   7.6584E+04  0.000E+00  0.000E+00  0.000E+00  4.02585E+01  1.335E-01  2.000E+01  2.000E+04 -1.329E+00
   1    9   29     2     2    7.6584E+04 -2.9055E+04   1.0564E+05  0.000E+00  0.000E+00  0.000E+00  4.00411E+01  1.661E-01  2.000E+01  2.000E+04 -1.453E+00
   1    9   28     2     3    1.0564E+05 -3.3355E+04   1.3899E+05  0.000E+00  0.000E+00  0.000E+00  3.98232E+01  1.982E-01  2.000E+01  2.000E+04 -1.668E+00
   1    9   27     2     4    1.3899E+05 -4.7512E+04   1.8651E+05  0.000E+00  0.000E+00  0.000E+00  3.96102E+01  2.352E-01  2.000E+01  2.000E+04 -2.376E+00
   1   10   26     2     5    1.8651E+05 -3.3474E+04   2.1998E+05  0.000E+00  0.000E+00  0.000E+00  3.93938E+01  2.688E-01  2.000E+01  2.000E+04 -1.674E+00
   1   11   25     2     6    2.1998E+05 -2.5122E+04   2.4510E+05  0.000E+00  0.000E+00  0.000E+00  3.91664E+01  2.914E-01  2.000E+01  2.000E+04 -1.256E+00
   1   12   24     2     7    2.4510E+05 -1.8544E+04   2.6365E+05  0.000E+00  0.000E+00  0.000E+00  3.89325E+01  3.075E-01  2.000E+01  2.000E+04 -9.272E-01
   1   13   23     2     8    2.6365E+05 -1.3170E+04   2.7682E+05  0.000E+00  0.000E+00  0.000E+00  3.86939E+01  3.189E-01  2.000E+01  2.000E+04 -6.585E-01
   1   14   22     2     9    2.7682E+05 -7.3383E+03   2.8415E+05  0.000E+00  0.000E+00  0.000E+00  3.84511E+01  3.261E-01  2.000E+01  2.000E+04 -3.669E-01
   1   14   22     3     1    1.0658E+06 -1.5276E+04   1.0811E+06  0.000E+00  0.000E+00  0.000E+00  3.80542E+01  4.986E-01  2.000E+01  2.000E+04 -7.638E-01
   1   15   23     3     2    1.0811E+06 -2.3150E+04   1.1042E+06  0.000E+00  0.000E+00  0.000E+00  3.71706E+01  5.040E-01  2.000E+01  2.000E+04 -1.158E+00
   1   15   24     3     3    1.1042E+06 -1.9181E+04   1.1234E+06  0.000E+00  0.000E+00  0.000E+00  3.62876E+01  5.098E-01  2.000E+01  2.000E+04 -9.591E-01
   1   15   25     3     4    1.1234E+06 -1.8740E+04   1.1422E+06  0.000E+00  0.000E+00  0.000E+00  3.54039E+01  5.150E-01  2.000E+01  2.000E+04 -9.370E-01
   1   15   26     3     5    1.1422E+06 -2.1467E+04   1.1636E+06  0.000E+00  0.000E+00  0.000E+00  3.45204E+01  5.204E-01  2.000E+01  2.000E+04 -1.073E+00
   1   16   27     3     6    1.1636E+06 -2.7872E+04   1.1915E+06  0.000E+00  0.000E+00  0.000E+00  3.36382E+01  5.271E-01  2.000E+01  2.000E+04 -1.394E+00
   1   17   28     3     7    1.1915E+06 -3.3824E+04   1.2253E+06  0.000E+00  0.000E+00  0.000E+00  3.27576E+01  5.353E-01  2.000E+01  2.000E+04 -1.691E+00
   1   18   29     3     8    1.2253E+06 -4.2719E+04   1.2680E+06  0.000E+00  0.000E+00  0.000E+00  3.18788E+01  5.454E-01  2.000E+01  2.000E+04 -2.136E+00
   1   18   30     3     9    1.2680E+06 -3.9825E+04   1.3079E+06  0.000E+00  0.000E+00  0.000E+00  3.10007E+01  5.562E-01  2.000E+01  2.000E+04 -1.991E+00



1
              HEAD IN LAYER   1 AT END OF TIME STEP   1 IN STRESS PERIOD    8
  ---------------------------------------------------------------------------

          1      2      3      4      5      6      7      8      9     10
         11     12     13     14     15     16     17     18     19     20
         21     22     23     24     25     26     27     28     29     30
 .........................................................................
   1  ****** ****** ****** ****** ****** ****** ****** ****** ****** ******
      ****** ****** ****** ****** ****** ****** ****** ****** ****** ******
      ****** ****** ****** ****** ****** ****** ****** ****** ****** ******
   2  ****** ****** ****** ****** ****** ****** ****** ****** ****** ******
      ****** ****** ****** ****** ****** ****** ****** ****** ****** ******
      ****** ****** ****** ****** ****** ****** ****** ****** ****** ******
   3  ****** ****** ****** ****** ****** ****** ****** ****** ****** ******
      ****** ****** ****** ****** ****** ****** ****** ****** ****** ******
      ****** ****** ****** ****** ****** ****** ****** ****** ****** ******
   4  ****** ****** ****** ****** ****** ****** ****** ****** ****** ******
      ****** ****** ****** ****** ****** ****** ****** ****** ****** ******
      ****** ****** ****** ****** ****** ****** ****** ****** ****** ******
   5  ****** ****** ****** ****** ****** ****** ****** ****** ****** ******
      ****** ****** ****** ****** ****** ****** ****** ****** ****** ******
      ****** ****** ****** ****** ****** ****** ****** ****** ****** ******
   6  ****** ****** ****** ****** ****** ****** ****** ****** ****** ******
      ****** ****** ****** ****** ****** ****** ****** ****** ****** ******
      ****** ****** ****** ****** ****** ****** ****** ****** ****** ******
   7  ****** ****** ****** ****** ****** ****** ****** ****** ****** ******
      ****** ****** ****** ****** ****** ****** ****** ****** ****** ******
      ****** ****** ****** ****** ****** ****** ****** ****** ****** ******
   8  ****** ****** ****** ****** ****** ****** ****** ****** ****** ******
      ****** ****** ****** ****** ****** ****** ****** ****** ****** ******
      ****** ****** ****** ****** ****** ****** ****** ****** ****** ******
   9  ****** ****** ****** ****** ****** ****** ****** ****** ****** ******
      ****** ****** ****** ****** ****** ****** ****** ****** ****** ******
      ****** ****** ****** ****** ****** ****** ****** ****** ****** ******
  10  ****** ****** ****** ****** ****** ****** ****** ****** ****** ******
      ****** ****** ****** ****** ****** ****** ****** ****** ****** ******
      ****** ****** ****** ****** ****** ****** ****** ****** ****** ******
  11  ****** ****** ****** ****** ****** ****** ****** ****** ****** ******
      ****** ****** ****** ****** ****** ****** ****** ****** ****** ******
      ****** ****** ****** ****** ****** ****** ****** ****** ****** ******
  12  ****** ****** ****** ****** ****** ****** ****** ****** ****** ******
      ****** ****** ****** ****** ****** ****** ****** ****** ****** ******
      ****** ****** ****** ****** ****** ****** ****** ****** ****** ******
  13  ****** ****** ****** ****** ****** ****** ****** ****** ****** ******
      ****** ****** ****** ****** ****** ****** ****** ****** ****** ******
      ****** ****** ****** ****** ****** ****** ****** ****** ****** ******
  14  ****** ****** ****** ****** ****** ****** ****** ****** ****** ******
      ****** ****** ****** ****** ****** ****** ****** ****** ****** ******
      ****** ****** ****** ****** ****** ****** ****** ****** ****** ******
  15  ****** ****** ****** ****** ****** ****** ****** ****** ****** ******
      ****** ****** ****** ****** ****** ****** ****** ****** ****** ******
      ****** ****** ****** ****** ****** ****** ****** ****** ****** ******
  16  ****** ****** ****** ****** ****** ****** ****** ****** ****** ******
      ****** ****** ****** ****** ****** ****** ****** ****** ****** ******
      ****** ****** ****** ****** ****** ****** ****** ****** ****** ******
  17  ****** ****** ****** ****** ****** ****** ****** ****** ****** ******
      ****** ****** ****** ****** ****** ****** ****** ****** ****** ******
      ****** ****** ****** ****** ****** ****** ****** ****** ****** ******
  18  ****** ****** ****** ****** ****** ****** ****** ****** ****** ******
      ****** ****** ****** ****** ****** ****** ****** ****** ****** ******
      ****** ****** ****** ****** ****** ****** ****** ****** ****** ******
  19  ****** ****** ****** ****** ****** ****** ****** ****** ****** ******
      ****** ****** ****** ****** ****** ****** ****** ****** ****** ******
      ****** ****** ****** ****** ****** ****** ****** ****** ****** ******
  20  ****** ****** ****** ****** ****** ****** ****** ****** ****** ******
      ****** ****** ****** ****** ****** ****** ****** ****** ****** ******
      ****** ****** ****** ****** ****** ****** ****** ****** ****** ******
  21  ****** ****** ****** ****** ****** ****** ****** ****** ****** ******
      ****** ****** ****** ****** ****** ****** ****** ****** ****** ******
      ****** ****** ****** ****** ****** ****** ****** ****** ****** ******
  22  ****** ****** ****** ****** ****** ****** ****** ****** ****** ******
      ****** ****** ****** ****** ****** ****** ****** ****** ****** ******
      ****** ****** ****** ****** ****** ****** ****** ****** ****** ******
  23  ****** ****** ****** ****** ****** ****** ****** ****** ****** ******
      ****** ****** ****** ****** ****** ****** ****** ****** ****** ******
      ****** ****** ****** ****** ****** ****** ****** ****** ****** ******
  24  ****** ****** ****** ****** ****** ****** ****** ****** ****** ******
      ****** ****** ****** ****** ****** ****** ****** ****** ****** ******
      ****** ****** ****** ****** ****** ****** ****** ****** ****** ******
  25  ****** ****** ****** ****** ****** ****** ****** ****** ****** ******
      ****** ****** ****** ****** ****** ****** ****** ****** ****** ******
      ****** ****** ****** ****** ****** ****** ****** ****** ****** ******

 HEAD WILL BE SAVED ON UNIT   51 AT END OF TIME STEP    1, STRESS PERIOD    8
1
  VOLUMETRIC BUDGET FOR ENTIRE MODEL AT END OF TIME STEP    1, STRESS PERIOD   8
  ------------------------------------------------------------------------------

     CUMULATIVE VOLUMES      L**3       RATES FOR THIS TIME STEP      L**3/T
     ------------------                 ------------------------

           IN:                                      IN:
           ---                                      ---
             STORAGE =    20436458.1938               STORAGE =           0.0000
       CONSTANT HEAD =   880879649.1028         CONSTANT HEAD =     1217351.5182
               WELLS =           0.0000                 WELLS =           0.0000
            RECHARGE =    17608800.0000              RECHARGE =       27600.0000
      STREAM LEAKAGE =           0.0000        STREAM LEAKAGE =           0.0000

            TOTAL IN =   918924907.2966              TOTAL IN =     1244951.5182

          OUT:                                     OUT:
          ----                                     ----
             STORAGE =      552762.9357               STORAGE =        2085.5574
       CONSTANT HEAD =           0.0000         CONSTANT HEAD =           0.0000
               WELLS =    59310091.0000                 WELLS =       85000.5000
            RECHARGE =           0.0000              RECHARGE =           0.0000
      STREAM LEAKAGE =   859062062.2302        STREAM LEAKAGE =     1157865.4335

           TOTAL OUT =   918924916.1659             TOTAL OUT =     1244951.4910

            IN - OUT =          -8.8693              IN - OUT =       2.7235E-02

 PERCENT DISCREPANCY =          -0.00     PERCENT DISCREPANCY =           0.00






         TIME SUMMARY AT END OF TIME STEP    1 IN STRESS PERIOD    8
                    SECONDS     MINUTES      HOURS       DAYS        YEARS
                    -----------------------------------------------------------
   TIME STEP LENGTH 7.86240E+06 1.31040E+05  2184.0      91.000     0.24914    
 STRESS PERIOD TIME 7.86240E+06 1.31040E+05  2184.0      91.000     0.24914    
         TOTAL TIME 6.30720E+07 1.05120E+06  17520.      730.00      1.9986    
1
1
                            STRESS PERIOD NO.    9, LENGTH =   92.00000    
                            -----------------------------------------------

                              NUMBER OF TIME STEPS =     1

                               MULTIPLIER FOR DELT =     1.500

                            INITIAL TIME STEP SIZE =   92.00000    

 WELL NO.  LAYER   ROW   COL   STRESS RATE         
 --------------------------------------------------
      1      1     22     29     -0.3000E+05
      2      1     24     24     -0.5000E+05
      3      1     24     27     -0.5500E+05

      3 WELLS

                 RECHARGE =  5.000000E-04

 REUSING STREAM SEGMENT DATA FROM LAST STRESS PERIOD
 
 SOLVING FOR HEAD 


     6 CALLS TO PCG ROUTINE FOR TIME STEP   1 IN STRESS PERIOD    9
    22 TOTAL ITERATIONS

 OUTPUT CONTROL FOR STRESS PERIOD    9   TIME STEP    1
    SAVE BUDGET
    SAVE HEAD FOR ALL LAYERS
    PRINT HEAD FOR ALL LAYERS
 UBDSV2 SAVING "STREAMFLOW OUT  " ON UNIT  50 AT TIME STEP  1, STRESS PERIOD   9



 STREAM LISTING     PERIOD      9   STEP        1

 LAYER ROW COL. STREAM  RCH.  FLOW INTO     FLOW TO   FLOW OUT OF   OVRLND.     DIRECT     STREAM       STREAM     STREAM     STREAM   STREAMBED  STREAMBED
                SEG.NO.  NO.  STRM. RCH.    AQUIFER    STRM. RCH.    RUNOFF     PRECIP       ET          HEAD       DEPTH      WIDTH   CONDCTNC.   GRADIENT

   1   13    1     1     1    1.0000E+05 -2.7710E+04   1.2771E+05  0.000E+00  0.000E+00  0.000E+00  4.84177E+01  1.564E-01  2.000E+01  2.000E+04 -1.385E+00
   1   13    2     1     2    1.2771E+05 -3.7432E+04   1.6514E+05  0.000E+00  0.000E+00  0.000E+00  4.79659E+01  1.818E-01  2.000E+01  2.000E+04 -1.872E+00
   1   14    3     1     3    1.6514E+05 -3.2911E+04   1.9805E+05  0.000E+00  0.000E+00  0.000E+00  4.75137E+01  2.069E-01  2.000E+01  2.000E+04 -1.646E+00
   1   15    4     1     4    1.9805E+05 -3.2152E+04   2.3020E+05  0.000E+00  0.000E+00  0.000E+00  4.70580E+01  2.284E-01  2.000E+01  2.000E+04 -1.608E+00
   1   16    5     1     5    2.3020E+05 -3.3682E+04   2.6389E+05  0.000E+00  0.000E+00  0.000E+00  4.66012E+01  2.489E-01  2.000E+01  2.000E+04 -1.684E+00
   1   16    6     1     6    2.6389E+05 -2.9437E+04   2.9332E+05  0.000E+00  0.000E+00  0.000E+00  4.61425E+01  2.675E-01  2.000E+01  2.000E+04 -1.472E+00
   1   16    7     1     7    2.9332E+05 -2.9267E+04   3.2259E+05  0.000E+00  0.000E+00  0.000E+00  4.56818E+01  2.841E-01  2.000E+01  2.000E+04 -1.463E+00
   1   16    8     1     8    3.2259E+05 -2.9458E+04   3.5205E+05  0.000E+00  0.000E+00  0.000E+00  4.52205E+01  3.000E-01  2.000E+01  2.000E+04 -1.473E+00
   1   16    9     1     9    3.5205E+05 -2.9545E+04   3.8159E+05  0.000E+00  0.000E+00  0.000E+00  4.47587E+01  3.155E-01  2.000E+01  2.000E+04 -1.477E+00
   1   16   10     1    10    3.8159E+05 -2.9578E+04   4.1117E+05  0.000E+00  0.000E+00  0.000E+00  4.42964E+01  3.305E-01  2.000E+01  2.000E+04 -1.479E+00
   1   16   11     1    11    4.1117E+05 -3.0179E+04   4.4135E+05  0.000E+00  0.000E+00  0.000E+00  4.38339E+01  3.452E-01  2.000E+01  2.000E+04 -1.509E+00
   1   16   12     1    12    4.4135E+05 -3.5649E+04   4.7700E+05  0.000E+00  0.000E+00  0.000E+00  4.33724E+01  3.610E-01  2.000E+01  2.000E+04 -1.782E+00
   1   15   13     1    13    4.7700E+05 -3.4378E+04   5.1138E+05  0.000E+00  0.000E+00  0.000E+00  4.29114E+01  3.773E-01  2.000E+01  2.000E+04 -1.719E+00
   1   14   14     1    14    5.1138E+05 -3.4968E+04   5.4634E+05  0.000E+00  0.000E+00  0.000E+00  4.24498E+01  3.929E-01  2.000E+01  2.000E+04 -1.748E+00
   1   13   15     1    15    5.4634E+05 -3.7214E+04   5.8356E+05  0.000E+00  0.000E+00  0.000E+00  4.19884E+01  4.088E-01  2.000E+01  2.000E+04 -1.861E+00
   1   12   16     1    16    5.8356E+05 -4.3312E+04   6.2687E+05  0.000E+00  0.000E+00  0.000E+00  4.15283E+01  4.261E-01  2.000E+01  2.000E+04 -2.166E+00
   1   12   17     1    17    6.2687E+05 -3.3852E+04   6.6072E+05  0.000E+00  0.000E+00  0.000E+00  4.10672E+01  4.422E-01  2.000E+01  2.000E+04 -1.693E+00
   1   12   18     1    18    6.6072E+05 -3.2226E+04   6.9295E+05  0.000E+00  0.000E+00  0.000E+00  4.06034E+01  4.556E-01  2.000E+01  2.000E+04 -1.611E+00
   1   12   19     1    19    6.9295E+05 -3.6296E+04   7.2924E+05  0.000E+00  0.000E+00  0.000E+00  4.01398E+01  4.693E-01  2.000E+01  2.000E+04 -1.815E+00
   1   13   20     1    20    7.2924E+05 -2.6469E+04   7.5571E+05  0.000E+00  0.000E+00  0.000E+00  3.96748E+01  4.817E-01  2.000E+01  2.000E+04 -1.323E+00
   1   14   21     1    21    7.5571E+05 -1.9183E+04   7.7490E+05  0.000E+00  0.000E+00  0.000E+00  3.92064E+01  4.905E-01  2.000E+01  2.000E+04 -9.591E-01
   1   14   22     1    22    7.7490E+05 -1.5247E+03   7.7642E+05  0.000E+00  0.000E+00  0.000E+00  3.87331E+01  4.945E-01  2.000E+01  2.000E+04 -7.624E-02
   1    9   30     2     1    5.0000E+04 -2.6432E+04   7.6432E+04  0.000E+00  0.000E+00  0.000E+00  4.02584E+01  1.334E-01  2.000E+01  2.000E+04 -1.322E+00
   1    9   29     2     2    7.6432E+04 -2.8904E+04   1.0534E+05  0.000E+00  0.000E+00  0.000E+00  4.00408E+01  1.658E-01  2.000E+01  2.000E+04 -1.445E+00
   1    9   28     2     3    1.0534E+05 -3.3200E+04   1.3854E+05  0.000E+00  0.000E+00  0.000E+00  3.98228E+01  1.978E-01  2.000E+01  2.000E+04 -1.660E+00
   1    9   27     2     4    1.3854E+05 -4.7326E+04   1.8586E+05  0.000E+00  0.000E+00  0.000E+00  3.96097E+01  2.347E-01  2.000E+01  2.000E+04 -2.366E+00
   1   10   26     2     5    1.8586E+05 -3.3274E+04   2.1914E+05  0.000E+00  0.000E+00  0.000E+00  3.93932E+01  2.682E-01  2.000E+01  2.000E+04 -1.664E+00
   1   11   25     2     6    2.1914E+05 -2.4922E+04   2.4406E+05  0.000E+00  0.000E+00  0.000E+00  3.91657E+01  2.907E-01  2.000E+01  2.000E+04 -1.246E+00
   1   12   24     2     7    2.4406E+05 -1.8353E+04   2.6241E+05  0.000E+00  0.000E+00  0.000E+00  3.89317E+01  3.067E-01  2.000E+01  2.000E+04 -9.177E-01
   1   13   23     2     8    2.6241E+05 -1.2989E+04   2.7540E+05  0.000E+00  0.000E+00  0.000E+00  3.86929E+01  3.179E-01  2.000E+01  2.000E+04 -6.494E-01
   1   14   22     2     9    2.7540E+05 -7.1859E+03   2.8259E+05  0.000E+00  0.000E+00  0.000E+00  3.84500E+01  3.250E-01  2.000E+01  2.000E+04 -3.593E-01
   1   14   22     3     1    1.0590E+06 -1.5141E+04   1.0741E+06  0.000E+00  0.000E+00  0.000E+00  3.80523E+01  4.967E-01  2.000E+01  2.000E+04 -7.571E-01
   1   15   23     3     2    1.0741E+06 -2.2624E+04   1.0968E+06  0.000E+00  0.000E+00  0.000E+00  3.71686E+01  5.020E-01  2.000E+01  2.000E+04 -1.131E+00
   1   15   24     3     3    1.0968E+06 -1.8750E+04   1.1155E+06  0.000E+00  0.000E+00  0.000E+00  3.62855E+01  5.077E-01  2.000E+01  2.000E+04 -9.375E-01
   1   15   25     3     4    1.1155E+06 -1.8346E+04   1.1339E+06  0.000E+00  0.000E+00  0.000E+00  3.54017E+01  5.128E-01  2.000E+01  2.000E+04 -9.173E-01
   1   15   26     3     5    1.1339E+06 -2.1094E+04   1.1550E+06  0.000E+00  0.000E+00  0.000E+00  3.45181E+01  5.181E-01  2.000E+01  2.000E+04 -1.055E+00
   1   16   27     3     6    1.1550E+06 -2.7287E+04   1.1822E+06  0.000E+00  0.000E+00  0.000E+00  3.36358E+01  5.247E-01  2.000E+01  2.000E+04 -1.364E+00
   1   17   28     3     7    1.1822E+06 -3.3119E+04   1.2154E+06  0.000E+00  0.000E+00  0.000E+00  3.27550E+01  5.328E-01  2.000E+01  2.000E+04 -1.656E+00
   1   18   29     3     8    1.2154E+06 -4.1924E+04   1.2573E+06  0.000E+00  0.000E+00  0.000E+00  3.18761E+01  5.427E-01  2.000E+01  2.000E+04 -2.096E+00
   1   18   30     3     9    1.2573E+06 -3.9265E+04   1.2966E+06  0.000E+00  0.000E+00  0.000E+00  3.09978E+01  5.533E-01  2.000E+01  2.000E+04 -1.963E+00



1
              HEAD IN LAYER   1 AT END OF TIME STEP   1 IN STRESS PERIOD    9
  ---------------------------------------------------------------------------

          1      2      3      4      5      6      7      8      9     10
         11     12     13     14     15     16     17     18     19     20
         21     22     23     24     25     26     27     28     29     30
 .........................................................................
   1  ****** ****** ****** ****** ****** ****** ****** ****** ****** ******
      ****** ****** ****** ****** ****** ****** ****** ****** ****** ******
      ****** ****** ****** ****** ****** ****** ****** ****** ****** ******
   2  ****** ****** ****** ****** ****** ****** ****** ****** ****** ******
      ****** ****** ****** ****** ****** ****** ****** ****** ****** ******
      ****** ****** ****** ****** ****** ****** ****** ****** ****** ******
   3  ****** ****** ****** ****** ****** ****** ****** ****** ****** ******
      ****** ****** ****** ****** ****** ****** ****** ****** ****** ******
      ****** ****** ****** ****** ****** ****** ****** ****** ****** ******
   4  ****** ****** ****** ****** ****** ****** ****** ****** ****** ******
      ****** ****** ****** ****** ****** ****** ****** ****** ****** ******
      ****** ****** ****** ****** ****** ****** ****** ****** ****** ******
   5  ****** ****** ****** ****** ****** ****** ****** ****** ****** ******
      ****** ****** ****** ****** ****** ****** ****** ****** ****** ******
      ****** ****** ****** ****** ****** ****** ****** ****** ****** ******
   6  ****** ****** ****** ****** ****** ****** ****** ****** ****** ******
      ****** ****** ****** ****** ****** ****** ****** ****** ****** ******
      ****** ****** ****** ****** ****** ****** ****** ****** ****** ******
   7  ****** ****** ****** ****** ****** ****** ****** ****** ****** ******
      ****** ****** ****** ****** ****** ****** ****** ****** ****** ******
      ****** ****** ****** ****** ****** ****** ****** ****** ****** ******
   8  ****** ****** ****** ****** ****** ****** ****** ****** ****** ******
      ****** ****** ****** ****** ****** ****** ****** ****** ****** ******
      ****** ****** ****** ****** ****** ****** ****** ****** ****** ******
   9  ****** ****** ****** ****** ****** ****** ****** ****** ****** ******
      ****** ****** ****** ****** ****** ****** ****** ****** ****** ******
      ****** ****** ****** ****** ****** ****** ****** ****** ****** ******
  10  ****** ****** ****** ****** ****** ****** ****** ****** ****** ******
      ****** ****** ****** ****** ****** ****** ****** ****** ****** ******
      ****** ****** ****** ****** ****** ****** ****** ****** ****** ******
  11  ****** ****** ****** ****** ****** ****** ****** ****** ****** ******
      ****** ****** ****** ****** ****** ****** ****** ****** ****** ******
      ****** ****** ****** ****** ****** ****** ****** ****** ****** ******
  12  ****** ****** ****** ****** ****** ****** ****** ****** ****** ******
      ****** ****** ****** ****** ****** ****** ****** ****** ****** ******
      ****** ****** ****** ****** ****** ****** ****** ****** ****** ******
  13  ****** ****** ****** ****** ****** ****** ****** ****** ****** ******
      ****** ****** ****** ****** ****** ****** ****** ****** ****** ******
      ****** ****** ****** ****** ****** ****** ****** ****** ****** ******
  14  ****** ****** ****** ****** ****** ****** ****** ****** ****** ******
      ****** ****** ****** ****** ****** ****** ****** ****** ****** ******
      ****** ****** ****** ****** ****** ****** ****** ****** ****** ******
  15  ****** ****** ****** ****** ****** ****** ****** ****** ****** ******
      ****** ****** ****** ****** ****** ****** ****** ****** ****** ******
      ****** ****** ****** ****** ****** ****** ****** ****** ****** ******
  16  ****** ****** ****** ****** ****** ****** ****** ****** ****** ******
      ****** ****** ****** ****** ****** ****** ****** ****** ****** ******
      ****** ****** ****** ****** ****** ****** ****** ****** ****** ******
  17  ****** ****** ****** ****** ****** ****** ****** ****** ****** ******
      ****** ****** ****** ****** ****** ****** ****** ****** ****** ******
      ****** ****** ****** ****** ****** ****** ****** ****** ****** ******
  18  ****** ****** ****** ****** ****** ****** ****** ****** ****** ******
      ****** ****** ****** ****** ****** ****** ****** ****** ****** ******
      ****** ****** ****** ****** ****** ****** ****** ****** ****** ******
  19  ****** ****** ****** ****** ****** ****** ****** ****** ****** ******
      ****** ****** ****** ****** ****** ****** ****** ****** ****** ******
      ****** ****** ****** ****** ****** ****** ****** ****** ****** ******
  20  ****** ****** ****** ****** ****** ****** ****** ****** ****** ******
      ****** ****** ****** ****** ****** ****** ****** ****** ****** ******
      ****** ****** ****** ****** ****** ****** ****** ****** ****** ******
  21  ****** ****** ****** ****** ****** ****** ****** ****** ****** ******
      ****** ****** ****** ****** ****** ****** ****** ****** ****** ******
      ****** ****** ****** ****** ****** ****** ****** ****** ****** ******
  22  ****** ****** ****** ****** ****** ****** ****** ****** ****** ******
      ****** ****** ****** ****** ****** ****** ****** ****** ****** ******
      ****** ****** ****** ****** ****** ****** ****** ****** ****** ******
  23  ****** ****** ****** ****** ****** ****** ****** ****** ****** ******
      ****** ****** ****** ****** ****** ****** ****** ****** ****** ******
      ****** ****** ****** ****** ****** ****** ****** ****** ****** ******
  24  ****** ****** ****** ****** ****** ****** ****** ****** ****** ******
      ****** ****** ****** ****** ****** ****** ****** ****** ****** ******
      ****** ****** ****** ****** ****** ****** ****** ****** ****** ******
  25  ****** ****** ****** ****** ****** ****** ****** ****** ****** ******
      ****** ****** ****** ****** ****** ****** ****** ****** ****** ******
      ****** ****** ****** ****** ****** ****** ****** ****** ****** ******

 HEAD WILL BE SAVED ON UNIT   51 AT END OF TIME STEP    1, STRESS PERIOD    9
1
  VOLUMETRIC BUDGET FOR ENTIRE MODEL AT END OF TIME STEP    1, STRESS PERIOD   9
  ------------------------------------------------------------------------------

     CUMULATIVE VOLUMES      L**3       RATES FOR THIS TIME STEP      L**3/T
     ------------------                 ------------------------

           IN:                                      IN:
           ---                                      ---
             STORAGE =    20573411.8754               STORAGE =        1488.6270
       CONSTANT HEAD =   997376484.6677         CONSTANT HEAD =     1266269.9518
               WELLS =           0.0000                 WELLS =           0.0000
            RECHARGE =    18878400.0000              RECHARGE =       13800.0000
      STREAM LEAKAGE =           0.0000        STREAM LEAKAGE =           0.0000

            TOTAL IN =  1036828296.5431              TOTAL IN =     1281558.5788

          OUT:                                     OUT:
          ----                                     ----
             STORAGE =      552762.9357               STORAGE =           0.0000
       CONSTANT HEAD =           0.0000         CONSTANT HEAD =           0.0000
               WELLS =    71730137.0000                 WELLS =      135000.5000
            RECHARGE =           0.0000              RECHARGE =           0.0000
      STREAM LEAKAGE =   964545406.8437        STREAM LEAKAGE =     1146558.0936

           TOTAL OUT =  1036828306.7795             TOTAL OUT =     1281558.5936

            IN - OUT =         -10.2364              IN - OUT =      -1.4860E-02

 PERCENT DISCREPANCY =          -0.00     PERCENT DISCREPANCY =          -0.00






         TIME SUMMARY AT END OF TIME STEP    1 IN STRESS PERIOD    9
                    SECONDS     MINUTES      HOURS       DAYS        YEARS
                    -----------------------------------------------------------
   TIME STEP LENGTH 7.94880E+06 1.32480E+05  2208.0      92.000     0.25188    
 STRESS PERIOD TIME 7.94880E+06 1.32480E+05  2208.0      92.000     0.25188    
         TOTAL TIME 7.10208E+07 1.18368E+06  19728.      822.00      2.2505    
1
1
                            STRESS PERIOD NO.   10, LENGTH =   91.00000    
                            -----------------------------------------------

                              NUMBER OF TIME STEPS =     1

                               MULTIPLIER FOR DELT =     1.500

                            INITIAL TIME STEP SIZE =   91.00000    

 WELL NO.  LAYER   ROW   COL   STRESS RATE         
 --------------------------------------------------
      1      1     22     29     -0.3000E+05
      2      1     24     24     -0.5000E+05
      3      1     24     27     -0.5500E+05

      3 WELLS

                 RECHARGE =  2.000000E-03

 REUSING STREAM SEGMENT DATA FROM LAST STRESS PERIOD
 
 SOLVING FOR HEAD 


     6 CALLS TO PCG ROUTINE FOR TIME STEP   1 IN STRESS PERIOD   10
    22 TOTAL ITERATIONS

 OUTPUT CONTROL FOR STRESS PERIOD   10   TIME STEP    1
    SAVE BUDGET
    SAVE HEAD FOR ALL LAYERS
    PRINT HEAD FOR ALL LAYERS
 UBDSV2 SAVING "STREAMFLOW OUT  " ON UNIT  50 AT TIME STEP  1, STRESS PERIOD  10



 STREAM LISTING     PERIOD     10   STEP        1

 LAYER ROW COL. STREAM  RCH.  FLOW INTO     FLOW TO   FLOW OUT OF   OVRLND.     DIRECT     STREAM       STREAM     STREAM     STREAM   STREAMBED  STREAMBED
                SEG.NO.  NO.  STRM. RCH.    AQUIFER    STRM. RCH.    RUNOFF     PRECIP       ET          HEAD       DEPTH      WIDTH   CONDCTNC.   GRADIENT

   1   13    1     1     1    1.0000E+05 -2.8362E+04   1.2836E+05  0.000E+00  0.000E+00  0.000E+00  4.84180E+01  1.566E-01  2.000E+01  2.000E+04 -1.418E+00
   1   13    2     1     2    1.2836E+05 -3.8211E+04   1.6657E+05  0.000E+00  0.000E+00  0.000E+00  4.79667E+01  1.826E-01  2.000E+01  2.000E+04 -1.911E+00
   1   14    3     1     3    1.6657E+05 -3.3673E+04   2.0025E+05  0.000E+00  0.000E+00  0.000E+00  4.75150E+01  2.082E-01  2.000E+01  2.000E+04 -1.684E+00
   1   15    4     1     4    2.0025E+05 -3.2884E+04   2.3313E+05  0.000E+00  0.000E+00  0.000E+00  4.70596E+01  2.301E-01  2.000E+01  2.000E+04 -1.644E+00
   1   16    5     1     5    2.3313E+05 -3.4342E+04   2.6747E+05  0.000E+00  0.000E+00  0.000E+00  4.66031E+01  2.508E-01  2.000E+01  2.000E+04 -1.717E+00
   1   16    6     1     6    2.6747E+05 -3.0011E+04   2.9748E+05  0.000E+00  0.000E+00  0.000E+00  4.61447E+01  2.697E-01  2.000E+01  2.000E+04 -1.501E+00
   1   16    7     1     7    2.9748E+05 -2.9835E+04   3.2732E+05  0.000E+00  0.000E+00  0.000E+00  4.56842E+01  2.865E-01  2.000E+01  2.000E+04 -1.492E+00
   1   16    8     1     8    3.2732E+05 -3.0027E+04   3.5734E+05  0.000E+00  0.000E+00  0.000E+00  4.52231E+01  3.027E-01  2.000E+01  2.000E+04 -1.501E+00
   1   16    9     1     9    3.5734E+05 -3.0113E+04   3.8746E+05  0.000E+00  0.000E+00  0.000E+00  4.47616E+01  3.184E-01  2.000E+01  2.000E+04 -1.506E+00
   1   16   10     1    10    3.8746E+05 -3.0144E+04   4.1760E+05  0.000E+00  0.000E+00  0.000E+00  4.42995E+01  3.336E-01  2.000E+01  2.000E+04 -1.507E+00
   1   16   11     1    11    4.1760E+05 -3.0751E+04   4.4835E+05  0.000E+00  0.000E+00  0.000E+00  4.38371E+01  3.485E-01  2.000E+01  2.000E+04 -1.538E+00
   1   16   12     1    12    4.4835E+05 -3.6312E+04   4.8466E+05  0.000E+00  0.000E+00  0.000E+00  4.33758E+01  3.645E-01  2.000E+01  2.000E+04 -1.816E+00
   1   15   13     1    13    4.8466E+05 -3.5111E+04   5.1977E+05  0.000E+00  0.000E+00  0.000E+00  4.29150E+01  3.809E-01  2.000E+01  2.000E+04 -1.756E+00
   1   14   14     1    14    5.1977E+05 -3.5726E+04   5.5550E+05  0.000E+00  0.000E+00  0.000E+00  4.24537E+01  3.968E-01  2.000E+01  2.000E+04 -1.786E+00
   1   13   15     1    15    5.5550E+05 -3.7967E+04   5.9347E+05  0.000E+00  0.000E+00  0.000E+00  4.19925E+01  4.129E-01  2.000E+01  2.000E+04 -1.898E+00
   1   12   16     1    16    5.9347E+05 -4.4042E+04   6.3751E+05  0.000E+00  0.000E+00  0.000E+00  4.15327E+01  4.304E-01  2.000E+01  2.000E+04 -2.202E+00
   1   12   17     1    17    6.3751E+05 -3.4438E+04   6.7195E+05  0.000E+00  0.000E+00  0.000E+00  4.10716E+01  4.466E-01  2.000E+01  2.000E+04 -1.722E+00
   1   12   18     1    18    6.7195E+05 -3.2785E+04   7.0473E+05  0.000E+00  0.000E+00  0.000E+00  4.06080E+01  4.603E-01  2.000E+01  2.000E+04 -1.639E+00
   1   12   19     1    19    7.0473E+05 -3.6908E+04   7.4164E+05  0.000E+00  0.000E+00  0.000E+00  4.01446E+01  4.741E-01  2.000E+01  2.000E+04 -1.845E+00
   1   13   20     1    20    7.4164E+05 -2.7035E+04   7.6868E+05  0.000E+00  0.000E+00  0.000E+00  3.96798E+01  4.866E-01  2.000E+01  2.000E+04 -1.352E+00
   1   14   21     1    21    7.6868E+05 -1.9662E+04   7.8834E+05  0.000E+00  0.000E+00  0.000E+00  3.92115E+01  4.955E-01  2.000E+01  2.000E+04 -9.831E-01
   1   14   22     1    22    7.8834E+05 -1.6935E+03   7.9003E+05  0.000E+00  0.000E+00  0.000E+00  3.87382E+01  4.996E-01  2.000E+01  2.000E+04 -8.467E-02
   1    9   30     2     1    5.0000E+04 -2.6876E+04   7.6876E+04  0.000E+00  0.000E+00  0.000E+00  4.02587E+01  1.337E-01  2.000E+01  2.000E+04 -1.344E+00
   1    9   29     2     2    7.6876E+04 -2.9348E+04   1.0622E+05  0.000E+00  0.000E+00  0.000E+00  4.00416E+01  1.666E-01  2.000E+01  2.000E+04 -1.467E+00
   1    9   28     2     3    1.0622E+05 -3.3660E+04   1.3988E+05  0.000E+00  0.000E+00  0.000E+00  3.98239E+01  1.989E-01  2.000E+01  2.000E+04 -1.683E+00
   1    9   27     2     4    1.3988E+05 -4.7889E+04   1.8777E+05  0.000E+00  0.000E+00  0.000E+00  3.96112E+01  2.362E-01  2.000E+01  2.000E+04 -2.394E+00
   1   10   26     2     5    1.8777E+05 -3.3859E+04   2.2163E+05  0.000E+00  0.000E+00  0.000E+00  3.93949E+01  2.699E-01  2.000E+01  2.000E+04 -1.693E+00
   1   11   25     2     6    2.2163E+05 -2.5484E+04   2.4712E+05  0.000E+00  0.000E+00  0.000E+00  3.91678E+01  2.928E-01  2.000E+01  2.000E+04 -1.274E+00
   1   12   24     2     7    2.4712E+05 -1.8855E+04   2.6597E+05  0.000E+00  0.000E+00  0.000E+00  3.89341E+01  3.091E-01  2.000E+01  2.000E+04 -9.428E-01
   1   13   23     2     8    2.6597E+05 -1.3395E+04   2.7937E+05  0.000E+00  0.000E+00  0.000E+00  3.86956E+01  3.206E-01  2.000E+01  2.000E+04 -6.697E-01
   1   14   22     2     9    2.7937E+05 -7.4010E+03   2.8677E+05  0.000E+00  0.000E+00  0.000E+00  3.84529E+01  3.279E-01  2.000E+01  2.000E+04 -3.700E-01
   1   14   22     3     1    1.0768E+06 -1.5314E+04   1.0921E+06  0.000E+00  0.000E+00  0.000E+00  3.80572E+01  5.017E-01  2.000E+01  2.000E+04 -7.657E-01
   1   15   23     3     2    1.0921E+06 -2.3060E+04   1.1152E+06  0.000E+00  0.000E+00  0.000E+00  3.71737E+01  5.070E-01  2.000E+01  2.000E+04 -1.153E+00
   1   15   24     3     3    1.1152E+06 -1.9111E+04   1.1343E+06  0.000E+00  0.000E+00  0.000E+00  3.62906E+01  5.128E-01  2.000E+01  2.000E+04 -9.556E-01
   1   15   25     3     4    1.1343E+06 -1.8708E+04   1.1530E+06  0.000E+00  0.000E+00  0.000E+00  3.54068E+01  5.179E-01  2.000E+01  2.000E+04 -9.354E-01
   1   15   26     3     5    1.1530E+06 -2.1520E+04   1.1745E+06  0.000E+00  0.000E+00  0.000E+00  3.45234E+01  5.234E-01  2.000E+01  2.000E+04 -1.076E+00
   1   16   27     3     6    1.1745E+06 -2.7794E+04   1.2023E+06  0.000E+00  0.000E+00  0.000E+00  3.36411E+01  5.300E-01  2.000E+01  2.000E+04 -1.390E+00
   1   17   28     3     7    1.2023E+06 -3.3634E+04   1.2359E+06  0.000E+00  0.000E+00  0.000E+00  3.27604E+01  5.382E-01  2.000E+01  2.000E+04 -1.682E+00
   1   18   29     3     8    1.2359E+06 -4.2401E+04   1.2783E+06  0.000E+00  0.000E+00  0.000E+00  3.18815E+01  5.482E-01  2.000E+01  2.000E+04 -2.120E+00
   1   18   30     3     9    1.2783E+06 -3.9667E+04   1.3180E+06  0.000E+00  0.000E+00  0.000E+00  3.10033E+01  5.589E-01  2.000E+01  2.000E+04 -1.983E+00



1
              HEAD IN LAYER   1 AT END OF TIME STEP   1 IN STRESS PERIOD   10
  ---------------------------------------------------------------------------

          1      2      3      4      5      6      7      8      9     10
         11     12     13     14     15     16     17     18     19     20
         21     22     23     24     25     26     27     28     29     30
 .........................................................................
   1  ****** ****** ****** ****** ****** ****** ****** ****** ****** ******
      ****** ****** ****** ****** ****** ****** ****** ****** ****** ******
      ****** ****** ****** ****** ****** ****** ****** ****** ****** ******
   2  ****** ****** ****** ****** ****** ****** ****** ****** ****** ******
      ****** ****** ****** ****** ****** ****** ****** ****** ****** ******
      ****** ****** ****** ****** ****** ****** ****** ****** ****** ******
   3  ****** ****** ****** ****** ****** ****** ****** ****** ****** ******
      ****** ****** ****** ****** ****** ****** ****** ****** ****** ******
      ****** ****** ****** ****** ****** ****** ****** ****** ****** ******
   4  ****** ****** ****** ****** ****** ****** ****** ****** ****** ******
      ****** ****** ****** ****** ****** ****** ****** ****** ****** ******
      ****** ****** ****** ****** ****** ****** ****** ****** ****** ******
   5  ****** ****** ****** ****** ****** ****** ****** ****** ****** ******
      ****** ****** ****** ****** ****** ****** ****** ****** ****** ******
      ****** ****** ****** ****** ****** ****** ****** ****** ****** ******
   6  ****** ****** ****** ****** ****** ****** ****** ****** ****** ******
      ****** ****** ****** ****** ****** ****** ****** ****** ****** ******
      ****** ****** ****** ****** ****** ****** ****** ****** ****** ******
   7  ****** ****** ****** ****** ****** ****** ****** ****** ****** ******
      ****** ****** ****** ****** ****** ****** ****** ****** ****** ******
      ****** ****** ****** ****** ****** ****** ****** ****** ****** ******
   8  ****** ****** ****** ****** ****** ****** ****** ****** ****** ******
      ****** ****** ****** ****** ****** ****** ****** ****** ****** ******
      ****** ****** ****** ****** ****** ****** ****** ****** ****** ******
   9  ****** ****** ****** ****** ****** ****** ****** ****** ****** ******
      ****** ****** ****** ****** ****** ****** ****** ****** ****** ******
      ****** ****** ****** ****** ****** ****** ****** ****** ****** ******
  10  ****** ****** ****** ****** ****** ****** ****** ****** ****** ******
      ****** ****** ****** ****** ****** ****** ****** ****** ****** ******
      ****** ****** ****** ****** ****** ****** ****** ****** ****** ******
  11  ****** ****** ****** ****** ****** ****** ****** ****** ****** ******
      ****** ****** ****** ****** ****** ****** ****** ****** ****** ******
      ****** ****** ****** ****** ****** ****** ****** ****** ****** ******
  12  ****** ****** ****** ****** ****** ****** ****** ****** ****** ******
      ****** ****** ****** ****** ****** ****** ****** ****** ****** ******
      ****** ****** ****** ****** ****** ****** ****** ****** ****** ******
  13  ****** ****** ****** ****** ****** ****** ****** ****** ****** ******
      ****** ****** ****** ****** ****** ****** ****** ****** ****** ******
      ****** ****** ****** ****** ****** ****** ****** ****** ****** ******
  14  ****** ****** ****** ****** ****** ****** ****** ****** ****** ******
      ****** ****** ****** ****** ****** ****** ****** ****** ****** ******
      ****** ****** ****** ****** ****** ****** ****** ****** ****** ******
  15  ****** ****** ****** ****** ****** ****** ****** ****** ****** ******
      ****** ****** ****** ****** ****** ****** ****** ****** ****** ******
      ****** ****** ****** ****** ****** ****** ****** ****** ****** ******
  16  ****** ****** ****** ****** ****** ****** ****** ****** ****** ******
      ****** ****** ****** ****** ****** ****** ****** ****** ****** ******
      ****** ****** ****** ****** ****** ****** ****** ****** ****** ******
  17  ****** ****** ****** ****** ****** ****** ****** ****** ****** ******
      ****** ****** ****** ****** ****** ****** ****** ****** ****** ******
      ****** ****** ****** ****** ****** ****** ****** ****** ****** ******
  18  ****** ****** ****** ****** ****** ****** ****** ****** ****** ******
      ****** ****** ****** ****** ****** ****** ****** ****** ****** ******
      ****** ****** ****** ****** ****** ****** ****** ****** ****** ******
  19  ****** ****** ****** ****** ****** ****** ****** ****** ****** ******
      ****** ****** ****** ****** ****** ****** ****** ****** ****** ******
      ****** ****** ****** ****** ****** ****** ****** ****** ****** ******
  20  ****** ****** ****** ****** ****** ****** ****** ****** ****** ******
      ****** ****** ****** ****** ****** ****** ****** ****** ****** ******
      ****** ****** ****** ****** ****** ****** ****** ****** ****** ******
  21  ****** ****** ****** ****** ****** ****** ****** ****** ****** ******
      ****** ****** ****** ****** ****** ****** ****** ****** ****** ******
      ****** ****** ****** ****** ****** ****** ****** ****** ****** ******
  22  ****** ****** ****** ****** ****** ****** ****** ****** ****** ******
      ****** ****** ****** ****** ****** ****** ****** ****** ****** ******
      ****** ****** ****** ****** ****** ****** ****** ****** ****** ******
  23  ****** ****** ****** ****** ****** ****** ****** ****** ****** ******
      ****** ****** ****** ****** ****** ****** ****** ****** ****** ******
      ****** ****** ****** ****** ****** ****** ****** ****** ****** ******
  24  ****** ****** ****** ****** ****** ****** ****** ****** ****** ******
      ****** ****** ****** ****** ****** ****** ****** ****** ****** ******
      ****** ****** ****** ****** ****** ****** ****** ****** ****** ******
  25  ****** ****** ****** ****** ****** ****** ****** ****** ****** ******
      ****** ****** ****** ****** ****** ****** ****** ****** ****** ******
      ****** ****** ****** ****** ****** ****** ****** ****** ****** ******

 HEAD WILL BE SAVED ON UNIT   51 AT END OF TIME STEP    1, STRESS PERIOD   10
1
  VOLUMETRIC BUDGET FOR ENTIRE MODEL AT END OF TIME STEP    1, STRESS PERIOD  10
  ------------------------------------------------------------------------------

     CUMULATIVE VOLUMES      L**3       RATES FOR THIS TIME STEP      L**3/T
     ------------------                 ------------------------

           IN:                                      IN:
           ---                                      ---
             STORAGE =    20573411.8754               STORAGE =           0.0000
       CONSTANT HEAD =  1111100308.0954         CONSTANT HEAD =     1249712.3454
               WELLS =           0.0000                 WELLS =           0.0000
            RECHARGE =    23901600.0000              RECHARGE =       55200.0000
      STREAM LEAKAGE =           0.0000        STREAM LEAKAGE =           0.0000

            TOTAL IN =  1155575319.9708              TOTAL IN =     1304912.3454

          OUT:                                     OUT:
          ----                                     ----
             STORAGE =      725892.4756               STORAGE =        1902.5224
       CONSTANT HEAD =           0.0000         CONSTANT HEAD =           0.0000
               WELLS =    84015182.5000                 WELLS =      135000.5000
            RECHARGE =           0.0000              RECHARGE =           0.0000
      STREAM LEAKAGE =  1070834252.2659        STREAM LEAKAGE =     1168009.2904

           TOTAL OUT =  1155575327.2415             TOTAL OUT =     1304912.3128

            IN - OUT =          -7.2707              IN - OUT =       3.2590E-02

 PERCENT DISCREPANCY =          -0.00     PERCENT DISCREPANCY =           0.00






         TIME SUMMARY AT END OF TIME STEP    1 IN STRESS PERIOD   10
                    SECONDS     MINUTES      HOURS       DAYS        YEARS
                    -----------------------------------------------------------
   TIME STEP LENGTH 7.86240E+06 1.31040E+05  2184.0      91.000     0.24914    
 STRESS PERIOD TIME 7.86240E+06 1.31040E+05  2184.0      91.000     0.24914    
         TOTAL TIME 7.88832E+07 1.31472E+06  21912.      913.00      2.4997    
1
1
                            STRESS PERIOD NO.   11, LENGTH =   91.00000    
                            -----------------------------------------------

                              NUMBER OF TIME STEPS =     1

                               MULTIPLIER FOR DELT =     1.500

                            INITIAL TIME STEP SIZE =   91.00000    

 WELL NO.  LAYER   ROW   COL   STRESS RATE         
 --------------------------------------------------
      1      1     22     29     -0.3000E+05
      2      1     24     24     -0.5000E+05
      3      1     24     27     -0.5500E+05

      3 WELLS

                 RECHARGE =   0.00000    

 REUSING STREAM SEGMENT DATA FROM LAST STRESS PERIOD
 
 SOLVING FOR HEAD 


     6 CALLS TO PCG ROUTINE FOR TIME STEP   1 IN STRESS PERIOD   11
    22 TOTAL ITERATIONS

 OUTPUT CONTROL FOR STRESS PERIOD   11   TIME STEP    1
    SAVE BUDGET
    SAVE HEAD FOR ALL LAYERS
    PRINT HEAD FOR ALL LAYERS
 UBDSV2 SAVING "STREAMFLOW OUT  " ON UNIT  50 AT TIME STEP  1, STRESS PERIOD  11



 STREAM LISTING     PERIOD     11   STEP        1

 LAYER ROW COL. STREAM  RCH.  FLOW INTO     FLOW TO   FLOW OUT OF   OVRLND.     DIRECT     STREAM       STREAM     STREAM     STREAM   STREAMBED  STREAMBED
                SEG.NO.  NO.  STRM. RCH.    AQUIFER    STRM. RCH.    RUNOFF     PRECIP       ET          HEAD       DEPTH      WIDTH   CONDCTNC.   GRADIENT

   1   13    1     1     1    1.0000E+05 -2.7515E+04   1.2752E+05  0.000E+00  0.000E+00  0.000E+00  4.84176E+01  1.563E-01  2.000E+01  2.000E+04 -1.376E+00
   1   13    2     1     2    1.2752E+05 -3.7201E+04   1.6472E+05  0.000E+00  0.000E+00  0.000E+00  4.79657E+01  1.816E-01  2.000E+01  2.000E+04 -1.860E+00
   1   14    3     1     3    1.6472E+05 -3.2682E+04   1.9740E+05  0.000E+00  0.000E+00  0.000E+00  4.75134E+01  2.065E-01  2.000E+01  2.000E+04 -1.634E+00
   1   15    4     1     4    1.9740E+05 -3.1930E+04   2.2933E+05  0.000E+00  0.000E+00  0.000E+00  4.70575E+01  2.279E-01  2.000E+01  2.000E+04 -1.596E+00
   1   16    5     1     5    2.2933E+05 -3.3480E+04   2.6281E+05  0.000E+00  0.000E+00  0.000E+00  4.66006E+01  2.483E-01  2.000E+01  2.000E+04 -1.674E+00
   1   16    6     1     6    2.6281E+05 -2.9261E+04   2.9207E+05  0.000E+00  0.000E+00  0.000E+00  4.61418E+01  2.668E-01  2.000E+01  2.000E+04 -1.463E+00
   1   16    7     1     7    2.9207E+05 -2.9093E+04   3.2116E+05  0.000E+00  0.000E+00  0.000E+00  4.56810E+01  2.833E-01  2.000E+01  2.000E+04 -1.455E+00
   1   16    8     1     8    3.2116E+05 -2.9283E+04   3.5045E+05  0.000E+00  0.000E+00  0.000E+00  4.52197E+01  2.992E-01  2.000E+01  2.000E+04 -1.464E+00
   1   16    9     1     9    3.5045E+05 -2.9370E+04   3.7982E+05  0.000E+00  0.000E+00  0.000E+00  4.47578E+01  3.146E-01  2.000E+01  2.000E+04 -1.468E+00
   1   16   10     1    10    3.7982E+05 -2.9402E+04   4.0922E+05  0.000E+00  0.000E+00  0.000E+00  4.42955E+01  3.296E-01  2.000E+01  2.000E+04 -1.470E+00
   1   16   11     1    11    4.0922E+05 -2.9999E+04   4.3922E+05  0.000E+00  0.000E+00  0.000E+00  4.38329E+01  3.443E-01  2.000E+01  2.000E+04 -1.500E+00
   1   16   12     1    12    4.3922E+05 -3.5435E+04   4.7465E+05  0.000E+00  0.000E+00  0.000E+00  4.33713E+01  3.599E-01  2.000E+01  2.000E+04 -1.772E+00
   1   15   13     1    13    4.7465E+05 -3.4144E+04   5.0880E+05  0.000E+00  0.000E+00  0.000E+00  4.29102E+01  3.761E-01  2.000E+01  2.000E+04 -1.707E+00
   1   14   14     1    14    5.0880E+05 -3.4728E+04   5.4352E+05  0.000E+00  0.000E+00  0.000E+00  4.24486E+01  3.917E-01  2.000E+01  2.000E+04 -1.736E+00
   1   13   15     1    15    5.4352E+05 -3.6977E+04   5.8050E+05  0.000E+00  0.000E+00  0.000E+00  4.19871E+01  4.075E-01  2.000E+01  2.000E+04 -1.849E+00
   1   12   16     1    16    5.8050E+05 -4.3087E+04   6.2359E+05  0.000E+00  0.000E+00  0.000E+00  4.15270E+01  4.247E-01  2.000E+01  2.000E+04 -2.154E+00
   1   12   17     1    17    6.2359E+05 -3.3668E+04   6.5726E+05  0.000E+00  0.000E+00  0.000E+00  4.10658E+01  4.408E-01  2.000E+01  2.000E+04 -1.683E+00
   1   12   18     1    18    6.5726E+05 -3.2049E+04   6.8930E+05  0.000E+00  0.000E+00  0.000E+00  4.06019E+01  4.542E-01  2.000E+01  2.000E+04 -1.602E+00
   1   12   19     1    19    6.8930E+05 -3.6103E+04   7.2541E+05  0.000E+00  0.000E+00  0.000E+00  4.01383E+01  4.679E-01  2.000E+01  2.000E+04 -1.805E+00
   1   13   20     1    20    7.2541E+05 -2.6281E+04   7.5169E+05  0.000E+00  0.000E+00  0.000E+00  3.96733E+01  4.801E-01  2.000E+01  2.000E+04 -1.314E+00
   1   14   21     1    21    7.5169E+05 -1.9012E+04   7.7070E+05  0.000E+00  0.000E+00  0.000E+00  3.92048E+01  4.889E-01  2.000E+01  2.000E+04 -9.506E-01
   1   14   22     1    22    7.7070E+05 -1.4640E+03   7.7216E+05  0.000E+00  0.000E+00  0.000E+00  3.87315E+01  4.928E-01  2.000E+01  2.000E+04 -7.320E-02
   1    9   30     2     1    5.0000E+04 -2.6291E+04   7.6291E+04  0.000E+00  0.000E+00  0.000E+00  4.02583E+01  1.333E-01  2.000E+01  2.000E+04 -1.315E+00
   1    9   29     2     2    7.6291E+04 -2.8763E+04   1.0505E+05  0.000E+00  0.000E+00  0.000E+00  4.00406E+01  1.656E-01  2.000E+01  2.000E+04 -1.438E+00
   1    9   28     2     3    1.0505E+05 -3.3055E+04   1.3811E+05  0.000E+00  0.000E+00  0.000E+00  3.98225E+01  1.975E-01  2.000E+01  2.000E+04 -1.653E+00
   1    9   27     2     4    1.3811E+05 -4.7149E+04   1.8526E+05  0.000E+00  0.000E+00  0.000E+00  3.96093E+01  2.343E-01  2.000E+01  2.000E+04 -2.357E+00
   1   10   26     2     5    1.8526E+05 -3.3090E+04   2.1835E+05  0.000E+00  0.000E+00  0.000E+00  3.93926E+01  2.676E-01  2.000E+01  2.000E+04 -1.655E+00
   1   11   25     2     6    2.1835E+05 -2.4744E+04   2.4309E+05  0.000E+00  0.000E+00  0.000E+00  3.91650E+01  2.900E-01  2.000E+01  2.000E+04 -1.237E+00
   1   12   24     2     7    2.4309E+05 -1.8193E+04   2.6128E+05  0.000E+00  0.000E+00  0.000E+00  3.89309E+01  3.059E-01  2.000E+01  2.000E+04 -9.096E-01
   1   13   23     2     8    2.6128E+05 -1.2856E+04   2.7414E+05  0.000E+00  0.000E+00  0.000E+00  3.86921E+01  3.171E-01  2.000E+01  2.000E+04 -6.428E-01
   1   14   22     2     9    2.7414E+05 -7.1109E+03   2.8125E+05  0.000E+00  0.000E+00  0.000E+00  3.84491E+01  3.241E-01  2.000E+01  2.000E+04 -3.555E-01
   1   14   22     3     1    1.0534E+06 -1.5080E+04   1.0685E+06  0.000E+00  0.000E+00  0.000E+00  3.80507E+01  4.951E-01  2.000E+01  2.000E+04 -7.540E-01
   1   15   23     3     2    1.0685E+06 -2.2454E+04   1.0909E+06  0.000E+00  0.000E+00  0.000E+00  3.71670E+01  5.004E-01  2.000E+01  2.000E+04 -1.123E+00
   1   15   24     3     3    1.0909E+06 -1.8610E+04   1.1096E+06  0.000E+00  0.000E+00  0.000E+00  3.62838E+01  5.061E-01  2.000E+01  2.000E+04 -9.305E-01
   1   15   25     3     4    1.1096E+06 -1.8209E+04   1.1278E+06  0.000E+00  0.000E+00  0.000E+00  3.54000E+01  5.111E-01  2.000E+01  2.000E+04 -9.105E-01
   1   15   26     3     5    1.1278E+06 -2.0939E+04   1.1487E+06  0.000E+00  0.000E+00  0.000E+00  3.45165E+01  5.165E-01  2.000E+01  2.000E+04 -1.047E+00
   1   16   27     3     6    1.1487E+06 -2.7093E+04   1.1758E+06  0.000E+00  0.000E+00  0.000E+00  3.36341E+01  5.230E-01  2.000E+01  2.000E+04 -1.355E+00
   1   17   28     3     7    1.1758E+06 -3.2916E+04   1.2087E+06  0.000E+00  0.000E+00  0.000E+00  3.27533E+01  5.310E-01  2.000E+01  2.000E+04 -1.646E+00
   1   18   29     3     8    1.2087E+06 -4.1726E+04   1.2504E+06  0.000E+00  0.000E+00  0.000E+00  3.18743E+01  5.409E-01  2.000E+01  2.000E+04 -2.086E+00
   1   18   30     3     9    1.2504E+06 -3.9105E+04   1.2895E+06  0.000E+00  0.000E+00  0.000E+00  3.09960E+01  5.515E-01  2.000E+01  2.000E+04 -1.955E+00



1
              HEAD IN LAYER   1 AT END OF TIME STEP   1 IN STRESS PERIOD   11
  ---------------------------------------------------------------------------

          1      2      3      4      5      6      7      8      9     10
         11     12     13     14     15     16     17     18     19     20
         21     22     23     24     25     26     27     28     29     30
 .........................................................................
   1  ****** ****** ****** ****** ****** ****** ****** ****** ****** ******
      ****** ****** ****** ****** ****** ****** ****** ****** ****** ******
      ****** ****** ****** ****** ****** ****** ****** ****** ****** ******
   2  ****** ****** ****** ****** ****** ****** ****** ****** ****** ******
      ****** ****** ****** ****** ****** ****** ****** ****** ****** ******
      ****** ****** ****** ****** ****** ****** ****** ****** ****** ******
   3  ****** ****** ****** ****** ****** ****** ****** ****** ****** ******
      ****** ****** ****** ****** ****** ****** ****** ****** ****** ******
      ****** ****** ****** ****** ****** ****** ****** ****** ****** ******
   4  ****** ****** ****** ****** ****** ****** ****** ****** ****** ******
      ****** ****** ****** ****** ****** ****** ****** ****** ****** ******
      ****** ****** ****** ****** ****** ****** ****** ****** ****** ******
   5  ****** ****** ****** ****** ****** ****** ****** ****** ****** ******
      ****** ****** ****** ****** ****** ****** ****** ****** ****** ******
      ****** ****** ****** ****** ****** ****** ****** ****** ****** ******
   6  ****** ****** ****** ****** ****** ****** ****** ****** ****** ******
      ****** ****** ****** ****** ****** ****** ****** ****** ****** ******
      ****** ****** ****** ****** ****** ****** ****** ****** ****** ******
   7  ****** ****** ****** ****** ****** ****** ****** ****** ****** ******
      ****** ****** ****** ****** ****** ****** ****** ****** ****** ******
      ****** ****** ****** ****** ****** ****** ****** ****** ****** ******
   8  ****** ****** ****** ****** ****** ****** ****** ****** ****** ******
      ****** ****** ****** ****** ****** ****** ****** ****** ****** ******
      ****** ****** ****** ****** ****** ****** ****** ****** ****** ******
   9  ****** ****** ****** ****** ****** ****** ****** ****** ****** ******
      ****** ****** ****** ****** ****** ****** ****** ****** ****** ******
      ****** ****** ****** ****** ****** ****** ****** ****** ****** ******
  10  ****** ****** ****** ****** ****** ****** ****** ****** ****** ******
      ****** ****** ****** ****** ****** ****** ****** ****** ****** ******
      ****** ****** ****** ****** ****** ****** ****** ****** ****** ******
  11  ****** ****** ****** ****** ****** ****** ****** ****** ****** ******
      ****** ****** ****** ****** ****** ****** ****** ****** ****** ******
      ****** ****** ****** ****** ****** ****** ****** ****** ****** ******
  12  ****** ****** ****** ****** ****** ****** ****** ****** ****** ******
      ****** ****** ****** ****** ****** ****** ****** ****** ****** ******
      ****** ****** ****** ****** ****** ****** ****** ****** ****** ******
  13  ****** ****** ****** ****** ****** ****** ****** ****** ****** ******
      ****** ****** ****** ****** ****** ****** ****** ****** ****** ******
      ****** ****** ****** ****** ****** ****** ****** ****** ****** ******
  14  ****** ****** ****** ****** ****** ****** ****** ****** ****** ******
      ****** ****** ****** ****** ****** ****** ****** ****** ****** ******
      ****** ****** ****** ****** ****** ****** ****** ****** ****** ******
  15  ****** ****** ****** ****** ****** ****** ****** ****** ****** ******
      ****** ****** ****** ****** ****** ****** ****** ****** ****** ******
      ****** ****** ****** ****** ****** ****** ****** ****** ****** ******
  16  ****** ****** ****** ****** ****** ****** ****** ****** ****** ******
      ****** ****** ****** ****** ****** ****** ****** ****** ****** ******
      ****** ****** ****** ****** ****** ****** ****** ****** ****** ******
  17  ****** ****** ****** ****** ****** ****** ****** ****** ****** ******
      ****** ****** ****** ****** ****** ****** ****** ****** ****** ******
      ****** ****** ****** ****** ****** ****** ****** ****** ****** ******
  18  ****** ****** ****** ****** ****** ****** ****** ****** ****** ******
      ****** ****** ****** ****** ****** ****** ****** ****** ****** ******
      ****** ****** ****** ****** ****** ****** ****** ****** ****** ******
  19  ****** ****** ****** ****** ****** ****** ****** ****** ****** ******
      ****** ****** ****** ****** ****** ****** ****** ****** ****** ******
      ****** ****** ****** ****** ****** ****** ****** ****** ****** ******
  20  ****** ****** ****** ****** ****** ****** ****** ****** ****** ******
      ****** ****** ****** ****** ****** ****** ****** ****** ****** ******
      ****** ****** ****** ****** ****** ****** ****** ****** ****** ******
  21  ****** ****** ****** ****** ****** ****** ****** ****** ****** ******
      ****** ****** ****** ****** ****** ****** ****** ****** ****** ******
      ****** ****** ****** ****** ****** ****** ****** ****** ****** ******
  22  ****** ****** ****** ****** ****** ****** ****** ****** ****** ******
      ****** ****** ****** ****** ****** ****** ****** ****** ****** ******
      ****** ****** ****** ****** ****** ****** ****** ****** ****** ******
  23  ****** ****** ****** ****** ****** ****** ****** ****** ****** ******
      ****** ****** ****** ****** ****** ****** ****** ****** ****** ******
      ****** ****** ****** ****** ****** ****** ****** ****** ****** ******
  24  ****** ****** ****** ****** ****** ****** ****** ****** ****** ******
      ****** ****** ****** ****** ****** ****** ****** ****** ****** ******
      ****** ****** ****** ****** ****** ****** ****** ****** ****** ******
  25  ****** ****** ****** ****** ****** ****** ****** ****** ****** ******
      ****** ****** ****** ****** ****** ****** ****** ****** ****** ******
      ****** ****** ****** ****** ****** ****** ****** ****** ****** ******

 HEAD WILL BE SAVED ON UNIT   51 AT END OF TIME STEP    1, STRESS PERIOD   11
1
  VOLUMETRIC BUDGET FOR ENTIRE MODEL AT END OF TIME STEP    1, STRESS PERIOD  11
  ------------------------------------------------------------------------------

     CUMULATIVE VOLUMES      L**3       RATES FOR THIS TIME STEP      L**3/T
     ------------------                 ------------------------

           IN:                                      IN:
           ---                                      ---
             STORAGE =    20802539.5141               STORAGE =        2517.8861
       CONSTANT HEAD =  1226854862.6315         CONSTANT HEAD =     1272028.0718
               WELLS =           0.0000                 WELLS =           0.0000
            RECHARGE =    23901600.0000              RECHARGE =           0.0000
      STREAM LEAKAGE =           0.0000        STREAM LEAKAGE =           0.0000

            TOTAL IN =  1271559002.1456              TOTAL IN =     1274545.9580

          OUT:                                     OUT:
          ----                                     ----
             STORAGE =      725892.4756               STORAGE =           0.0000
       CONSTANT HEAD =           0.0000         CONSTANT HEAD =           0.0000
               WELLS =    96300228.0000                 WELLS =      135000.5000
            RECHARGE =           0.0000              RECHARGE =           0.0000
      STREAM LEAKAGE =  1174532892.9169        STREAM LEAKAGE =     1139545.5017

           TOTAL OUT =  1271559013.3924             TOTAL OUT =     1274546.0017

            IN - OUT =         -11.2469              IN - OUT =      -4.3694E-02

 PERCENT DISCREPANCY =          -0.00     PERCENT DISCREPANCY =          -0.00






         TIME SUMMARY AT END OF TIME STEP    1 IN STRESS PERIOD   11
                    SECONDS     MINUTES      HOURS       DAYS        YEARS
                    -----------------------------------------------------------
   TIME STEP LENGTH 7.86240E+06 1.31040E+05  2184.0      91.000     0.24914    
 STRESS PERIOD TIME 7.86240E+06 1.31040E+05  2184.0      91.000     0.24914    
         TOTAL TIME 8.67456E+07 1.44576E+06  24096.      1004.0      2.7488    
1
1
                            STRESS PERIOD NO.   12, LENGTH =   91.00000    
                            -----------------------------------------------

                              NUMBER OF TIME STEPS =     1

                               MULTIPLIER FOR DELT =     1.500

                            INITIAL TIME STEP SIZE =   91.00000    

 WELL NO.  LAYER   ROW   COL   STRESS RATE         
 --------------------------------------------------
      1      1     22     29     -0.3000E+05
      2      1     24     24       0.000    
      3      1     24     27     -0.5500E+05

      3 WELLS

                 RECHARGE =  1.000000E-03

 REUSING STREAM SEGMENT DATA FROM LAST STRESS PERIOD
 
 SOLVING FOR HEAD 


     6 CALLS TO PCG ROUTINE FOR TIME STEP   1 IN STRESS PERIOD   12
    22 TOTAL ITERATIONS

 OUTPUT CONTROL FOR STRESS PERIOD   12   TIME STEP    1
    SAVE BUDGET
    SAVE HEAD FOR ALL LAYERS
    PRINT HEAD FOR ALL LAYERS
 UBDSV2 SAVING "STREAMFLOW OUT  " ON UNIT  50 AT TIME STEP  1, STRESS PERIOD  12



 STREAM LISTING     PERIOD     12   STEP        1

 LAYER ROW COL. STREAM  RCH.  FLOW INTO     FLOW TO   FLOW OUT OF   OVRLND.     DIRECT     STREAM       STREAM     STREAM     STREAM   STREAMBED  STREAMBED
                SEG.NO.  NO.  STRM. RCH.    AQUIFER    STRM. RCH.    RUNOFF     PRECIP       ET          HEAD       DEPTH      WIDTH   CONDCTNC.   GRADIENT

   1   13    1     1     1    1.0000E+05 -2.7909E+04   1.2791E+05  0.000E+00  0.000E+00  0.000E+00  4.84178E+01  1.564E-01  2.000E+01  2.000E+04 -1.395E+00
   1   13    2     1     2    1.2791E+05 -3.7670E+04   1.6558E+05  0.000E+00  0.000E+00  0.000E+00  4.79662E+01  1.821E-01  2.000E+01  2.000E+04 -1.883E+00
   1   14    3     1     3    1.6558E+05 -3.3146E+04   1.9872E+05  0.000E+00  0.000E+00  0.000E+00  4.75141E+01  2.073E-01  2.000E+01  2.000E+04 -1.657E+00
   1   15    4     1     4    1.9872E+05 -3.2380E+04   2.3110E+05  0.000E+00  0.000E+00  0.000E+00  4.70585E+01  2.289E-01  2.000E+01  2.000E+04 -1.619E+00
   1   16    5     1     5    2.3110E+05 -3.3891E+04   2.6500E+05  0.000E+00  0.000E+00  0.000E+00  4.66018E+01  2.495E-01  2.000E+01  2.000E+04 -1.695E+00
   1   16    6     1     6    2.6500E+05 -2.9620E+04   2.9462E+05  0.000E+00  0.000E+00  0.000E+00  4.61432E+01  2.682E-01  2.000E+01  2.000E+04 -1.481E+00
   1   16    7     1     7    2.9462E+05 -2.9451E+04   3.2407E+05  0.000E+00  0.000E+00  0.000E+00  4.56826E+01  2.848E-01  2.000E+01  2.000E+04 -1.473E+00
   1   16    8     1     8    3.2407E+05 -2.9645E+04   3.5371E+05  0.000E+00  0.000E+00  0.000E+00  4.52213E+01  3.009E-01  2.000E+01  2.000E+04 -1.482E+00
   1   16    9     1     9    3.5371E+05 -2.9737E+04   3.8345E+05  0.000E+00  0.000E+00  0.000E+00  4.47596E+01  3.164E-01  2.000E+01  2.000E+04 -1.487E+00
   1   16   10     1    10    3.8345E+05 -2.9777E+04   4.1323E+05  0.000E+00  0.000E+00  0.000E+00  4.42974E+01  3.315E-01  2.000E+01  2.000E+04 -1.489E+00
   1   16   11     1    11    4.1323E+05 -3.0394E+04   4.4362E+05  0.000E+00  0.000E+00  0.000E+00  4.38349E+01  3.463E-01  2.000E+01  2.000E+04 -1.520E+00
   1   16   12     1    12    4.4362E+05 -3.5930E+04   4.7955E+05  0.000E+00  0.000E+00  0.000E+00  4.33735E+01  3.621E-01  2.000E+01  2.000E+04 -1.797E+00
   1   15   13     1    13    4.7955E+05 -3.4685E+04   5.1423E+05  0.000E+00  0.000E+00  0.000E+00  4.29126E+01  3.785E-01  2.000E+01  2.000E+04 -1.734E+00
   1   14   14     1    14    5.1423E+05 -3.5281E+04   5.4952E+05  0.000E+00  0.000E+00  0.000E+00  4.24511E+01  3.943E-01  2.000E+01  2.000E+04 -1.764E+00
   1   13   15     1    15    5.4952E+05 -3.7513E+04   5.8703E+05  0.000E+00  0.000E+00  0.000E+00  4.19898E+01  4.103E-01  2.000E+01  2.000E+04 -1.876E+00
   1   12   16     1    16    5.8703E+05 -4.3576E+04   6.3060E+05  0.000E+00  0.000E+00  0.000E+00  4.15299E+01  4.276E-01  2.000E+01  2.000E+04 -2.179E+00
   1   12   17     1    17    6.3060E+05 -3.4082E+04   6.6469E+05  0.000E+00  0.000E+00  0.000E+00  4.10687E+01  4.437E-01  2.000E+01  2.000E+04 -1.704E+00
   1   12   18     1    18    6.6469E+05 -3.2454E+04   6.9714E+05  0.000E+00  0.000E+00  0.000E+00  4.06050E+01  4.573E-01  2.000E+01  2.000E+04 -1.623E+00
   1   12   19     1    19    6.9714E+05 -3.6542E+04   7.3368E+05  0.000E+00  0.000E+00  0.000E+00  4.01415E+01  4.710E-01  2.000E+01  2.000E+04 -1.827E+00
   1   13   20     1    20    7.3368E+05 -2.6767E+04   7.6045E+05  0.000E+00  0.000E+00  0.000E+00  3.96766E+01  4.834E-01  2.000E+01  2.000E+04 -1.338E+00
   1   14   21     1    21    7.6045E+05 -1.9544E+04   7.7999E+05  0.000E+00  0.000E+00  0.000E+00  3.92083E+01  4.924E-01  2.000E+01  2.000E+04 -9.772E-01
   1   14   22     1    22    7.7999E+05 -1.6583E+03   7.8165E+05  0.000E+00  0.000E+00  0.000E+00  3.87351E+01  4.964E-01  2.000E+01  2.000E+04 -8.291E-02
   1    9   30     2     1    5.0000E+04 -2.6584E+04   7.6584E+04  0.000E+00  0.000E+00  0.000E+00  4.02585E+01  1.335E-01  2.000E+01  2.000E+04 -1.329E+00
   1    9   29     2     2    7.6584E+04 -2.9055E+04   1.0564E+05  0.000E+00  0.000E+00  0.000E+00  4.00411E+01  1.661E-01  2.000E+01  2.000E+04 -1.453E+00
   1    9   28     2     3    1.0564E+05 -3.3355E+04   1.3899E+05  0.000E+00  0.000E+00  0.000E+00  3.98232E+01  1.982E-01  2.000E+01  2.000E+04 -1.668E+00
   1    9   27     2     4    1.3899E+05 -4.7512E+04   1.8651E+05  0.000E+00  0.000E+00  0.000E+00  3.96102E+01  2.352E-01  2.000E+01  2.000E+04 -2.376E+00
   1   10   26     2     5    1.8651E+05 -3.3474E+04   2.1998E+05  0.000E+00  0.000E+00  0.000E+00  3.93938E+01  2.688E-01  2.000E+01  2.000E+04 -1.674E+00
   1   11   25     2     6    2.1998E+05 -2.5121E+04   2.4510E+05  0.000E+00  0.000E+00  0.000E+00  3.91664E+01  2.914E-01  2.000E+01  2.000E+04 -1.256E+00
   1   12   24     2     7    2.4510E+05 -1.8544E+04   2.6365E+05  0.000E+00  0.000E+00  0.000E+00  3.89325E+01  3.075E-01  2.000E+01  2.000E+04 -9.272E-01
   1   13   23     2     8    2.6365E+05 -1.3170E+04   2.7682E+05  0.000E+00  0.000E+00  0.000E+00  3.86939E+01  3.189E-01  2.000E+01  2.000E+04 -6.585E-01
   1   14   22     2     9    2.7682E+05 -7.3381E+03   2.8415E+05  0.000E+00  0.000E+00  0.000E+00  3.84511E+01  3.261E-01  2.000E+01  2.000E+04 -3.669E-01
   1   14   22     3     1    1.0658E+06 -1.5276E+04   1.0811E+06  0.000E+00  0.000E+00  0.000E+00  3.80542E+01  4.986E-01  2.000E+01  2.000E+04 -7.638E-01
   1   15   23     3     2    1.0811E+06 -2.3149E+04   1.1042E+06  0.000E+00  0.000E+00  0.000E+00  3.71706E+01  5.040E-01  2.000E+01  2.000E+04 -1.157E+00
   1   15   24     3     3    1.1042E+06 -1.9180E+04   1.1234E+06  0.000E+00  0.000E+00  0.000E+00  3.62876E+01  5.098E-01  2.000E+01  2.000E+04 -9.590E-01
   1   15   25     3     4    1.1234E+06 -1.8739E+04   1.1422E+06  0.000E+00  0.000E+00  0.000E+00  3.54039E+01  5.150E-01  2.000E+01  2.000E+04 -9.370E-01
   1   15   26     3     5    1.1422E+06 -2.1466E+04   1.1636E+06  0.000E+00  0.000E+00  0.000E+00  3.45204E+01  5.204E-01  2.000E+01  2.000E+04 -1.073E+00
   1   16   27     3     6    1.1636E+06 -2.7870E+04   1.1915E+06  0.000E+00  0.000E+00  0.000E+00  3.36382E+01  5.271E-01  2.000E+01  2.000E+04 -1.394E+00
   1   17   28     3     7    1.1915E+06 -3.3822E+04   1.2253E+06  0.000E+00  0.000E+00  0.000E+00  3.27576E+01  5.353E-01  2.000E+01  2.000E+04 -1.691E+00
   1   18   29     3     8    1.2253E+06 -4.2717E+04   1.2680E+06  0.000E+00  0.000E+00  0.000E+00  3.18788E+01  5.454E-01  2.000E+01  2.000E+04 -2.136E+00
   1   18   30     3     9    1.2680E+06 -3.9824E+04   1.3078E+06  0.000E+00  0.000E+00  0.000E+00  3.10007E+01  5.562E-01  2.000E+01  2.000E+04 -1.991E+00



1
              HEAD IN LAYER   1 AT END OF TIME STEP   1 IN STRESS PERIOD   12
  ---------------------------------------------------------------------------

          1      2      3      4      5      6      7      8      9     10
         11     12     13     14     15     16     17     18     19     20
         21     22     23     24     25     26     27     28     29     30
 .........................................................................
   1  ****** ****** ****** ****** ****** ****** ****** ****** ****** ******
      ****** ****** ****** ****** ****** ****** ****** ****** ****** ******
      ****** ****** ****** ****** ****** ****** ****** ****** ****** ******
   2  ****** ****** ****** ****** ****** ****** ****** ****** ****** ******
      ****** ****** ****** ****** ****** ****** ****** ****** ****** ******
      ****** ****** ****** ****** ****** ****** ****** ****** ****** ******
   3  ****** ****** ****** ****** ****** ****** ****** ****** ****** ******
      ****** ****** ****** ****** ****** ****** ****** ****** ****** ******
      ****** ****** ****** ****** ****** ****** ****** ****** ****** ******
   4  ****** ****** ****** ****** ****** ****** ****** ****** ****** ******
      ****** ****** ****** ****** ****** ****** ****** ****** ****** ******
      ****** ****** ****** ****** ****** ****** ****** ****** ****** ******
   5  ****** ****** ****** ****** ****** ****** ****** ****** ****** ******
      ****** ****** ****** ****** ****** ****** ****** ****** ****** ******
      ****** ****** ****** ****** ****** ****** ****** ****** ****** ******
   6  ****** ****** ****** ****** ****** ****** ****** ****** ****** ******
      ****** ****** ****** ****** ****** ****** ****** ****** ****** ******
      ****** ****** ****** ****** ****** ****** ****** ****** ****** ******
   7  ****** ****** ****** ****** ****** ****** ****** ****** ****** ******
      ****** ****** ****** ****** ****** ****** ****** ****** ****** ******
      ****** ****** ****** ****** ****** ****** ****** ****** ****** ******
   8  ****** ****** ****** ****** ****** ****** ****** ****** ****** ******
      ****** ****** ****** ****** ****** ****** ****** ****** ****** ******
      ****** ****** ****** ****** ****** ****** ****** ****** ****** ******
   9  ****** ****** ****** ****** ****** ****** ****** ****** ****** ******
      ****** ****** ****** ****** ****** ****** ****** ****** ****** ******
      ****** ****** ****** ****** ****** ****** ****** ****** ****** ******
  10  ****** ****** ****** ****** ****** ****** ****** ****** ****** ******
      ****** ****** ****** ****** ****** ****** ****** ****** ****** ******
      ****** ****** ****** ****** ****** ****** ****** ****** ****** ******
  11  ****** ****** ****** ****** ****** ****** ****** ****** ****** ******
      ****** ****** ****** ****** ****** ****** ****** ****** ****** ******
      ****** ****** ****** ****** ****** ****** ****** ****** ****** ******
  12  ****** ****** ****** ****** ****** ****** ****** ****** ****** ******
      ****** ****** ****** ****** ****** ****** ****** ****** ****** ******
      ****** ****** ****** ****** ****** ****** ****** ****** ****** ******
  13  ****** ****** ****** ****** ****** ****** ****** ****** ****** ******
      ****** ****** ****** ****** ****** ****** ****** ****** ****** ******
      ****** ****** ****** ****** ****** ****** ****** ****** ****** ******
  14  ****** ****** ****** ****** ****** ****** ****** ****** ****** ******
      ****** ****** ****** ****** ****** ****** ****** ****** ****** ******
      ****** ****** ****** ****** ****** ****** ****** ****** ****** ******
  15  ****** ****** ****** ****** ****** ****** ****** ****** ****** ******
      ****** ****** ****** ****** ****** ****** ****** ****** ****** ******
      ****** ****** ****** ****** ****** ****** ****** ****** ****** ******
  16  ****** ****** ****** ****** ****** ****** ****** ****** ****** ******
      ****** ****** ****** ****** ****** ****** ****** ****** ****** ******
      ****** ****** ****** ****** ****** ****** ****** ****** ****** ******
  17  ****** ****** ****** ****** ****** ****** ****** ****** ****** ******
      ****** ****** ****** ****** ****** ****** ****** ****** ****** ******
      ****** ****** ****** ****** ****** ****** ****** ****** ****** ******
  18  ****** ****** ****** ****** ****** ****** ****** ****** ****** ******
      ****** ****** ****** ****** ****** ****** ****** ****** ****** ******
      ****** ****** ****** ****** ****** ****** ****** ****** ****** ******
  19  ****** ****** ****** ****** ****** ****** ****** ****** ****** ******
      ****** ****** ****** ****** ****** ****** ****** ****** ****** ******
      ****** ****** ****** ****** ****** ****** ****** ****** ****** ******
  20  ****** ****** ****** ****** ****** ****** ****** ****** ****** ******
      ****** ****** ****** ****** ****** ****** ****** ****** ****** ******
      ****** ****** ****** ****** ****** ****** ****** ****** ****** ******
  21  ****** ****** ****** ****** ****** ****** ****** ****** ****** ******
      ****** ****** ****** ****** ****** ****** ****** ****** ****** ******
      ****** ****** ****** ****** ****** ****** ****** ****** ****** ******
  22  ****** ****** ****** ****** ****** ****** ****** ****** ****** ******
      ****** ****** ****** ****** ****** ****** ****** ****** ****** ******
      ****** ****** ****** ****** ****** ****** ****** ****** ****** ******
  23  ****** ****** ****** ****** ****** ****** ****** ****** ****** ******
      ****** ****** ****** ****** ****** ****** ****** ****** ****** ******
      ****** ****** ****** ****** ****** ****** ****** ****** ****** ******
  24  ****** ****** ****** ****** ****** ****** ****** ****** ****** ******
      ****** ****** ****** ****** ****** ****** ****** ****** ****** ******
      ****** ****** ****** ****** ****** ****** ****** ****** ****** ******
  25  ****** ****** ****** ****** ****** ****** ****** ****** ****** ******
      ****** ****** ****** ****** ****** ****** ****** ****** ****** ******
      ****** ****** ****** ****** ****** ****** ****** ****** ****** ******

 HEAD WILL BE SAVED ON UNIT   51 AT END OF TIME STEP    1, STRESS PERIOD   12
1
  VOLUMETRIC BUDGET FOR ENTIRE MODEL AT END OF TIME STEP    1, STRESS PERIOD  12
  ------------------------------------------------------------------------------

     CUMULATIVE VOLUMES      L**3       RATES FOR THIS TIME STEP      L**3/T
     ------------------                 ------------------------

           IN:                                      IN:
           ---                                      ---
             STORAGE =    20802539.5141               STORAGE =           0.0000
       CONSTANT HEAD =  1337635384.3451         CONSTANT HEAD =     1217368.3705
               WELLS =           0.0000                 WELLS =           0.0000
            RECHARGE =    26413200.0000              RECHARGE =       27600.0000
      STREAM LEAKAGE =           0.0000        STREAM LEAKAGE =           0.0000

            TOTAL IN =  1384851123.8592              TOTAL IN =     1244968.3705

          OUT:                                     OUT:
          ----                                     ----
             STORAGE =      918712.1188               STORAGE =        2118.8972
       CONSTANT HEAD =           0.0000         CONSTANT HEAD =           0.0000
               WELLS =   104035273.5000                 WELLS =       85000.5000
            RECHARGE =           0.0000              RECHARGE =           0.0000
      STREAM LEAKAGE =  1279897147.0049        STREAM LEAKAGE =     1157848.9460

           TOTAL OUT =  1384851132.6236             TOTAL OUT =     1244968.3432

            IN - OUT =          -8.7644              IN - OUT =       2.7280E-02

 PERCENT DISCREPANCY =          -0.00     PERCENT DISCREPANCY =           0.00






         TIME SUMMARY AT END OF TIME STEP    1 IN STRESS PERIOD   12
                    SECONDS     MINUTES      HOURS       DAYS        YEARS
                    -----------------------------------------------------------
   TIME STEP LENGTH 7.86240E+06 1.31040E+05  2184.0      91.000     0.24914    
 STRESS PERIOD TIME 7.86240E+06 1.31040E+05  2184.0      91.000     0.24914    
         TOTAL TIME 9.46080E+07 1.57680E+06  26280.      1095.0      2.9979    
1

 Run end date and time (yyyy/mm/dd hh:mm:ss): 2018/10/01 15:43:36
 Elapsed run time:  0.054 Seconds

