                                  MODFLOW-2005     
      U.S. GEOLOGICAL SURVEY MODULAR FINITE-DIFFERENCE GROUND-WATER FLOW MODEL
                            VERSION 1.11.00 8/8/2013

 LIST FILE: supply2.lst
                         UNIT   10

 OPENING ..\data\supply.dis
 FILE TYPE:DIS   UNIT   11   STATUS:OLD    
 FORMAT:FORMATTED              ACCESS:SEQUENTIAL          

 OPENING ..\data\supply.ba6
 FILE TYPE:BAS6   UNIT   12   STATUS:OLD    
 FORMAT:FORMATTED              ACCESS:SEQUENTIAL          

 OPENING ..\data\supply_het.bc6
 FILE TYPE:BCF6   UNIT   13   STATUS:OLD    
 FORMAT:FORMATTED              ACCESS:SEQUENTIAL          

 OPENING ..\data\supply.rch
 FILE TYPE:RCH   UNIT   15   STATUS:OLD    
 FORMAT:FORMATTED              ACCESS:SEQUENTIAL          

 OPENING ..\data\supply2.sfr
 FILE TYPE:SFR   UNIT   16   STATUS:OLD    
 FORMAT:FORMATTED              ACCESS:SEQUENTIAL          

 OPENING ..\data\supply.oc
 FILE TYPE:OC   UNIT   17   STATUS:OLD    
 FORMAT:FORMATTED              ACCESS:SEQUENTIAL          

 OPENING ..\data\supply.pcg
 FILE TYPE:PCG   UNIT   18   STATUS:OLD    
 FORMAT:FORMATTED              ACCESS:SEQUENTIAL          

 OPENING supply2.wel
 FILE TYPE:WEL   UNIT   19   STATUS:OLD    
 FORMAT:FORMATTED              ACCESS:SEQUENTIAL          

 OPENING supply2sf.cbc
 FILE TYPE:DATA(BINARY)   UNIT   50   STATUS:UNKNOWN
 FORMAT:BINARY                 ACCESS:SEQUENTIAL          

 OPENING supply2hd.bhd
 FILE TYPE:DATA(BINARY)   UNIT   51   STATUS:UNKNOWN
 FORMAT:BINARY                 ACCESS:SEQUENTIAL          

 BAS -- BASIC PACKAGE, VERSION 7, 5/2/2005 INPUT READ FROM UNIT   12
 
 MODFLOW was compiled using uniform precision
 Precision of REAL and DOUBLE PRECISION variables:          15

 DISCRETIZATION INPUT DATA READ FROM UNIT   11
    1 LAYERS        25 ROWS        30 COLUMNS
   12 STRESS PERIOD(S) IN SIMULATION
 MODEL TIME UNIT IS DAYS
 MODEL LENGTH UNIT IS UNDEFINED
  Confining bed flag for each layer:
   0

                     DELR =   200.000    

                     DELC =   200.000    

 TOP ELEVATION OF LAYER 1 =  100.0000    

   MODEL LAYER BOTTOM EL. =   0.00000     FOR LAYER   1


 STRESS PERIOD     LENGTH       TIME STEPS     MULTIPLIER FOR DELT    SS FLAG
 ----------------------------------------------------------------------------
        1         92.00000          1                    1.500         TR
        2         91.00000          1                    1.500         TR
        3         91.00000          1                    1.500         TR
        4         91.00000          1                    1.500         TR
        5         92.00000          1                    1.500         TR
        6         91.00000          1                    1.500         TR
        7         91.00000          1                    1.500         TR
        8         91.00000          1                    1.500         TR
        9         92.00000          1                    1.500         TR
       10         91.00000          1                    1.500         TR
       11         91.00000          1                    1.500         TR
       12         91.00000          1                    1.500         TR

 TRANSIENT SIMULATION



 
 #MODOFC transient water supply sample problem                                   
 #                                                                               
 THE FREE FORMAT OPTION HAS BEEN SELECTED



                     BOUNDARY ARRAY FOR LAYER   1
 READING ON UNIT   12 WITH FORMAT: (20I4)              

 AQUIFER HEAD WILL BE SET TO   0.0000     AT ALL NO-FLOW NODES (IBOUND=0).



                       INITIAL HEAD FOR LAYER   1
 READING ON UNIT   12 WITH FORMAT: (10F13.0)           

 OUTPUT CONTROL IS SPECIFIED ONLY AT TIME STEPS FOR WHICH OUTPUT IS DESIRED
 COMPACT CELL-BY-CELL BUDGET FILES WILL BE WRITTEN
 HEAD PRINT FORMAT CODE IS  18    DRAWDOWN PRINT FORMAT CODE IS   0
 HEADS WILL BE SAVED ON UNIT   51    DRAWDOWNS WILL BE SAVED ON UNIT    0

 BCF -- BLOCK-CENTERED FLOW PACKAGE, VERSION 7, 5/2/2005
         INPUT READ FROM UNIT 13
 TRANSIENT SIMULATION
 HEAD AT CELLS THAT CONVERT TO DRY=   0.0000    
 WETTING CAPABILITY IS NOT ACTIVE
      LAYER  LAYER-TYPE CODE     INTERBLOCK T
      --------------------------------------------
         1            0          0 -- HARMONIC    

 COLUMN TO ROW ANISOTROPY =  1.000000    

     PRIMARY STORAGE COEF =  5.000000E-02 FOR LAYER   1



               TRANSMIS. ALONG ROWS FOR LAYER   1
 READING ON UNIT   13 WITH FORMAT: (FREE)              

 WEL -- WELL PACKAGE, VERSION 7, 5/2/2005 INPUT READ FROM UNIT   19
 # Well package input file written by MMProc
 No named parameters
 MAXIMUM OF      4 ACTIVE WELLS AT ONE TIME


     0 Well parameters

 RCH -- RECHARGE PACKAGE, VERSION 7, 5/2/2005 INPUT READ FROM UNIT   15
 No named parameters
 OPTION 1 -- RECHARGE TO TOP LAYER


     0 Recharge parameters

 SFR7 -- STREAMFLOW ROUTING PACKAGE, VERSION 1.0.7, 2013-01-15
         INPUT READ FROM UNIT  16
 #  Supply2 test problem for GWM-VI
 #  The eighth entry in the first data line is ISTCB2 -
 #    Setting this to a negative number indicates that
 #    streamflows out of the reach will be saved to a
 #    binary file.  The absolute value of ISTCB2 is the
 #    unit to which unformatted flows will be written.
 #
 No named parameters
 Segment information will not be 
 read by reach
 No named parameters
 No specifed inflow files


 NUMBER OF STREAM REACHES IS   40

 NUMBER OF STREAM SEGMENTS IS    3

 NUMBER OF STREAM PARAMETERS IS    0

 NUMBER OF STREAM SEGMENTS DEFINED USING PARAMETERS IS              0

 MAXIMUM ERROR FOR STREAM LEAKAGE RATES IS  1.00E-04

 CONSTANT FOR MANNINGS EQUATION IS  1.2839E+05





   STREAM NETWORK DESCRIPTION: 

   LAYER    ROW    COL   SEGMENT   REACH     LENGTH
                          NUMBER   NUMBER    IN CELL        
   --------------------------------------------------
      1     13      1       1        1    2.0000E+02
      1     13      2       1        2    2.0000E+02
      1     14      3       1        3    2.0000E+02
      1     15      4       1        4    2.0000E+02
      1     16      5       1        5    2.0000E+02
      1     16      6       1        6    2.0000E+02
      1     16      7       1        7    2.0000E+02
      1     16      8       1        8    2.0000E+02
      1     16      9       1        9    2.0000E+02
      1     16     10       1       10    2.0000E+02
      1     16     11       1       11    2.0000E+02
      1     16     12       1       12    2.0000E+02
      1     15     13       1       13    2.0000E+02
      1     14     14       1       14    2.0000E+02
      1     13     15       1       15    2.0000E+02
      1     12     16       1       16    2.0000E+02
      1     12     17       1       17    2.0000E+02
      1     12     18       1       18    2.0000E+02
      1     12     19       1       19    2.0000E+02
      1     13     20       1       20    2.0000E+02
      1     14     21       1       21    2.0000E+02
      1     14     22       1       22    2.0000E+02
      1      9     30       2        1    2.0000E+02
      1      9     29       2        2    2.0000E+02
      1      9     28       2        3    2.0000E+02
      1      9     27       2        4    2.0000E+02
      1     10     26       2        5    2.0000E+02
      1     11     25       2        6    2.0000E+02
      1     12     24       2        7    2.0000E+02
      1     13     23       2        8    2.0000E+02
      1     14     22       2        9    2.0000E+02
      1     14     22       3        1    2.0000E+02
      1     15     23       3        2    2.0000E+02
      1     15     24       3        3    2.0000E+02
      1     15     25       3        4    2.0000E+02
      1     15     26       3        5    2.0000E+02
      1     16     27       3        6    2.0000E+02
      1     17     28       3        7    2.0000E+02
      1     18     29       3        8    2.0000E+02
      1     18     30       3        9    2.0000E+02




 PCG -- CONJUGATE-GRADIENT SOLUTION PACKAGE, VERSION 7, 5/2/2005
 MAXIMUM OF    500 CALLS OF SOLUTION ROUTINE
 MAXIMUM OF      5 INTERNAL ITERATIONS PER CALL TO SOLUTION ROUTINE
 MATRIX PRECONDITIONING TYPE :    1



                                    SOLUTION BY THE CONJUGATE-GRADIENT METHOD
                                   -------------------------------------------
                    MAXIMUM NUMBER OF CALLS TO PCG ROUTINE =      500
                        MAXIMUM ITERATIONS PER CALL TO PCG =        5
                               MATRIX PRECONDITIONING TYPE =        1
        RELAXATION FACTOR (ONLY USED WITH PRECOND. TYPE 1) =    0.10000E+01
 PARAMETER OF POLYNOMIAL PRECOND. = 2 (2) OR IS CALCULATED :        0
                         HEAD CHANGE CRITERION FOR CLOSURE =    0.10000E-05
                     RESIDUAL CHANGE CRITERION FOR CLOSURE =    0.10000E+01
            PCG HEAD AND RESIDUAL CHANGE PRINTOUT INTERVAL =        1
     PRINTING FROM SOLVER IS LIMITED(1) OR SUPPRESSED (>1) =        1
                            STEADY-STATE DAMPING PARAMETER =    0.10000E+01
                               TRANSIENT DAMPING PARAMETER =    0.10000E+01
1
                            STRESS PERIOD NO.    1, LENGTH =   92.00000    
                            -----------------------------------------------

                              NUMBER OF TIME STEPS =     1

                               MULTIPLIER FOR DELT =     1.500

                            INITIAL TIME STEP SIZE =   92.00000    

 WELL NO.  LAYER   ROW   COL   STRESS RATE         
 --------------------------------------------------
      1      1     15     19     -0.1065E+05
      2      1     15     28      -8067.    
      3      1     19     14      -9238.    
      4      1      9     25     -0.1518E+05

      4 WELLS

                 RECHARGE =  5.000000E-04



 CLASSIFICATION & COUNT OF STREAM SEGMENTS BASED ON SOURCE OF INFLOW:

                HEADWATER     DIVERSION     RECEIVES TRIBUTARY FLOW
                ---------     ---------     -----------------------
                     2              0               1



                    INPUT DATA FOR EACH STREAM SEGMENT
 ---------------------------------------------------------------------------------------------

 SEGMENT    SEG.     INFLOW   OVERLAND   STREAM    STREAM   ICALC  OUTFLOW  DIVERSION PRIORITY
    NO.    LENGTH     RATE     RUNOFF      ET       PPT.    METH.  TO SEG.  FROM SEG.    NO.

      1  4.400E+03 1.000E+05 0.000E+00 0.000E+00 0.000E+00    1        3        0        0
      2  1.800E+03 5.000E+04 0.000E+00 0.000E+00 0.000E+00    1        3        0        0
      3  1.800E+03 0.000E+00 0.000E+00 0.000E+00 0.000E+00    1        0        0        0


         STREAMBED PROPERTIES AND STREAM DIMENSIONS

 SEGMENT     BED HYD. COND.      BED THICKNESS     ELEV.-TOP OF BED     WIDTH OF STREAM     DEPTH OF STREAM    STREAM ROUGHNESS
    No.     UPPER     LOWER     UPPER     LOWER     UPPER     LOWER     UPPER     LOWER     UPPER     LOWER   CHANNEL      BANK

     1  5.000E+00 5.000E+00 1.000E+00 1.000E+00 4.850E+01 3.800E+01 2.000E+01 2.000E+01                     5.000E-02
     2  5.000E+00 5.000E+00 1.000E+00 1.000E+00 4.025E+01 3.800E+01 2.000E+01 2.000E+01                     5.000E-02
     3  5.000E+00 5.000E+00 1.000E+00 1.000E+00 3.800E+01 3.000E+01 2.000E+01 2.000E+01                     5.000E-02



 
 SOLVING FOR HEAD 


     9 CALLS TO PCG ROUTINE FOR TIME STEP   1 IN STRESS PERIOD    1
    36 TOTAL ITERATIONS

 OUTPUT CONTROL FOR STRESS PERIOD    1   TIME STEP    1
    SAVE BUDGET
    SAVE HEAD FOR ALL LAYERS
    PRINT HEAD FOR ALL LAYERS
 UBDSV2 SAVING "STREAMFLOW OUT  " ON UNIT  50 AT TIME STEP  1, STRESS PERIOD   1



 STREAM LISTING     PERIOD      1   STEP        1

 LAYER ROW COL. STREAM  RCH.  FLOW INTO     FLOW TO   FLOW OUT OF   OVRLND.     DIRECT     STREAM       STREAM     STREAM     STREAM   STREAMBED  STREAMBED
                SEG.NO.  NO.  STRM. RCH.    AQUIFER    STRM. RCH.    RUNOFF     PRECIP       ET          HEAD       DEPTH      WIDTH   CONDCTNC.   GRADIENT

   1   13    1     1     1    1.0000E+05 -6.1154E+03   1.0612E+05  0.000E+00  0.000E+00  0.000E+00  4.84087E+01  1.473E-01  2.000E+01  2.000E+04 -3.058E-01
   1   13    2     1     2    1.0612E+05 -7.5854E+03   1.1370E+05  0.000E+00  0.000E+00  0.000E+00  4.79372E+01  1.531E-01  2.000E+01  2.000E+04 -3.793E-01
   1   14    3     1     3    1.1370E+05 -2.1961E+03   1.1590E+05  0.000E+00  0.000E+00  0.000E+00  4.74640E+01  1.571E-01  2.000E+01  2.000E+04 -1.098E-01
   1   15    4     1     4    1.1590E+05 -2.2644E+03   1.1816E+05  0.000E+00  0.000E+00  0.000E+00  4.69885E+01  1.590E-01  2.000E+01  2.000E+04 -1.132E-01
   1   16    5     1     5    1.1816E+05 -7.1147E+03   1.2528E+05  0.000E+00  0.000E+00  0.000E+00  4.65150E+01  1.628E-01  2.000E+01  2.000E+04 -3.557E-01
   1   16    6     1     6    1.2528E+05 -4.2410E+03   1.2952E+05  0.000E+00  0.000E+00  0.000E+00  4.60423E+01  1.673E-01  2.000E+01  2.000E+04 -2.121E-01
   1   16    7     1     7    1.2952E+05 -4.0522E+03   1.3357E+05  0.000E+00  0.000E+00  0.000E+00  4.55682E+01  1.705E-01  2.000E+01  2.000E+04 -2.026E-01
   1   16    8     1     8    1.3357E+05 -3.9732E+03   1.3754E+05  0.000E+00  0.000E+00  0.000E+00  4.50941E+01  1.736E-01  2.000E+01  2.000E+04 -1.987E-01
   1   16    9     1     9    1.3754E+05 -3.9032E+03   1.4145E+05  0.000E+00  0.000E+00  0.000E+00  4.46198E+01  1.766E-01  2.000E+01  2.000E+04 -1.952E-01
   1   16   10     1    10    1.4145E+05 -3.8063E+03   1.4525E+05  0.000E+00  0.000E+00  0.000E+00  4.41454E+01  1.795E-01  2.000E+01  2.000E+04 -1.903E-01
   1   16   11     1    11    1.4525E+05 -3.6792E+03   1.4893E+05  0.000E+00  0.000E+00  0.000E+00  4.36710E+01  1.823E-01  2.000E+01  2.000E+04 -1.840E-01
   1   16   12     1    12    1.4893E+05 -5.8751E+03   1.5481E+05  0.000E+00  0.000E+00  0.000E+00  4.31972E+01  1.859E-01  2.000E+01  2.000E+04 -2.938E-01
   1   15   13     1    13    1.5481E+05 -6.4583E+03   1.6126E+05  0.000E+00  0.000E+00  0.000E+00  4.27245E+01  1.904E-01  2.000E+01  2.000E+04 -3.229E-01
   1   14   14     1    14    1.6126E+05 -7.1083E+03   1.6837E+05  0.000E+00  0.000E+00  0.000E+00  4.22520E+01  1.952E-01  2.000E+01  2.000E+04 -3.554E-01
   1   13   15     1    15    1.6837E+05 -7.5608E+03   1.7593E+05  0.000E+00  0.000E+00  0.000E+00  4.17799E+01  2.004E-01  2.000E+01  2.000E+04 -3.780E-01
   1   12   16     1    16    1.7593E+05 -8.5304E+03   1.8446E+05  0.000E+00  0.000E+00  0.000E+00  4.13082E+01  2.060E-01  2.000E+01  2.000E+04 -4.265E-01
   1   12   17     1    17    1.8446E+05 -5.7667E+03   1.9023E+05  0.000E+00  0.000E+00  0.000E+00  4.08358E+01  2.108E-01  2.000E+01  2.000E+04 -2.883E-01
   1   12   18     1    18    1.9023E+05 -5.4148E+03   1.9565E+05  0.000E+00  0.000E+00  0.000E+00  4.03623E+01  2.146E-01  2.000E+01  2.000E+04 -2.707E-01
   1   12   19     1    19    1.9565E+05 -6.8537E+03   2.0250E+05  0.000E+00  0.000E+00  0.000E+00  3.98891E+01  2.186E-01  2.000E+01  2.000E+04 -3.427E-01
   1   13   20     1    20    2.0250E+05 -5.0287E+03   2.0753E+05  0.000E+00  0.000E+00  0.000E+00  3.94157E+01  2.225E-01  2.000E+01  2.000E+04 -2.514E-01
   1   14   21     1    21    2.0753E+05 -4.4374E+03   2.1197E+05  0.000E+00  0.000E+00  0.000E+00  3.89415E+01  2.256E-01  2.000E+01  2.000E+04 -2.219E-01
   1   14   22     1    22    2.1197E+05  3.9495E+03   2.0802E+05  0.000E+00  0.000E+00  0.000E+00  3.84644E+01  2.258E-01  2.000E+01  2.000E+04  1.975E-01
   1    9   30     2     1    5.0000E+04 -4.3788E+03   5.4379E+04  0.000E+00  0.000E+00  0.000E+00  4.02439E+01  1.189E-01  2.000E+01  2.000E+04 -2.189E-01
   1    9   29     2     2    5.4379E+04 -4.6394E+03   5.9018E+04  0.000E+00  0.000E+00  0.000E+00  3.99999E+01  1.249E-01  2.000E+01  2.000E+04 -2.320E-01
   1    9   28     2     3    5.9018E+04 -4.7870E+03   6.3805E+04  0.000E+00  0.000E+00  0.000E+00  3.97561E+01  1.311E-01  2.000E+01  2.000E+04 -2.393E-01
   1    9   27     2     4    6.3805E+04 -5.6411E+03   6.9446E+04  0.000E+00  0.000E+00  0.000E+00  3.95126E+01  1.376E-01  2.000E+01  2.000E+04 -2.821E-01
   1   10   26     2     5    6.9446E+04 -3.3829E+03   7.2829E+04  0.000E+00  0.000E+00  0.000E+00  3.92682E+01  1.432E-01  2.000E+01  2.000E+04 -1.691E-01
   1   11   25     2     6    7.2829E+04 -4.1846E+03   7.7014E+04  0.000E+00  0.000E+00  0.000E+00  3.90227E+01  1.477E-01  2.000E+01  2.000E+04 -2.092E-01
   1   12   24     2     7    7.7014E+04 -5.3886E+03   8.2402E+04  0.000E+00  0.000E+00  0.000E+00  3.87783E+01  1.533E-01  2.000E+01  2.000E+04 -2.694E-01
   1   13   23     2     8    8.2402E+04 -1.5771E+03   8.3979E+04  0.000E+00  0.000E+00  0.000E+00  3.85323E+01  1.573E-01  2.000E+01  2.000E+04 -7.885E-02
   1   14   22     2     9    8.3979E+04  3.2104E+02   8.3658E+04  0.000E+00  0.000E+00  0.000E+00  3.82830E+01  1.580E-01  2.000E+01  2.000E+04  1.605E-02
   1   14   22     3     1    2.9167E+05 -9.6191E+03   3.0129E+05  0.000E+00  0.000E+00  0.000E+00  3.77860E+01  2.304E-01  2.000E+01  2.000E+04 -4.810E-01
   1   15   23     3     2    3.0129E+05 -1.8367E+03   3.0313E+05  0.000E+00  0.000E+00  0.000E+00  3.68997E+01  2.331E-01  2.000E+01  2.000E+04 -9.184E-02
   1   15   24     3     3    3.0313E+05 -1.5067E+03   3.0464E+05  0.000E+00  0.000E+00  0.000E+00  3.60116E+01  2.338E-01  2.000E+01  2.000E+04 -7.534E-02
   1   15   25     3     4    3.0464E+05 -1.5547E+03   3.0619E+05  0.000E+00  0.000E+00  0.000E+00  3.51234E+01  2.345E-01  2.000E+01  2.000E+04 -7.773E-02
   1   15   26     3     5    3.0619E+05 -1.6246E+03   3.0782E+05  0.000E+00  0.000E+00  0.000E+00  3.42353E+01  2.353E-01  2.000E+01  2.000E+04 -8.123E-02
   1   16   27     3     6    3.0782E+05 -1.5776E+03   3.0939E+05  0.000E+00  0.000E+00  0.000E+00  3.33471E+01  2.360E-01  2.000E+01  2.000E+04 -7.888E-02
   1   17   28     3     7    3.0939E+05 -4.0341E+03   3.1343E+05  0.000E+00  0.000E+00  0.000E+00  3.24595E+01  2.373E-01  2.000E+01  2.000E+04 -2.017E-01
   1   18   29     3     8    3.1343E+05 -7.3468E+03   3.2077E+05  0.000E+00  0.000E+00  0.000E+00  3.15732E+01  2.399E-01  2.000E+01  2.000E+04 -3.673E-01
   1   18   30     3     9    3.2077E+05 -6.5002E+03   3.2727E+05  0.000E+00  0.000E+00  0.000E+00  3.06875E+01  2.430E-01  2.000E+01  2.000E+04 -3.250E-01



1
              HEAD IN LAYER   1 AT END OF TIME STEP   1 IN STRESS PERIOD    1
  ---------------------------------------------------------------------------

          1      2      3      4      5      6      7      8      9     10
         11     12     13     14     15     16     17     18     19     20
         21     22     23     24     25     26     27     28     29     30
 .........................................................................
   1  ****** ****** ****** ****** ****** ****** ****** ****** ****** ******
      ****** ****** ****** ****** ****** ****** ****** ****** ****** ******
      ****** ****** ****** ****** ****** ****** ****** ****** ****** ******
   2  ****** ****** ****** ****** ****** ****** ****** ****** ****** ******
      ****** ****** ****** ****** ****** ****** ****** ****** ****** ******
      ****** ****** ****** ****** ****** ****** ****** ****** ****** ******
   3  ****** ****** ****** ****** ****** ****** ****** ****** ****** ******
      ****** ****** ****** ****** ****** ****** ****** ****** ****** ******
      ****** ****** ****** ****** ****** ****** ****** ****** ****** ******
   4  ****** ****** ****** ****** ****** ****** ****** ****** ****** ******
      ****** ****** ****** ****** ****** ****** ****** ****** ****** ******
      ****** ****** ****** ****** ****** ****** ****** ****** ****** ******
   5  ****** ****** ****** ****** ****** ****** ****** ****** ****** ******
      ****** ****** ****** ****** ****** ****** ****** ****** ****** ******
      ****** ****** ****** ****** ****** ****** ****** ****** ****** ******
   6  ****** ****** ****** ****** ****** ****** ****** ****** ****** ******
      ****** ****** ****** ****** ****** ****** ****** ****** ****** ******
      ****** ****** ****** ****** ****** ****** ****** ****** ****** ******
   7  ****** ****** ****** ****** ****** ****** ****** ****** ****** ******
      ****** ****** ****** ****** ****** ****** ****** ****** ****** ******
      ****** ****** ****** ****** ****** ****** ****** ****** ****** ******
   8  ****** ****** ****** ****** ****** ****** ****** ****** ****** ******
      ****** ****** ****** ****** ****** ****** ****** ****** ****** ******
      ****** ****** ****** ****** ****** ****** ****** ****** ****** ******
   9  ****** ****** ****** ****** ****** ****** ****** ****** ****** ******
      ****** ****** ****** ****** ****** ****** ****** ****** ****** ******
      ****** ****** ****** ****** ****** ****** ****** ****** ****** ******
  10  ****** ****** ****** ****** ****** ****** ****** ****** ****** ******
      ****** ****** ****** ****** ****** ****** ****** ****** ****** ******
      ****** ****** ****** ****** ****** ****** ****** ****** ****** ******
  11  ****** ****** ****** ****** ****** ****** ****** ****** ****** ******
      ****** ****** ****** ****** ****** ****** ****** ****** ****** ******
      ****** ****** ****** ****** ****** ****** ****** ****** ****** ******
  12  ****** ****** ****** ****** ****** ****** ****** ****** ****** ******
      ****** ****** ****** ****** ****** ****** ****** ****** ****** ******
      ****** ****** ****** ****** ****** ****** ****** ****** ****** ******
  13  ****** ****** ****** ****** ****** ****** ****** ****** ****** ******
      ****** ****** ****** ****** ****** ****** ****** ****** ****** ******
      ****** ****** ****** ****** ****** ****** ****** ****** ****** ******
  14  ****** ****** ****** ****** ****** ****** ****** ****** ****** ******
      ****** ****** ****** ****** ****** ****** ****** ****** ****** ******
      ****** ****** ****** ****** ****** ****** ****** ****** ****** ******
  15  ****** ****** ****** ****** ****** ****** ****** ****** ****** ******
      ****** ****** ****** ****** ****** ****** ****** ****** ****** ******
      ****** ****** ****** ****** ****** ****** ****** ****** ****** ******
  16  ****** ****** ****** ****** ****** ****** ****** ****** ****** ******
      ****** ****** ****** ****** ****** ****** ****** ****** ****** ******
      ****** ****** ****** ****** ****** ****** ****** ****** ****** ******
  17  ****** ****** ****** ****** ****** ****** ****** ****** ****** ******
      ****** ****** ****** ****** ****** ****** ****** ****** ****** ******
      ****** ****** ****** ****** ****** ****** ****** ****** ****** ******
  18  ****** ****** ****** ****** ****** ****** ****** ****** ****** ******
      ****** ****** ****** ****** ****** ****** ****** ****** ****** ******
      ****** ****** ****** ****** ****** ****** ****** ****** ****** ******
  19  ****** ****** ****** ****** ****** ****** ****** ****** ****** ******
      ****** ****** ****** ****** ****** ****** ****** ****** ****** ******
      ****** ****** ****** ****** ****** ****** ****** ****** ****** ******
  20  ****** ****** ****** ****** ****** ****** ****** ****** ****** ******
      ****** ****** ****** ****** ****** ****** ****** ****** ****** ******
      ****** ****** ****** ****** ****** ****** ****** ****** ****** ******
  21  ****** ****** ****** ****** ****** ****** ****** ****** ****** ******
      ****** ****** ****** ****** ****** ****** ****** ****** ****** ******
      ****** ****** ****** ****** ****** ****** ****** ****** ****** ******
  22  ****** ****** ****** ****** ****** ****** ****** ****** ****** ******
      ****** ****** ****** ****** ****** ****** ****** ****** ****** ******
      ****** ****** ****** ****** ****** ****** ****** ****** ****** ******
  23  ****** ****** ****** ****** ****** ****** ****** ****** ****** ******
      ****** ****** ****** ****** ****** ****** ****** ****** ****** ******
      ****** ****** ****** ****** ****** ****** ****** ****** ****** ******
  24  ****** ****** ****** ****** ****** ****** ****** ****** ****** ******
      ****** ****** ****** ****** ****** ****** ****** ****** ****** ******
      ****** ****** ****** ****** ****** ****** ****** ****** ****** ******
  25  ****** ****** ****** ****** ****** ****** ****** ****** ****** ******
      ****** ****** ****** ****** ****** ****** ****** ****** ****** ******
      ****** ****** ****** ****** ****** ****** ****** ****** ****** ******

 HEAD WILL BE SAVED ON UNIT   51 AT END OF TIME STEP    1, STRESS PERIOD    1
1
  VOLUMETRIC BUDGET FOR ENTIRE MODEL AT END OF TIME STEP    1, STRESS PERIOD   1
  ------------------------------------------------------------------------------

     CUMULATIVE VOLUMES      L**3       RATES FOR THIS TIME STEP      L**3/T
     ------------------                 ------------------------

           IN:                                      IN:
           ---                                      ---
             STORAGE =    17859879.7212               STORAGE =      194129.1274
       CONSTANT HEAD =     1148061.5498         CONSTANT HEAD =       12478.9299
               WELLS =           0.0000                 WELLS =           0.0000
            RECHARGE =     1269600.0000              RECHARGE =       13800.0000
      STREAM LEAKAGE =      392891.2952        STREAM LEAKAGE =        4270.5576

            TOTAL IN =    20670432.5662              TOTAL IN =      224678.6148

          OUT:                                     OUT:
          ----                                     ----
             STORAGE =           0.0000               STORAGE =           0.0000
       CONSTANT HEAD =           0.0000         CONSTANT HEAD =           0.0000
               WELLS =     3968301.5220                 WELLS =       43133.7122
            RECHARGE =           0.0000              RECHARGE =           0.0000
      STREAM LEAKAGE =    16702131.3383        STREAM LEAKAGE =      181544.9059

           TOTAL OUT =    20670432.8603             TOTAL OUT =      224678.6180

            IN - OUT =          -0.2941              IN - OUT =      -3.1966E-03

 PERCENT DISCREPANCY =          -0.00     PERCENT DISCREPANCY =          -0.00






         TIME SUMMARY AT END OF TIME STEP    1 IN STRESS PERIOD    1
                    SECONDS     MINUTES      HOURS       DAYS        YEARS
                    -----------------------------------------------------------
   TIME STEP LENGTH 7.94880E+06 1.32480E+05  2208.0      92.000     0.25188    
 STRESS PERIOD TIME 7.94880E+06 1.32480E+05  2208.0      92.000     0.25188    
         TOTAL TIME 7.94880E+06 1.32480E+05  2208.0      92.000     0.25188    
1
1
                            STRESS PERIOD NO.    2, LENGTH =   91.00000    
                            -----------------------------------------------

                              NUMBER OF TIME STEPS =     1

                               MULTIPLIER FOR DELT =     1.500

                            INITIAL TIME STEP SIZE =   91.00000    

 WELL NO.  LAYER   ROW   COL   STRESS RATE         
 --------------------------------------------------
      1      1     15     19     -0.1065E+05
      2      1     15     28      -8067.    
      3      1     19     14      -9238.    
      4      1      9     25     -0.1518E+05

      4 WELLS

                 RECHARGE =  2.000000E-03

 REUSING STREAM SEGMENT DATA FROM LAST STRESS PERIOD
 
 SOLVING FOR HEAD 


     7 CALLS TO PCG ROUTINE FOR TIME STEP   1 IN STRESS PERIOD    2
    27 TOTAL ITERATIONS

 OUTPUT CONTROL FOR STRESS PERIOD    2   TIME STEP    1
    SAVE BUDGET
    SAVE HEAD FOR ALL LAYERS
    PRINT HEAD FOR ALL LAYERS
 UBDSV2 SAVING "STREAMFLOW OUT  " ON UNIT  50 AT TIME STEP  1, STRESS PERIOD   2



 STREAM LISTING     PERIOD      2   STEP        1

 LAYER ROW COL. STREAM  RCH.  FLOW INTO     FLOW TO   FLOW OUT OF   OVRLND.     DIRECT     STREAM       STREAM     STREAM     STREAM   STREAMBED  STREAMBED
                SEG.NO.  NO.  STRM. RCH.    AQUIFER    STRM. RCH.    RUNOFF     PRECIP       ET          HEAD       DEPTH      WIDTH   CONDCTNC.   GRADIENT

   1   13    1     1     1    1.0000E+05 -3.9940E+03   1.0399E+05  0.000E+00  0.000E+00  0.000E+00  4.84077E+01  1.464E-01  2.000E+01  2.000E+04 -1.997E-01
   1   13    2     1     2    1.0399E+05 -5.2574E+03   1.0925E+05  0.000E+00  0.000E+00  0.000E+00  4.79344E+01  1.503E-01  2.000E+01  2.000E+04 -2.629E-01
   1   14    3     1     3    1.0925E+05 -1.1099E+03   1.1036E+05  0.000E+00  0.000E+00  0.000E+00  4.74598E+01  1.530E-01  2.000E+01  2.000E+04 -5.549E-02
   1   15    4     1     4    1.1036E+05 -1.1315E+03   1.1149E+05  0.000E+00  0.000E+00  0.000E+00  4.69835E+01  1.539E-01  2.000E+01  2.000E+04 -5.658E-02
   1   16    5     1     5    1.1149E+05 -4.1152E+03   1.1561E+05  0.000E+00  0.000E+00  0.000E+00  4.65084E+01  1.561E-01  2.000E+01  2.000E+04 -2.058E-01
   1   16    6     1     6    1.1561E+05 -2.3948E+03   1.1800E+05  0.000E+00  0.000E+00  0.000E+00  4.60338E+01  1.588E-01  2.000E+01  2.000E+04 -1.197E-01
   1   16    7     1     7    1.1800E+05 -2.2663E+03   1.2027E+05  0.000E+00  0.000E+00  0.000E+00  4.55584E+01  1.607E-01  2.000E+01  2.000E+04 -1.133E-01
   1   16    8     1     8    1.2027E+05 -2.1829E+03   1.2245E+05  0.000E+00  0.000E+00  0.000E+00  4.50829E+01  1.625E-01  2.000E+01  2.000E+04 -1.091E-01
   1   16    9     1     9    1.2245E+05 -2.0806E+03   1.2453E+05  0.000E+00  0.000E+00  0.000E+00  4.46074E+01  1.642E-01  2.000E+01  2.000E+04 -1.040E-01
   1   16   10     1    10    1.2453E+05 -1.9319E+03   1.2646E+05  0.000E+00  0.000E+00  0.000E+00  4.41317E+01  1.658E-01  2.000E+01  2.000E+04 -9.660E-02
   1   16   11     1    11    1.2646E+05 -1.7300E+03   1.2819E+05  0.000E+00  0.000E+00  0.000E+00  4.36559E+01  1.672E-01  2.000E+01  2.000E+04 -8.650E-02
   1   16   12     1    12    1.2819E+05 -2.6181E+03   1.3081E+05  0.000E+00  0.000E+00  0.000E+00  4.31803E+01  1.689E-01  2.000E+01  2.000E+04 -1.309E-01
   1   15   13     1    13    1.3081E+05 -2.9533E+03   1.3377E+05  0.000E+00  0.000E+00  0.000E+00  4.27052E+01  1.711E-01  2.000E+01  2.000E+04 -1.477E-01
   1   14   14     1    14    1.3377E+05 -3.5435E+03   1.3731E+05  0.000E+00  0.000E+00  0.000E+00  4.22304E+01  1.736E-01  2.000E+01  2.000E+04 -1.772E-01
   1   13   15     1    15    1.3731E+05 -4.0625E+03   1.4137E+05  0.000E+00  0.000E+00  0.000E+00  4.17561E+01  1.765E-01  2.000E+01  2.000E+04 -2.031E-01
   1   12   16     1    16    1.4137E+05 -5.3371E+03   1.4671E+05  0.000E+00  0.000E+00  0.000E+00  4.12823E+01  1.801E-01  2.000E+01  2.000E+04 -2.669E-01
   1   12   17     1    17    1.4671E+05 -3.1643E+03   1.4987E+05  0.000E+00  0.000E+00  0.000E+00  4.08082E+01  1.832E-01  2.000E+01  2.000E+04 -1.582E-01
   1   12   18     1    18    1.4987E+05 -2.7837E+03   1.5266E+05  0.000E+00  0.000E+00  0.000E+00  4.03332E+01  1.854E-01  2.000E+01  2.000E+04 -1.392E-01
   1   12   19     1    19    1.5266E+05 -3.5923E+03   1.5625E+05  0.000E+00  0.000E+00  0.000E+00  3.98582E+01  1.878E-01  2.000E+01  2.000E+04 -1.796E-01
   1   13   20     1    20    1.5625E+05 -1.6343E+03   1.5788E+05  0.000E+00  0.000E+00  0.000E+00  3.93828E+01  1.897E-01  2.000E+01  2.000E+04 -8.171E-02
   1   14   21     1    21    1.5788E+05 -1.3363E+03   1.5922E+05  0.000E+00  0.000E+00  0.000E+00  3.89066E+01  1.907E-01  2.000E+01  2.000E+04 -6.681E-02
   1   14   22     1    22    1.5922E+05  4.7869E+03   1.5443E+05  0.000E+00  0.000E+00  0.000E+00  3.84281E+01  1.895E-01  2.000E+01  2.000E+04  2.393E-01
   1    9   30     2     1    5.0000E+04 -1.4785E+03   5.1478E+04  0.000E+00  0.000E+00  0.000E+00  4.02419E+01  1.169E-01  2.000E+01  2.000E+04 -7.392E-02
   1    9   29     2     2    5.1478E+04 -1.7521E+03   5.3231E+04  0.000E+00  0.000E+00  0.000E+00  3.99941E+01  1.191E-01  2.000E+01  2.000E+04 -8.760E-02
   1    9   28     2     3    5.3231E+04 -1.9110E+03   5.5142E+04  0.000E+00  0.000E+00  0.000E+00  3.97466E+01  1.216E-01  2.000E+01  2.000E+04 -9.555E-02
   1    9   27     2     4    5.5142E+04 -1.8491E+03   5.6991E+04  0.000E+00  0.000E+00  0.000E+00  3.94991E+01  1.241E-01  2.000E+01  2.000E+04 -9.246E-02
   1   10   26     2     5    5.6991E+04  5.9658E+02   5.6394E+04  0.000E+00  0.000E+00  0.000E+00  3.92499E+01  1.249E-01  2.000E+01  2.000E+04  2.983E-02
   1   11   25     2     6    5.6394E+04 -4.4435E+02   5.6839E+04  0.000E+00  0.000E+00  0.000E+00  3.89998E+01  1.248E-01  2.000E+01  2.000E+04 -2.222E-02
   1   12   24     2     7    5.6839E+04 -2.1324E+03   5.8971E+04  0.000E+00  0.000E+00  0.000E+00  3.87515E+01  1.265E-01  2.000E+01  2.000E+04 -1.066E-01
   1   13   23     2     8    5.8971E+04 -5.1685E+02   5.9488E+04  0.000E+00  0.000E+00  0.000E+00  3.85033E+01  1.283E-01  2.000E+01  2.000E+04 -2.584E-02
   1   14   22     2     9    5.9488E+04  1.2797E+03   5.8208E+04  0.000E+00  0.000E+00  0.000E+00  3.82528E+01  1.278E-01  2.000E+01  2.000E+04  6.399E-02
   1   14   22     3     1    2.1264E+05 -8.8426E+03   2.2148E+05  0.000E+00  0.000E+00  0.000E+00  3.77467E+01  1.911E-01  2.000E+01  2.000E+04 -4.421E-01
   1   15   23     3     2    2.2148E+05 -8.3900E+02   2.2232E+05  0.000E+00  0.000E+00  0.000E+00  3.68603E+01  1.936E-01  2.000E+01  2.000E+04 -4.195E-02
   1   15   24     3     3    2.2232E+05 -6.2277E+02   2.2295E+05  0.000E+00  0.000E+00  0.000E+00  3.59718E+01  1.940E-01  2.000E+01  2.000E+04 -3.114E-02
   1   15   25     3     4    2.2295E+05 -6.2769E+02   2.2357E+05  0.000E+00  0.000E+00  0.000E+00  3.50832E+01  1.944E-01  2.000E+01  2.000E+04 -3.138E-02
   1   15   26     3     5    2.2357E+05 -4.4482E+02   2.2402E+05  0.000E+00  0.000E+00  0.000E+00  3.41946E+01  1.946E-01  2.000E+01  2.000E+04 -2.224E-02
   1   16   27     3     6    2.2402E+05 -2.1306E+02   2.2423E+05  0.000E+00  0.000E+00  0.000E+00  3.33059E+01  1.948E-01  2.000E+01  2.000E+04 -1.065E-02
   1   17   28     3     7    2.2423E+05 -3.1869E+02   2.2455E+05  0.000E+00  0.000E+00  0.000E+00  3.24172E+01  1.949E-01  2.000E+01  2.000E+04 -1.593E-02
   1   18   29     3     8    2.2455E+05 -4.2226E+03   2.2877E+05  0.000E+00  0.000E+00  0.000E+00  3.15295E+01  1.961E-01  2.000E+01  2.000E+04 -2.111E-01
   1   18   30     3     9    2.2877E+05 -3.8262E+03   2.3260E+05  0.000E+00  0.000E+00  0.000E+00  3.06426E+01  1.982E-01  2.000E+01  2.000E+04 -1.913E-01



1
              HEAD IN LAYER   1 AT END OF TIME STEP   1 IN STRESS PERIOD    2
  ---------------------------------------------------------------------------

          1      2      3      4      5      6      7      8      9     10
         11     12     13     14     15     16     17     18     19     20
         21     22     23     24     25     26     27     28     29     30
 .........................................................................
   1  ****** ****** ****** ****** ****** ****** ****** ****** ****** ******
      ****** ****** ****** ****** ****** ****** ****** ****** ****** ******
      ****** ****** ****** ****** ****** ****** ****** ****** ****** ******
   2  ****** ****** ****** ****** ****** ****** ****** ****** ****** ******
      ****** ****** ****** ****** ****** ****** ****** ****** ****** ******
      ****** ****** ****** ****** ****** ****** ****** ****** ****** ******
   3  ****** ****** ****** ****** ****** ****** ****** ****** ****** ******
      ****** ****** ****** ****** ****** ****** ****** ****** ****** ******
      ****** ****** ****** ****** ****** ****** ****** ****** ****** ******
   4  ****** ****** ****** ****** ****** ****** ****** ****** ****** ******
      ****** ****** ****** ****** ****** ****** ****** ****** ****** ******
      ****** ****** ****** ****** ****** ****** ****** ****** ****** ******
   5  ****** ****** ****** ****** ****** ****** ****** ****** ****** ******
      ****** ****** ****** ****** ****** ****** ****** ****** ****** ******
      ****** ****** ****** ****** ****** ****** ****** ****** ****** ******
   6  ****** ****** ****** ****** ****** ****** ****** ****** ****** ******
      ****** ****** ****** ****** ****** ****** ****** ****** ****** ******
      ****** ****** ****** ****** ****** ****** ****** ****** ****** ******
   7  ****** ****** ****** ****** ****** ****** ****** ****** ****** ******
      ****** ****** ****** ****** ****** ****** ****** ****** ****** ******
      ****** ****** ****** ****** ****** ****** ****** ****** ****** ******
   8  ****** ****** ****** ****** ****** ****** ****** ****** ****** ******
      ****** ****** ****** ****** ****** ****** ****** ****** ****** ******
      ****** ****** ****** ****** ****** ****** ****** ****** ****** ******
   9  ****** ****** ****** ****** ****** ****** ****** ****** ****** ******
      ****** ****** ****** ****** ****** ****** ****** ****** ****** ******
      ****** ****** ****** ****** ****** ****** ****** ****** ****** ******
  10  ****** ****** ****** ****** ****** ****** ****** ****** ****** ******
      ****** ****** ****** ****** ****** ****** ****** ****** ****** ******
      ****** ****** ****** ****** ****** ****** ****** ****** ****** ******
  11  ****** ****** ****** ****** ****** ****** ****** ****** ****** ******
      ****** ****** ****** ****** ****** ****** ****** ****** ****** ******
      ****** ****** ****** ****** ****** ****** ****** ****** ****** ******
  12  ****** ****** ****** ****** ****** ****** ****** ****** ****** ******
      ****** ****** ****** ****** ****** ****** ****** ****** ****** ******
      ****** ****** ****** ****** ****** ****** ****** ****** ****** ******
  13  ****** ****** ****** ****** ****** ****** ****** ****** ****** ******
      ****** ****** ****** ****** ****** ****** ****** ****** ****** ******
      ****** ****** ****** ****** ****** ****** ****** ****** ****** ******
  14  ****** ****** ****** ****** ****** ****** ****** ****** ****** ******
      ****** ****** ****** ****** ****** ****** ****** ****** ****** ******
      ****** ****** ****** ****** ****** ****** ****** ****** ****** ******
  15  ****** ****** ****** ****** ****** ****** ****** ****** ****** ******
      ****** ****** ****** ****** ****** ****** ****** ****** ****** ******
      ****** ****** ****** ****** ****** ****** ****** ****** ****** ******
  16  ****** ****** ****** ****** ****** ****** ****** ****** ****** ******
      ****** ****** ****** ****** ****** ****** ****** ****** ****** ******
      ****** ****** ****** ****** ****** ****** ****** ****** ****** ******
  17  ****** ****** ****** ****** ****** ****** ****** ****** ****** ******
      ****** ****** ****** ****** ****** ****** ****** ****** ****** ******
      ****** ****** ****** ****** ****** ****** ****** ****** ****** ******
  18  ****** ****** ****** ****** ****** ****** ****** ****** ****** ******
      ****** ****** ****** ****** ****** ****** ****** ****** ****** ******
      ****** ****** ****** ****** ****** ****** ****** ****** ****** ******
  19  ****** ****** ****** ****** ****** ****** ****** ****** ****** ******
      ****** ****** ****** ****** ****** ****** ****** ****** ****** ******
      ****** ****** ****** ****** ****** ****** ****** ****** ****** ******
  20  ****** ****** ****** ****** ****** ****** ****** ****** ****** ******
      ****** ****** ****** ****** ****** ****** ****** ****** ****** ******
      ****** ****** ****** ****** ****** ****** ****** ****** ****** ******
  21  ****** ****** ****** ****** ****** ****** ****** ****** ****** ******
      ****** ****** ****** ****** ****** ****** ****** ****** ****** ******
      ****** ****** ****** ****** ****** ****** ****** ****** ****** ******
  22  ****** ****** ****** ****** ****** ****** ****** ****** ****** ******
      ****** ****** ****** ****** ****** ****** ****** ****** ****** ******
      ****** ****** ****** ****** ****** ****** ****** ****** ****** ******
  23  ****** ****** ****** ****** ****** ****** ****** ****** ****** ******
      ****** ****** ****** ****** ****** ****** ****** ****** ****** ******
      ****** ****** ****** ****** ****** ****** ****** ****** ****** ******
  24  ****** ****** ****** ****** ****** ****** ****** ****** ****** ******
      ****** ****** ****** ****** ****** ****** ****** ****** ****** ******
      ****** ****** ****** ****** ****** ****** ****** ****** ****** ******
  25  ****** ****** ****** ****** ****** ****** ****** ****** ****** ******
      ****** ****** ****** ****** ****** ****** ****** ****** ****** ******
      ****** ****** ****** ****** ****** ****** ****** ****** ****** ******

 HEAD WILL BE SAVED ON UNIT   51 AT END OF TIME STEP    1, STRESS PERIOD    2
1
  VOLUMETRIC BUDGET FOR ENTIRE MODEL AT END OF TIME STEP    1, STRESS PERIOD   2
  ------------------------------------------------------------------------------

     CUMULATIVE VOLUMES      L**3       RATES FOR THIS TIME STEP      L**3/T
     ------------------                 ------------------------

           IN:                                      IN:
           ---                                      ---
             STORAGE =    22734999.7507               STORAGE =       53572.7476
       CONSTANT HEAD =     2691376.7245         CONSTANT HEAD =       16959.5074
               WELLS =           0.0000                 WELLS =           0.0000
            RECHARGE =     6292800.0000              RECHARGE =       55200.0000
      STREAM LEAKAGE =      999237.3169        STREAM LEAKAGE =        6663.1431

            TOTAL IN =    32718413.7921              TOTAL IN =      132395.3981

          OUT:                                     OUT:
          ----                                     ----
             STORAGE =           0.0000               STORAGE =           0.0000
       CONSTANT HEAD =           0.0000         CONSTANT HEAD =           0.0000
               WELLS =     7893469.3318                 WELLS =       43133.7122
            RECHARGE =           0.0000              RECHARGE =           0.0000
      STREAM LEAKAGE =    24824945.7388        STREAM LEAKAGE =       89261.6967

           TOTAL OUT =    32718415.0707             TOTAL OUT =      132395.4089

            IN - OUT =          -1.2786              IN - OUT =      -1.0819E-02

 PERCENT DISCREPANCY =          -0.00     PERCENT DISCREPANCY =          -0.00






         TIME SUMMARY AT END OF TIME STEP    1 IN STRESS PERIOD    2
                    SECONDS     MINUTES      HOURS       DAYS        YEARS
                    -----------------------------------------------------------
   TIME STEP LENGTH 7.86240E+06 1.31040E+05  2184.0      91.000     0.24914    
 STRESS PERIOD TIME 7.86240E+06 1.31040E+05  2184.0      91.000     0.24914    
         TOTAL TIME 1.58112E+07 2.63520E+05  4392.0      183.00     0.50103    
1
1
                            STRESS PERIOD NO.    3, LENGTH =   91.00000    
                            -----------------------------------------------

                              NUMBER OF TIME STEPS =     1

                               MULTIPLIER FOR DELT =     1.500

                            INITIAL TIME STEP SIZE =   91.00000    

 WELL NO.  LAYER   ROW   COL   STRESS RATE         
 --------------------------------------------------
      1      1     15     19     -0.1065E+05
      2      1     15     28      -8067.    
      3      1     19     14      -9238.    
      4      1      9     25     -0.1518E+05

      4 WELLS

                 RECHARGE =   0.00000    

 REUSING STREAM SEGMENT DATA FROM LAST STRESS PERIOD
 
 SOLVING FOR HEAD 


     7 CALLS TO PCG ROUTINE FOR TIME STEP   1 IN STRESS PERIOD    3
    27 TOTAL ITERATIONS

 OUTPUT CONTROL FOR STRESS PERIOD    3   TIME STEP    1
    SAVE BUDGET
    SAVE HEAD FOR ALL LAYERS
    PRINT HEAD FOR ALL LAYERS
 UBDSV2 SAVING "STREAMFLOW OUT  " ON UNIT  50 AT TIME STEP  1, STRESS PERIOD   3



 STREAM LISTING     PERIOD      3   STEP        1

 LAYER ROW COL. STREAM  RCH.  FLOW INTO     FLOW TO   FLOW OUT OF   OVRLND.     DIRECT     STREAM       STREAM     STREAM     STREAM   STREAMBED  STREAMBED
                SEG.NO.  NO.  STRM. RCH.    AQUIFER    STRM. RCH.    RUNOFF     PRECIP       ET          HEAD       DEPTH      WIDTH   CONDCTNC.   GRADIENT

   1   13    1     1     1    1.0000E+05 -2.7448E+03   1.0274E+05  0.000E+00  0.000E+00  0.000E+00  4.84072E+01  1.458E-01  2.000E+01  2.000E+04 -1.372E-01
   1   13    2     1     2    1.0274E+05 -3.8561E+03   1.0660E+05  0.000E+00  0.000E+00  0.000E+00  4.79328E+01  1.487E-01  2.000E+01  2.000E+04 -1.928E-01
   1   14    3     1     3    1.0660E+05 -6.4701E+02   1.0725E+05  0.000E+00  0.000E+00  0.000E+00  4.74574E+01  1.506E-01  2.000E+01  2.000E+04 -3.235E-02
   1   15    4     1     4    1.0725E+05 -6.2213E+02   1.0787E+05  0.000E+00  0.000E+00  0.000E+00  4.69807E+01  1.511E-01  2.000E+01  2.000E+04 -3.111E-02
   1   16    5     1     5    1.0787E+05 -2.2752E+03   1.1015E+05  0.000E+00  0.000E+00  0.000E+00  4.65046E+01  1.523E-01  2.000E+01  2.000E+04 -1.138E-01
   1   16    6     1     6    1.1015E+05 -1.3629E+03   1.1151E+05  0.000E+00  0.000E+00  0.000E+00  4.60289E+01  1.539E-01  2.000E+01  2.000E+04 -6.814E-02
   1   16    7     1     7    1.1151E+05 -1.2892E+03   1.1280E+05  0.000E+00  0.000E+00  0.000E+00  4.55527E+01  1.550E-01  2.000E+01  2.000E+04 -6.446E-02
   1   16    8     1     8    1.1280E+05 -1.2183E+03   1.1402E+05  0.000E+00  0.000E+00  0.000E+00  4.50764E+01  1.560E-01  2.000E+01  2.000E+04 -6.091E-02
   1   16    9     1     9    1.1402E+05 -1.1131E+03   1.1513E+05  0.000E+00  0.000E+00  0.000E+00  4.46001E+01  1.570E-01  2.000E+01  2.000E+04 -5.566E-02
   1   16   10     1    10    1.1513E+05 -9.5534E+02   1.1608E+05  0.000E+00  0.000E+00  0.000E+00  4.41237E+01  1.578E-01  2.000E+01  2.000E+04 -4.777E-02
   1   16   11     1    11    1.1608E+05 -7.3363E+02   1.1682E+05  0.000E+00  0.000E+00  0.000E+00  4.36471E+01  1.585E-01  2.000E+01  2.000E+04 -3.668E-02
   1   16   12     1    12    1.1682E+05 -8.7017E+02   1.1769E+05  0.000E+00  0.000E+00  0.000E+00  4.31705E+01  1.591E-01  2.000E+01  2.000E+04 -4.351E-02
   1   15   13     1    13    1.1769E+05 -1.2079E+03   1.1890E+05  0.000E+00  0.000E+00  0.000E+00  4.26941E+01  1.600E-01  2.000E+01  2.000E+04 -6.040E-02
   1   14   14     1    14    1.1890E+05 -1.7754E+03   1.2067E+05  0.000E+00  0.000E+00  0.000E+00  4.22180E+01  1.612E-01  2.000E+01  2.000E+04 -8.877E-02
   1   13   15     1    15    1.2067E+05 -2.3148E+03   1.2299E+05  0.000E+00  0.000E+00  0.000E+00  4.17424E+01  1.628E-01  2.000E+01  2.000E+04 -1.157E-01
   1   12   16     1    16    1.2299E+05 -3.5673E+03   1.2655E+05  0.000E+00  0.000E+00  0.000E+00  4.12675E+01  1.652E-01  2.000E+01  2.000E+04 -1.784E-01
   1   12   17     1    17    1.2655E+05 -1.8610E+03   1.2841E+05  0.000E+00  0.000E+00  0.000E+00  4.07923E+01  1.673E-01  2.000E+01  2.000E+04 -9.305E-02
   1   12   18     1    18    1.2841E+05 -1.4936E+03   1.2991E+05  0.000E+00  0.000E+00  0.000E+00  4.03164E+01  1.687E-01  2.000E+01  2.000E+04 -7.468E-02
   1   12   19     1    19    1.2991E+05 -1.9789E+03   1.3189E+05  0.000E+00  0.000E+00  0.000E+00  3.98405E+01  1.700E-01  2.000E+01  2.000E+04 -9.895E-02
   1   13   20     1    20    1.3189E+05 -1.1054E+02   1.3200E+05  0.000E+00  0.000E+00  0.000E+00  3.93640E+01  1.708E-01  2.000E+01  2.000E+04 -5.527E-03
   1   14   21     1    21    1.3200E+05  2.5229E+02   1.3175E+05  0.000E+00  0.000E+00  0.000E+00  3.88867E+01  1.708E-01  2.000E+01  2.000E+04  1.261E-02
   1   14   22     1    22    1.3175E+05  5.1699E+03   1.2658E+05  0.000E+00  0.000E+00  0.000E+00  3.84073E+01  1.687E-01  2.000E+01  2.000E+04  2.585E-01
   1    9   30     2     1    5.0000E+04 -2.2557E+02   5.0226E+04  0.000E+00  0.000E+00  0.000E+00  4.02410E+01  1.160E-01  2.000E+01  2.000E+04 -1.128E-02
   1    9   29     2     2    5.0226E+04 -5.0177E+02   5.0727E+04  0.000E+00  0.000E+00  0.000E+00  3.99915E+01  1.165E-01  2.000E+01  2.000E+04 -2.509E-02
   1    9   28     2     3    5.0727E+04 -6.4885E+02   5.1376E+04  0.000E+00  0.000E+00  0.000E+00  3.97423E+01  1.173E-01  2.000E+01  2.000E+04 -3.244E-02
   1    9   27     2     4    5.1376E+04 -3.7669E+01   5.1414E+04  0.000E+00  0.000E+00  0.000E+00  3.94928E+01  1.178E-01  2.000E+01  2.000E+04 -1.883E-03
   1   10   26     2     5    5.1414E+04  2.2898E+03   4.9124E+04  0.000E+00  0.000E+00  0.000E+00  3.92412E+01  1.162E-01  2.000E+01  2.000E+04  1.145E-01
   1   11   25     2     6    4.9124E+04  1.1248E+03   4.7999E+04  0.000E+00  0.000E+00  0.000E+00  3.89889E+01  1.139E-01  2.000E+01  2.000E+04  5.624E-02
   1   12   24     2     7    4.7999E+04 -7.4359E+02   4.8743E+04  0.000E+00  0.000E+00  0.000E+00  3.87386E+01  1.136E-01  2.000E+01  2.000E+04 -3.718E-02
   1   13   23     2     8    4.8743E+04 -1.7677E+02   4.8920E+04  0.000E+00  0.000E+00  0.000E+00  3.84892E+01  1.142E-01  2.000E+01  2.000E+04 -8.838E-03
   1   14   22     2     9    4.8920E+04  1.7861E+03   4.7134E+04  0.000E+00  0.000E+00  0.000E+00  3.82381E+01  1.131E-01  2.000E+01  2.000E+04  8.930E-02
   1   14   22     3     1    1.7371E+05 -8.4724E+03   1.8218E+05  0.000E+00  0.000E+00  0.000E+00  3.77252E+01  1.696E-01  2.000E+01  2.000E+04 -4.236E-01
   1   15   23     3     2    1.8218E+05 -4.2383E+02   1.8261E+05  0.000E+00  0.000E+00  0.000E+00  3.68388E+01  1.721E-01  2.000E+01  2.000E+04 -2.119E-02
   1   15   24     3     3    1.8261E+05 -2.9084E+02   1.8290E+05  0.000E+00  0.000E+00  0.000E+00  3.59501E+01  1.724E-01  2.000E+01  2.000E+04 -1.454E-02
   1   15   25     3     4    1.8290E+05 -2.7974E+02   1.8318E+05  0.000E+00  0.000E+00  0.000E+00  3.50614E+01  1.725E-01  2.000E+01  2.000E+04 -1.399E-02
   1   15   26     3     5    1.8318E+05 -2.2057E+01   1.8320E+05  0.000E+00  0.000E+00  0.000E+00  3.41726E+01  1.726E-01  2.000E+01  2.000E+04 -1.103E-03
   1   16   27     3     6    1.8320E+05  2.7491E+02   1.8292E+05  0.000E+00  0.000E+00  0.000E+00  3.32836E+01  1.725E-01  2.000E+01  2.000E+04  1.375E-02
   1   17   28     3     7    1.8292E+05  1.1793E+03   1.8174E+05  0.000E+00  0.000E+00  0.000E+00  3.23943E+01  1.721E-01  2.000E+01  2.000E+04  5.896E-02
   1   18   29     3     8    1.8174E+05 -2.6390E+03   1.8438E+05  0.000E+00  0.000E+00  0.000E+00  3.15059E+01  1.725E-01  2.000E+01  2.000E+04 -1.319E-01
   1   18   30     3     9    1.8438E+05 -2.6350E+03   1.8702E+05  0.000E+00  0.000E+00  0.000E+00  3.06185E+01  1.740E-01  2.000E+01  2.000E+04 -1.318E-01



1
              HEAD IN LAYER   1 AT END OF TIME STEP   1 IN STRESS PERIOD    3
  ---------------------------------------------------------------------------

          1      2      3      4      5      6      7      8      9     10
         11     12     13     14     15     16     17     18     19     20
         21     22     23     24     25     26     27     28     29     30
 .........................................................................
   1  ****** ****** ****** ****** ****** ****** ****** ****** ****** ******
      ****** ****** ****** ****** ****** ****** ****** ****** ****** ******
      ****** ****** ****** ****** ****** ****** ****** ****** ****** ******
   2  ****** ****** ****** ****** ****** ****** ****** ****** ****** ******
      ****** ****** ****** ****** ****** ****** ****** ****** ****** ******
      ****** ****** ****** ****** ****** ****** ****** ****** ****** ******
   3  ****** ****** ****** ****** ****** ****** ****** ****** ****** ******
      ****** ****** ****** ****** ****** ****** ****** ****** ****** ******
      ****** ****** ****** ****** ****** ****** ****** ****** ****** ******
   4  ****** ****** ****** ****** ****** ****** ****** ****** ****** ******
      ****** ****** ****** ****** ****** ****** ****** ****** ****** ******
      ****** ****** ****** ****** ****** ****** ****** ****** ****** ******
   5  ****** ****** ****** ****** ****** ****** ****** ****** ****** ******
      ****** ****** ****** ****** ****** ****** ****** ****** ****** ******
      ****** ****** ****** ****** ****** ****** ****** ****** ****** ******
   6  ****** ****** ****** ****** ****** ****** ****** ****** ****** ******
      ****** ****** ****** ****** ****** ****** ****** ****** ****** ******
      ****** ****** ****** ****** ****** ****** ****** ****** ****** ******
   7  ****** ****** ****** ****** ****** ****** ****** ****** ****** ******
      ****** ****** ****** ****** ****** ****** ****** ****** ****** ******
      ****** ****** ****** ****** ****** ****** ****** ****** ****** ******
   8  ****** ****** ****** ****** ****** ****** ****** ****** ****** ******
      ****** ****** ****** ****** ****** ****** ****** ****** ****** ******
      ****** ****** ****** ****** ****** ****** ****** ****** ****** ******
   9  ****** ****** ****** ****** ****** ****** ****** ****** ****** ******
      ****** ****** ****** ****** ****** ****** ****** ****** ****** ******
      ****** ****** ****** ****** ****** ****** ****** ****** ****** ******
  10  ****** ****** ****** ****** ****** ****** ****** ****** ****** ******
      ****** ****** ****** ****** ****** ****** ****** ****** ****** ******
      ****** ****** ****** ****** ****** ****** ****** ****** ****** ******
  11  ****** ****** ****** ****** ****** ****** ****** ****** ****** ******
      ****** ****** ****** ****** ****** ****** ****** ****** ****** ******
      ****** ****** ****** ****** ****** ****** ****** ****** ****** ******
  12  ****** ****** ****** ****** ****** ****** ****** ****** ****** ******
      ****** ****** ****** ****** ****** ****** ****** ****** ****** ******
      ****** ****** ****** ****** ****** ****** ****** ****** ****** ******
  13  ****** ****** ****** ****** ****** ****** ****** ****** ****** ******
      ****** ****** ****** ****** ****** ****** ****** ****** ****** ******
      ****** ****** ****** ****** ****** ****** ****** ****** ****** ******
  14  ****** ****** ****** ****** ****** ****** ****** ****** ****** ******
      ****** ****** ****** ****** ****** ****** ****** ****** ****** ******
      ****** ****** ****** ****** ****** ****** ****** ****** ****** ******
  15  ****** ****** ****** ****** ****** ****** ****** ****** ****** ******
      ****** ****** ****** ****** ****** ****** ****** ****** ****** ******
      ****** ****** ****** ****** ****** ****** ****** ****** ****** ******
  16  ****** ****** ****** ****** ****** ****** ****** ****** ****** ******
      ****** ****** ****** ****** ****** ****** ****** ****** ****** ******
      ****** ****** ****** ****** ****** ****** ****** ****** ****** ******
  17  ****** ****** ****** ****** ****** ****** ****** ****** ****** ******
      ****** ****** ****** ****** ****** ****** ****** ****** ****** ******
      ****** ****** ****** ****** ****** ****** ****** ****** ****** ******
  18  ****** ****** ****** ****** ****** ****** ****** ****** ****** ******
      ****** ****** ****** ****** ****** ****** ****** ****** ****** ******
      ****** ****** ****** ****** ****** ****** ****** ****** ****** ******
  19  ****** ****** ****** ****** ****** ****** ****** ****** ****** ******
      ****** ****** ****** ****** ****** ****** ****** ****** ****** ******
      ****** ****** ****** ****** ****** ****** ****** ****** ****** ******
  20  ****** ****** ****** ****** ****** ****** ****** ****** ****** ******
      ****** ****** ****** ****** ****** ****** ****** ****** ****** ******
      ****** ****** ****** ****** ****** ****** ****** ****** ****** ******
  21  ****** ****** ****** ****** ****** ****** ****** ****** ****** ******
      ****** ****** ****** ****** ****** ****** ****** ****** ****** ******
      ****** ****** ****** ****** ****** ****** ****** ****** ****** ******
  22  ****** ****** ****** ****** ****** ****** ****** ****** ****** ******
      ****** ****** ****** ****** ****** ****** ****** ****** ****** ******
      ****** ****** ****** ****** ****** ****** ****** ****** ****** ******
  23  ****** ****** ****** ****** ****** ****** ****** ****** ****** ******
      ****** ****** ****** ****** ****** ****** ****** ****** ****** ******
      ****** ****** ****** ****** ****** ****** ****** ****** ****** ******
  24  ****** ****** ****** ****** ****** ****** ****** ****** ****** ******
      ****** ****** ****** ****** ****** ****** ****** ****** ****** ******
      ****** ****** ****** ****** ****** ****** ****** ****** ****** ******
  25  ****** ****** ****** ****** ****** ****** ****** ****** ****** ******
      ****** ****** ****** ****** ****** ****** ****** ****** ****** ******
      ****** ****** ****** ****** ****** ****** ****** ****** ****** ******

 HEAD WILL BE SAVED ON UNIT   51 AT END OF TIME STEP    1, STRESS PERIOD    3
1
  VOLUMETRIC BUDGET FOR ENTIRE MODEL AT END OF TIME STEP    1, STRESS PERIOD   3
  ------------------------------------------------------------------------------

     CUMULATIVE VOLUMES      L**3       RATES FOR THIS TIME STEP      L**3/T
     ------------------                 ------------------------

           IN:                                      IN:
           ---                                      ---
             STORAGE =    27708949.9807               STORAGE =       54658.7937
       CONSTANT HEAD =     5011192.0189         CONSTANT HEAD =       25492.4758
               WELLS =           0.0000                 WELLS =           0.0000
            RECHARGE =     6292800.0000              RECHARGE =           0.0000
      STREAM LEAKAGE =     2098251.0659        STREAM LEAKAGE =       12077.0742

            TOTAL IN =    41111193.0654              TOTAL IN =       92228.3437

          OUT:                                     OUT:
          ----                                     ----
             STORAGE =           0.0000               STORAGE =           0.0000
       CONSTANT HEAD =           0.0000         CONSTANT HEAD =           0.0000
               WELLS =    11818637.1417                 WELLS =       43133.7122
            RECHARGE =           0.0000              RECHARGE =           0.0000
      STREAM LEAKAGE =    29292557.9211        STREAM LEAKAGE =       49094.6394

           TOTAL OUT =    41111195.0628             TOTAL OUT =       92228.3516

            IN - OUT =          -1.9974              IN - OUT =      -7.8988E-03

 PERCENT DISCREPANCY =          -0.00     PERCENT DISCREPANCY =          -0.00






         TIME SUMMARY AT END OF TIME STEP    1 IN STRESS PERIOD    3
                    SECONDS     MINUTES      HOURS       DAYS        YEARS
                    -----------------------------------------------------------
   TIME STEP LENGTH 7.86240E+06 1.31040E+05  2184.0      91.000     0.24914    
 STRESS PERIOD TIME 7.86240E+06 1.31040E+05  2184.0      91.000     0.24914    
         TOTAL TIME 2.36736E+07 3.94560E+05  6576.0      274.00     0.75017    
1
1
                            STRESS PERIOD NO.    4, LENGTH =   91.00000    
                            -----------------------------------------------

                              NUMBER OF TIME STEPS =     1

                               MULTIPLIER FOR DELT =     1.500

                            INITIAL TIME STEP SIZE =   91.00000    

 WELL NO.  LAYER   ROW   COL   STRESS RATE         
 --------------------------------------------------
      1      1     15     19     -0.1065E+05
      2      1     15     28      -8067.    
      3      1     19     14      -9238.    
      4      1      9     25     -0.1518E+05

      4 WELLS

                 RECHARGE =  1.000000E-03

 REUSING STREAM SEGMENT DATA FROM LAST STRESS PERIOD
 
 SOLVING FOR HEAD 


     6 CALLS TO PCG ROUTINE FOR TIME STEP   1 IN STRESS PERIOD    4
    23 TOTAL ITERATIONS

 OUTPUT CONTROL FOR STRESS PERIOD    4   TIME STEP    1
    SAVE BUDGET
    SAVE HEAD FOR ALL LAYERS
    PRINT HEAD FOR ALL LAYERS
 UBDSV2 SAVING "STREAMFLOW OUT  " ON UNIT  50 AT TIME STEP  1, STRESS PERIOD   4



 STREAM LISTING     PERIOD      4   STEP        1

 LAYER ROW COL. STREAM  RCH.  FLOW INTO     FLOW TO   FLOW OUT OF   OVRLND.     DIRECT     STREAM       STREAM     STREAM     STREAM   STREAMBED  STREAMBED
                SEG.NO.  NO.  STRM. RCH.    AQUIFER    STRM. RCH.    RUNOFF     PRECIP       ET          HEAD       DEPTH      WIDTH   CONDCTNC.   GRADIENT

   1   13    1     1     1    1.0000E+05 -2.5146E+03   1.0251E+05  0.000E+00  0.000E+00  0.000E+00  4.84071E+01  1.457E-01  2.000E+01  2.000E+04 -1.257E-01
   1   13    2     1     2    1.0251E+05 -3.5892E+03   1.0610E+05  0.000E+00  0.000E+00  0.000E+00  4.79325E+01  1.484E-01  2.000E+01  2.000E+04 -1.795E-01
   1   14    3     1     3    1.0610E+05 -6.1789E+02   1.0672E+05  0.000E+00  0.000E+00  0.000E+00  4.74570E+01  1.501E-01  2.000E+01  2.000E+04 -3.089E-02
   1   15    4     1     4    1.0672E+05 -5.8172E+02   1.0730E+05  0.000E+00  0.000E+00  0.000E+00  4.69802E+01  1.507E-01  2.000E+01  2.000E+04 -2.909E-02
   1   16    5     1     5    1.0730E+05 -1.9484E+03   1.0925E+05  0.000E+00  0.000E+00  0.000E+00  4.65040E+01  1.517E-01  2.000E+01  2.000E+04 -9.742E-02
   1   16    6     1     6    1.0925E+05 -1.2001E+03   1.1045E+05  0.000E+00  0.000E+00  0.000E+00  4.60280E+01  1.530E-01  2.000E+01  2.000E+04 -6.001E-02
   1   16    7     1     7    1.1045E+05 -1.1372E+03   1.1159E+05  0.000E+00  0.000E+00  0.000E+00  4.55517E+01  1.540E-01  2.000E+01  2.000E+04 -5.686E-02
   1   16    8     1     8    1.1159E+05 -1.0689E+03   1.1266E+05  0.000E+00  0.000E+00  0.000E+00  4.50754E+01  1.549E-01  2.000E+01  2.000E+04 -5.345E-02
   1   16    9     1     9    1.1266E+05 -9.6436E+02   1.1362E+05  0.000E+00  0.000E+00  0.000E+00  4.45990E+01  1.558E-01  2.000E+01  2.000E+04 -4.822E-02
   1   16   10     1    10    1.1362E+05 -8.0690E+02   1.1443E+05  0.000E+00  0.000E+00  0.000E+00  4.41224E+01  1.565E-01  2.000E+01  2.000E+04 -4.034E-02
   1   16   11     1    11    1.1443E+05 -5.8051E+02   1.1501E+05  0.000E+00  0.000E+00  0.000E+00  4.36457E+01  1.571E-01  2.000E+01  2.000E+04 -2.903E-02
   1   16   12     1    12    1.1501E+05 -5.5464E+02   1.1556E+05  0.000E+00  0.000E+00  0.000E+00  4.31689E+01  1.575E-01  2.000E+01  2.000E+04 -2.773E-02
   1   15   13     1    13    1.1556E+05 -9.3147E+02   1.1650E+05  0.000E+00  0.000E+00  0.000E+00  4.26922E+01  1.581E-01  2.000E+01  2.000E+04 -4.657E-02
   1   14   14     1    14    1.1650E+05 -1.4886E+03   1.1798E+05  0.000E+00  0.000E+00  0.000E+00  4.22160E+01  1.591E-01  2.000E+01  2.000E+04 -7.443E-02
   1   13   15     1    15    1.1798E+05 -2.0148E+03   1.2000E+05  0.000E+00  0.000E+00  0.000E+00  4.17401E+01  1.606E-01  2.000E+01  2.000E+04 -1.007E-01
   1   12   16     1    16    1.2000E+05 -3.1889E+03   1.2319E+05  0.000E+00  0.000E+00  0.000E+00  4.12649E+01  1.627E-01  2.000E+01  2.000E+04 -1.594E-01
   1   12   17     1    17    1.2319E+05 -1.6263E+03   1.2481E+05  0.000E+00  0.000E+00  0.000E+00  4.07896E+01  1.646E-01  2.000E+01  2.000E+04 -8.132E-02
   1   12   18     1    18    1.2481E+05 -1.2730E+03   1.2609E+05  0.000E+00  0.000E+00  0.000E+00  4.03135E+01  1.657E-01  2.000E+01  2.000E+04 -6.365E-02
   1   12   19     1    19    1.2609E+05 -1.7079E+03   1.2780E+05  0.000E+00  0.000E+00  0.000E+00  3.98374E+01  1.669E-01  2.000E+01  2.000E+04 -8.540E-02
   1   13   20     1    20    1.2780E+05  8.2469E+01   1.2771E+05  0.000E+00  0.000E+00  0.000E+00  3.93607E+01  1.676E-01  2.000E+01  2.000E+04  4.123E-03
   1   14   21     1    21    1.2771E+05  5.2483E+02   1.2719E+05  0.000E+00  0.000E+00  0.000E+00  3.88832E+01  1.673E-01  2.000E+01  2.000E+04  2.624E-02
   1   14   22     1    22    1.2719E+05  5.2132E+03   1.2198E+05  0.000E+00  0.000E+00  0.000E+00  3.84037E+01  1.650E-01  2.000E+01  2.000E+04  2.607E-01
   1    9   30     2     1    5.0000E+04 -1.2323E+02   5.0123E+04  0.000E+00  0.000E+00  0.000E+00  4.02410E+01  1.160E-01  2.000E+01  2.000E+04 -6.161E-03
   1    9   29     2     2    5.0123E+04 -3.9275E+02   5.0516E+04  0.000E+00  0.000E+00  0.000E+00  3.99913E+01  1.163E-01  2.000E+01  2.000E+04 -1.964E-02
   1    9   28     2     3    5.0516E+04 -5.2016E+02   5.1036E+04  0.000E+00  0.000E+00  0.000E+00  3.97419E+01  1.169E-01  2.000E+01  2.000E+04 -2.601E-02
   1    9   27     2     4    5.1036E+04  2.4465E+02   5.0791E+04  0.000E+00  0.000E+00  0.000E+00  3.94921E+01  1.171E-01  2.000E+01  2.000E+04  1.223E-02
   1   10   26     2     5    5.0791E+04  2.4588E+03   4.8333E+04  0.000E+00  0.000E+00  0.000E+00  3.92403E+01  1.153E-01  2.000E+01  2.000E+04  1.229E-01
   1   11   25     2     6    4.8333E+04  1.2507E+03   4.7082E+04  0.000E+00  0.000E+00  0.000E+00  3.89876E+01  1.126E-01  2.000E+01  2.000E+04  6.254E-02
   1   12   24     2     7    4.7082E+04 -6.3909E+02   4.7721E+04  0.000E+00  0.000E+00  0.000E+00  3.87372E+01  1.122E-01  2.000E+01  2.000E+04 -3.195E-02
   1   13   23     2     8    4.7721E+04 -2.0143E+02   4.7923E+04  0.000E+00  0.000E+00  0.000E+00  3.84878E+01  1.128E-01  2.000E+01  2.000E+04 -1.007E-02
   1   14   22     2     9    4.7923E+04  1.8721E+03   4.6050E+04  0.000E+00  0.000E+00  0.000E+00  3.82366E+01  1.116E-01  2.000E+01  2.000E+04  9.360E-02
   1   14   22     3     1    1.6803E+05 -8.4226E+03   1.7645E+05  0.000E+00  0.000E+00  0.000E+00  3.77219E+01  1.663E-01  2.000E+01  2.000E+04 -4.211E-01
   1   15   23     3     2    1.7645E+05 -3.9039E+02   1.7684E+05  0.000E+00  0.000E+00  0.000E+00  3.68355E+01  1.689E-01  2.000E+01  2.000E+04 -1.952E-02
   1   15   24     3     3    1.7684E+05 -2.8558E+02   1.7712E+05  0.000E+00  0.000E+00  0.000E+00  3.59468E+01  1.691E-01  2.000E+01  2.000E+04 -1.428E-02
   1   15   25     3     4    1.7712E+05 -2.7482E+02   1.7740E+05  0.000E+00  0.000E+00  0.000E+00  3.50581E+01  1.692E-01  2.000E+01  2.000E+04 -1.374E-02
   1   15   26     3     5    1.7740E+05 -2.5443E+01   1.7742E+05  0.000E+00  0.000E+00  0.000E+00  3.41693E+01  1.693E-01  2.000E+01  2.000E+04 -1.272E-03
   1   16   27     3     6    1.7742E+05  2.8136E+02   1.7714E+05  0.000E+00  0.000E+00  0.000E+00  3.32804E+01  1.692E-01  2.000E+01  2.000E+04  1.407E-02
   1   17   28     3     7    1.7714E+05  1.2680E+03   1.7588E+05  0.000E+00  0.000E+00  0.000E+00  3.23910E+01  1.688E-01  2.000E+01  2.000E+04  6.340E-02
   1   18   29     3     8    1.7588E+05 -2.3919E+03   1.7827E+05  0.000E+00  0.000E+00  0.000E+00  3.15025E+01  1.691E-01  2.000E+01  2.000E+04 -1.196E-01
   1   18   30     3     9    1.7827E+05 -2.5064E+03   1.8077E+05  0.000E+00  0.000E+00  0.000E+00  3.06150E+01  1.705E-01  2.000E+01  2.000E+04 -1.253E-01



1
              HEAD IN LAYER   1 AT END OF TIME STEP   1 IN STRESS PERIOD    4
  ---------------------------------------------------------------------------

          1      2      3      4      5      6      7      8      9     10
         11     12     13     14     15     16     17     18     19     20
         21     22     23     24     25     26     27     28     29     30
 .........................................................................
   1  ****** ****** ****** ****** ****** ****** ****** ****** ****** ******
      ****** ****** ****** ****** ****** ****** ****** ****** ****** ******
      ****** ****** ****** ****** ****** ****** ****** ****** ****** ******
   2  ****** ****** ****** ****** ****** ****** ****** ****** ****** ******
      ****** ****** ****** ****** ****** ****** ****** ****** ****** ******
      ****** ****** ****** ****** ****** ****** ****** ****** ****** ******
   3  ****** ****** ****** ****** ****** ****** ****** ****** ****** ******
      ****** ****** ****** ****** ****** ****** ****** ****** ****** ******
      ****** ****** ****** ****** ****** ****** ****** ****** ****** ******
   4  ****** ****** ****** ****** ****** ****** ****** ****** ****** ******
      ****** ****** ****** ****** ****** ****** ****** ****** ****** ******
      ****** ****** ****** ****** ****** ****** ****** ****** ****** ******
   5  ****** ****** ****** ****** ****** ****** ****** ****** ****** ******
      ****** ****** ****** ****** ****** ****** ****** ****** ****** ******
      ****** ****** ****** ****** ****** ****** ****** ****** ****** ******
   6  ****** ****** ****** ****** ****** ****** ****** ****** ****** ******
      ****** ****** ****** ****** ****** ****** ****** ****** ****** ******
      ****** ****** ****** ****** ****** ****** ****** ****** ****** ******
   7  ****** ****** ****** ****** ****** ****** ****** ****** ****** ******
      ****** ****** ****** ****** ****** ****** ****** ****** ****** ******
      ****** ****** ****** ****** ****** ****** ****** ****** ****** ******
   8  ****** ****** ****** ****** ****** ****** ****** ****** ****** ******
      ****** ****** ****** ****** ****** ****** ****** ****** ****** ******
      ****** ****** ****** ****** ****** ****** ****** ****** ****** ******
   9  ****** ****** ****** ****** ****** ****** ****** ****** ****** ******
      ****** ****** ****** ****** ****** ****** ****** ****** ****** ******
      ****** ****** ****** ****** ****** ****** ****** ****** ****** ******
  10  ****** ****** ****** ****** ****** ****** ****** ****** ****** ******
      ****** ****** ****** ****** ****** ****** ****** ****** ****** ******
      ****** ****** ****** ****** ****** ****** ****** ****** ****** ******
  11  ****** ****** ****** ****** ****** ****** ****** ****** ****** ******
      ****** ****** ****** ****** ****** ****** ****** ****** ****** ******
      ****** ****** ****** ****** ****** ****** ****** ****** ****** ******
  12  ****** ****** ****** ****** ****** ****** ****** ****** ****** ******
      ****** ****** ****** ****** ****** ****** ****** ****** ****** ******
      ****** ****** ****** ****** ****** ****** ****** ****** ****** ******
  13  ****** ****** ****** ****** ****** ****** ****** ****** ****** ******
      ****** ****** ****** ****** ****** ****** ****** ****** ****** ******
      ****** ****** ****** ****** ****** ****** ****** ****** ****** ******
  14  ****** ****** ****** ****** ****** ****** ****** ****** ****** ******
      ****** ****** ****** ****** ****** ****** ****** ****** ****** ******
      ****** ****** ****** ****** ****** ****** ****** ****** ****** ******
  15  ****** ****** ****** ****** ****** ****** ****** ****** ****** ******
      ****** ****** ****** ****** ****** ****** ****** ****** ****** ******
      ****** ****** ****** ****** ****** ****** ****** ****** ****** ******
  16  ****** ****** ****** ****** ****** ****** ****** ****** ****** ******
      ****** ****** ****** ****** ****** ****** ****** ****** ****** ******
      ****** ****** ****** ****** ****** ****** ****** ****** ****** ******
  17  ****** ****** ****** ****** ****** ****** ****** ****** ****** ******
      ****** ****** ****** ****** ****** ****** ****** ****** ****** ******
      ****** ****** ****** ****** ****** ****** ****** ****** ****** ******
  18  ****** ****** ****** ****** ****** ****** ****** ****** ****** ******
      ****** ****** ****** ****** ****** ****** ****** ****** ****** ******
      ****** ****** ****** ****** ****** ****** ****** ****** ****** ******
  19  ****** ****** ****** ****** ****** ****** ****** ****** ****** ******
      ****** ****** ****** ****** ****** ****** ****** ****** ****** ******
      ****** ****** ****** ****** ****** ****** ****** ****** ****** ******
  20  ****** ****** ****** ****** ****** ****** ****** ****** ****** ******
      ****** ****** ****** ****** ****** ****** ****** ****** ****** ******
      ****** ****** ****** ****** ****** ****** ****** ****** ****** ******
  21  ****** ****** ****** ****** ****** ****** ****** ****** ****** ******
      ****** ****** ****** ****** ****** ****** ****** ****** ****** ******
      ****** ****** ****** ****** ****** ****** ****** ****** ****** ******
  22  ****** ****** ****** ****** ****** ****** ****** ****** ****** ******
      ****** ****** ****** ****** ****** ****** ****** ****** ****** ******
      ****** ****** ****** ****** ****** ****** ****** ****** ****** ******
  23  ****** ****** ****** ****** ****** ****** ****** ****** ****** ******
      ****** ****** ****** ****** ****** ****** ****** ****** ****** ******
      ****** ****** ****** ****** ****** ****** ****** ****** ****** ******
  24  ****** ****** ****** ****** ****** ****** ****** ****** ****** ******
      ****** ****** ****** ****** ****** ****** ****** ****** ****** ******
      ****** ****** ****** ****** ****** ****** ****** ****** ****** ******
  25  ****** ****** ****** ****** ****** ****** ****** ****** ****** ******
      ****** ****** ****** ****** ****** ****** ****** ****** ****** ******
      ****** ****** ****** ****** ****** ****** ****** ****** ****** ******

 HEAD WILL BE SAVED ON UNIT   51 AT END OF TIME STEP    1, STRESS PERIOD    4
1
  VOLUMETRIC BUDGET FOR ENTIRE MODEL AT END OF TIME STEP    1, STRESS PERIOD   4
  ------------------------------------------------------------------------------

     CUMULATIVE VOLUMES      L**3       RATES FOR THIS TIME STEP      L**3/T
     ------------------                 ------------------------

           IN:                                      IN:
           ---                                      ---
             STORAGE =    29367944.2140               STORAGE =       18230.7059
       CONSTANT HEAD =     7566729.2535         CONSTANT HEAD =       28082.8268
               WELLS =           0.0000                 WELLS =           0.0000
            RECHARGE =     8804400.0000              RECHARGE =       27600.0000
      STREAM LEAKAGE =     3299090.8151        STREAM LEAKAGE =       13196.0412

            TOTAL IN =    49038164.2826              TOTAL IN =       87109.5738

          OUT:                                     OUT:
          ----                                     ----
             STORAGE =         591.3922               STORAGE =           6.4988
       CONSTANT HEAD =           0.0000         CONSTANT HEAD =           0.0000
               WELLS =    15743804.9515                 WELLS =       43133.7122
            RECHARGE =           0.0000              RECHARGE =           0.0000
      STREAM LEAKAGE =    33293770.0116        STREAM LEAKAGE =       43969.3636

           TOTAL OUT =    49038166.3553             TOTAL OUT =       87109.5746

            IN - OUT =          -2.0727              IN - OUT =      -8.2727E-04

 PERCENT DISCREPANCY =          -0.00     PERCENT DISCREPANCY =          -0.00






         TIME SUMMARY AT END OF TIME STEP    1 IN STRESS PERIOD    4
                    SECONDS     MINUTES      HOURS       DAYS        YEARS
                    -----------------------------------------------------------
   TIME STEP LENGTH 7.86240E+06 1.31040E+05  2184.0      91.000     0.24914    
 STRESS PERIOD TIME 7.86240E+06 1.31040E+05  2184.0      91.000     0.24914    
         TOTAL TIME 3.15360E+07 5.25600E+05  8760.0      365.00     0.99932    
1
1
                            STRESS PERIOD NO.    5, LENGTH =   92.00000    
                            -----------------------------------------------

                              NUMBER OF TIME STEPS =     1

                               MULTIPLIER FOR DELT =     1.500

                            INITIAL TIME STEP SIZE =   92.00000    

 WELL NO.  LAYER   ROW   COL   STRESS RATE         
 --------------------------------------------------
      1      1     15     19     -0.1065E+05
      2      1     15     28      -8067.    
      3      1     19     14      -9238.    
      4      1      9     25     -0.1518E+05

      4 WELLS

                 RECHARGE =  5.000000E-04

 REUSING STREAM SEGMENT DATA FROM LAST STRESS PERIOD
 
 SOLVING FOR HEAD 


     7 CALLS TO PCG ROUTINE FOR TIME STEP   1 IN STRESS PERIOD    5
    26 TOTAL ITERATIONS

 OUTPUT CONTROL FOR STRESS PERIOD    5   TIME STEP    1
    SAVE BUDGET
    SAVE HEAD FOR ALL LAYERS
    PRINT HEAD FOR ALL LAYERS
 UBDSV2 SAVING "STREAMFLOW OUT  " ON UNIT  50 AT TIME STEP  1, STRESS PERIOD   5



 STREAM LISTING     PERIOD      5   STEP        1

 LAYER ROW COL. STREAM  RCH.  FLOW INTO     FLOW TO   FLOW OUT OF   OVRLND.     DIRECT     STREAM       STREAM     STREAM     STREAM   STREAMBED  STREAMBED
                SEG.NO.  NO.  STRM. RCH.    AQUIFER    STRM. RCH.    RUNOFF     PRECIP       ET          HEAD       DEPTH      WIDTH   CONDCTNC.   GRADIENT

   1   13    1     1     1    1.0000E+05 -2.1057E+03   1.0211E+05  0.000E+00  0.000E+00  0.000E+00  4.84069E+01  1.456E-01  2.000E+01  2.000E+04 -1.053E-01
   1   13    2     1     2    1.0211E+05 -3.1277E+03   1.0523E+05  0.000E+00  0.000E+00  0.000E+00  4.79319E+01  1.478E-01  2.000E+01  2.000E+04 -1.564E-01
   1   14    3     1     3    1.0523E+05 -4.9582E+02   1.0573E+05  0.000E+00  0.000E+00  0.000E+00  4.74562E+01  1.494E-01  2.000E+01  2.000E+04 -2.479E-02
   1   15    4     1     4    1.0573E+05 -4.5220E+02   1.0618E+05  0.000E+00  0.000E+00  0.000E+00  4.69793E+01  1.498E-01  2.000E+01  2.000E+04 -2.261E-02
   1   16    5     1     5    1.0618E+05 -1.5044E+03   1.0769E+05  0.000E+00  0.000E+00  0.000E+00  4.65029E+01  1.506E-01  2.000E+01  2.000E+04 -7.522E-02
   1   16    6     1     6    1.0769E+05 -9.4107E+02   1.0863E+05  0.000E+00  0.000E+00  0.000E+00  4.60266E+01  1.516E-01  2.000E+01  2.000E+04 -4.705E-02
   1   16    7     1     7    1.0863E+05 -8.8867E+02   1.0952E+05  0.000E+00  0.000E+00  0.000E+00  4.55501E+01  1.524E-01  2.000E+01  2.000E+04 -4.443E-02
   1   16    8     1     8    1.0952E+05 -8.2351E+02   1.1034E+05  0.000E+00  0.000E+00  0.000E+00  4.50736E+01  1.531E-01  2.000E+01  2.000E+04 -4.118E-02
   1   16    9     1     9    1.1034E+05 -7.2106E+02   1.1106E+05  0.000E+00  0.000E+00  0.000E+00  4.45969E+01  1.537E-01  2.000E+01  2.000E+04 -3.605E-02
   1   16   10     1    10    1.1106E+05 -5.6577E+02   1.1163E+05  0.000E+00  0.000E+00  0.000E+00  4.41202E+01  1.543E-01  2.000E+01  2.000E+04 -2.829E-02
   1   16   11     1    11    1.1163E+05 -3.3691E+02   1.1196E+05  0.000E+00  0.000E+00  0.000E+00  4.36433E+01  1.547E-01  2.000E+01  2.000E+04 -1.685E-02
   1   16   12     1    12    1.1196E+05 -1.1834E+02   1.1208E+05  0.000E+00  0.000E+00  0.000E+00  4.31662E+01  1.548E-01  2.000E+01  2.000E+04 -5.917E-03
   1   15   13     1    13    1.1208E+05 -4.8328E+02   1.1256E+05  0.000E+00  0.000E+00  0.000E+00  4.26892E+01  1.551E-01  2.000E+01  2.000E+04 -2.416E-02
   1   14   14     1    14    1.1256E+05 -1.0188E+03   1.1358E+05  0.000E+00  0.000E+00  0.000E+00  4.22125E+01  1.557E-01  2.000E+01  2.000E+04 -5.094E-02
   1   13   15     1    15    1.1358E+05 -1.5334E+03   1.1512E+05  0.000E+00  0.000E+00  0.000E+00  4.17363E+01  1.568E-01  2.000E+01  2.000E+04 -7.667E-02
   1   12   16     1    16    1.1512E+05 -2.6705E+03   1.1779E+05  0.000E+00  0.000E+00  0.000E+00  4.12608E+01  1.585E-01  2.000E+01  2.000E+04 -1.335E-01
   1   12   17     1    17    1.1779E+05 -1.2736E+03   1.1906E+05  0.000E+00  0.000E+00  0.000E+00  4.07851E+01  1.601E-01  2.000E+01  2.000E+04 -6.368E-02
   1   12   18     1    18    1.1906E+05 -9.3594E+02   1.2000E+05  0.000E+00  0.000E+00  0.000E+00  4.03087E+01  1.610E-01  2.000E+01  2.000E+04 -4.680E-02
   1   12   19     1    19    1.2000E+05 -1.3010E+03   1.2130E+05  0.000E+00  0.000E+00  0.000E+00  3.98323E+01  1.619E-01  2.000E+01  2.000E+04 -6.505E-02
   1   13   20     1    20    1.2130E+05  4.4664E+02   1.2085E+05  0.000E+00  0.000E+00  0.000E+00  3.93554E+01  1.622E-01  2.000E+01  2.000E+04  2.233E-02
   1   14   21     1    21    1.2085E+05  9.2339E+02   1.1993E+05  0.000E+00  0.000E+00  0.000E+00  3.88776E+01  1.617E-01  2.000E+01  2.000E+04  4.617E-02
   1   14   22     1    22    1.1993E+05  5.2972E+03   1.1463E+05  0.000E+00  0.000E+00  0.000E+00  3.83978E+01  1.592E-01  2.000E+01  2.000E+04  2.649E-01
   1    9   30     2     1    5.0000E+04  1.1131E+02   4.9889E+04  0.000E+00  0.000E+00  0.000E+00  4.02408E+01  1.158E-01  2.000E+01  2.000E+04  5.565E-03
   1    9   29     2     2    4.9889E+04 -1.5485E+02   5.0044E+04  0.000E+00  0.000E+00  0.000E+00  3.99908E+01  1.158E-01  2.000E+01  2.000E+04 -7.743E-03
   1    9   28     2     3    5.0044E+04 -2.7076E+02   5.0314E+04  0.000E+00  0.000E+00  0.000E+00  3.97411E+01  1.161E-01  2.000E+01  2.000E+04 -1.354E-02
   1    9   27     2     4    5.0314E+04  6.3576E+02   4.9679E+04  0.000E+00  0.000E+00  0.000E+00  3.94909E+01  1.159E-01  2.000E+01  2.000E+04  3.179E-02
   1   10   26     2     5    4.9679E+04  2.7996E+03   4.6879E+04  0.000E+00  0.000E+00  0.000E+00  3.92385E+01  1.135E-01  2.000E+01  2.000E+04  1.400E-01
   1   11   25     2     6    4.6879E+04  1.5628E+03   4.5316E+04  0.000E+00  0.000E+00  0.000E+00  3.89854E+01  1.104E-01  2.000E+01  2.000E+04  7.814E-02
   1   12   24     2     7    4.5316E+04 -3.5494E+02   4.5671E+04  0.000E+00  0.000E+00  0.000E+00  3.87345E+01  1.095E-01  2.000E+01  2.000E+04 -1.775E-02
   1   13   23     2     8    4.5671E+04 -1.3299E+02   4.5804E+04  0.000E+00  0.000E+00  0.000E+00  3.84848E+01  1.098E-01  2.000E+01  2.000E+04 -6.649E-03
   1   14   22     2     9    4.5804E+04  2.0107E+03   4.3793E+04  0.000E+00  0.000E+00  0.000E+00  3.82335E+01  1.085E-01  2.000E+01  2.000E+04  1.005E-01
   1   14   22     3     1    1.5842E+05 -8.3342E+03   1.6676E+05  0.000E+00  0.000E+00  0.000E+00  3.77162E+01  1.607E-01  2.000E+01  2.000E+04 -4.167E-01
   1   15   23     3     2    1.6676E+05 -2.8650E+02   1.6704E+05  0.000E+00  0.000E+00  0.000E+00  3.68299E+01  1.632E-01  2.000E+01  2.000E+04 -1.433E-02
   1   15   24     3     3    1.6704E+05 -2.1074E+02   1.6726E+05  0.000E+00  0.000E+00  0.000E+00  3.59411E+01  1.634E-01  2.000E+01  2.000E+04 -1.054E-02
   1   15   25     3     4    1.6726E+05 -2.0097E+02   1.6746E+05  0.000E+00  0.000E+00  0.000E+00  3.50524E+01  1.635E-01  2.000E+01  2.000E+04 -1.005E-02
   1   15   26     3     5    1.6746E+05  4.9005E+01   1.6741E+05  0.000E+00  0.000E+00  0.000E+00  3.41635E+01  1.635E-01  2.000E+01  2.000E+04  2.450E-03
   1   16   27     3     6    1.6741E+05  3.7518E+02   1.6703E+05  0.000E+00  0.000E+00  0.000E+00  3.32745E+01  1.634E-01  2.000E+01  2.000E+04  1.876E-02
   1   17   28     3     7    1.6703E+05  1.5479E+03   1.6548E+05  0.000E+00  0.000E+00  0.000E+00  3.23851E+01  1.628E-01  2.000E+01  2.000E+04  7.739E-02
   1   18   29     3     8    1.6548E+05 -1.9975E+03   1.6748E+05  0.000E+00  0.000E+00  0.000E+00  3.14963E+01  1.630E-01  2.000E+01  2.000E+04 -9.988E-02
   1   18   30     3     9    1.6748E+05 -2.2359E+03   1.6972E+05  0.000E+00  0.000E+00  0.000E+00  3.06087E+01  1.642E-01  2.000E+01  2.000E+04 -1.118E-01



1
              HEAD IN LAYER   1 AT END OF TIME STEP   1 IN STRESS PERIOD    5
  ---------------------------------------------------------------------------

          1      2      3      4      5      6      7      8      9     10
         11     12     13     14     15     16     17     18     19     20
         21     22     23     24     25     26     27     28     29     30
 .........................................................................
   1  ****** ****** ****** ****** ****** ****** ****** ****** ****** ******
      ****** ****** ****** ****** ****** ****** ****** ****** ****** ******
      ****** ****** ****** ****** ****** ****** ****** ****** ****** ******
   2  ****** ****** ****** ****** ****** ****** ****** ****** ****** ******
      ****** ****** ****** ****** ****** ****** ****** ****** ****** ******
      ****** ****** ****** ****** ****** ****** ****** ****** ****** ******
   3  ****** ****** ****** ****** ****** ****** ****** ****** ****** ******
      ****** ****** ****** ****** ****** ****** ****** ****** ****** ******
      ****** ****** ****** ****** ****** ****** ****** ****** ****** ******
   4  ****** ****** ****** ****** ****** ****** ****** ****** ****** ******
      ****** ****** ****** ****** ****** ****** ****** ****** ****** ******
      ****** ****** ****** ****** ****** ****** ****** ****** ****** ******
   5  ****** ****** ****** ****** ****** ****** ****** ****** ****** ******
      ****** ****** ****** ****** ****** ****** ****** ****** ****** ******
      ****** ****** ****** ****** ****** ****** ****** ****** ****** ******
   6  ****** ****** ****** ****** ****** ****** ****** ****** ****** ******
      ****** ****** ****** ****** ****** ****** ****** ****** ****** ******
      ****** ****** ****** ****** ****** ****** ****** ****** ****** ******
   7  ****** ****** ****** ****** ****** ****** ****** ****** ****** ******
      ****** ****** ****** ****** ****** ****** ****** ****** ****** ******
      ****** ****** ****** ****** ****** ****** ****** ****** ****** ******
   8  ****** ****** ****** ****** ****** ****** ****** ****** ****** ******
      ****** ****** ****** ****** ****** ****** ****** ****** ****** ******
      ****** ****** ****** ****** ****** ****** ****** ****** ****** ******
   9  ****** ****** ****** ****** ****** ****** ****** ****** ****** ******
      ****** ****** ****** ****** ****** ****** ****** ****** ****** ******
      ****** ****** ****** ****** ****** ****** ****** ****** ****** ******
  10  ****** ****** ****** ****** ****** ****** ****** ****** ****** ******
      ****** ****** ****** ****** ****** ****** ****** ****** ****** ******
      ****** ****** ****** ****** ****** ****** ****** ****** ****** ******
  11  ****** ****** ****** ****** ****** ****** ****** ****** ****** ******
      ****** ****** ****** ****** ****** ****** ****** ****** ****** ******
      ****** ****** ****** ****** ****** ****** ****** ****** ****** ******
  12  ****** ****** ****** ****** ****** ****** ****** ****** ****** ******
      ****** ****** ****** ****** ****** ****** ****** ****** ****** ******
      ****** ****** ****** ****** ****** ****** ****** ****** ****** ******
  13  ****** ****** ****** ****** ****** ****** ****** ****** ****** ******
      ****** ****** ****** ****** ****** ****** ****** ****** ****** ******
      ****** ****** ****** ****** ****** ****** ****** ****** ****** ******
  14  ****** ****** ****** ****** ****** ****** ****** ****** ****** ******
      ****** ****** ****** ****** ****** ****** ****** ****** ****** ******
      ****** ****** ****** ****** ****** ****** ****** ****** ****** ******
  15  ****** ****** ****** ****** ****** ****** ****** ****** ****** ******
      ****** ****** ****** ****** ****** ****** ****** ****** ****** ******
      ****** ****** ****** ****** ****** ****** ****** ****** ****** ******
  16  ****** ****** ****** ****** ****** ****** ****** ****** ****** ******
      ****** ****** ****** ****** ****** ****** ****** ****** ****** ******
      ****** ****** ****** ****** ****** ****** ****** ****** ****** ******
  17  ****** ****** ****** ****** ****** ****** ****** ****** ****** ******
      ****** ****** ****** ****** ****** ****** ****** ****** ****** ******
      ****** ****** ****** ****** ****** ****** ****** ****** ****** ******
  18  ****** ****** ****** ****** ****** ****** ****** ****** ****** ******
      ****** ****** ****** ****** ****** ****** ****** ****** ****** ******
      ****** ****** ****** ****** ****** ****** ****** ****** ****** ******
  19  ****** ****** ****** ****** ****** ****** ****** ****** ****** ******
      ****** ****** ****** ****** ****** ****** ****** ****** ****** ******
      ****** ****** ****** ****** ****** ****** ****** ****** ****** ******
  20  ****** ****** ****** ****** ****** ****** ****** ****** ****** ******
      ****** ****** ****** ****** ****** ****** ****** ****** ****** ******
      ****** ****** ****** ****** ****** ****** ****** ****** ****** ******
  21  ****** ****** ****** ****** ****** ****** ****** ****** ****** ******
      ****** ****** ****** ****** ****** ****** ****** ****** ****** ******
      ****** ****** ****** ****** ****** ****** ****** ****** ****** ******
  22  ****** ****** ****** ****** ****** ****** ****** ****** ****** ******
      ****** ****** ****** ****** ****** ****** ****** ****** ****** ******
      ****** ****** ****** ****** ****** ****** ****** ****** ****** ******
  23  ****** ****** ****** ****** ****** ****** ****** ****** ****** ******
      ****** ****** ****** ****** ****** ****** ****** ****** ****** ******
      ****** ****** ****** ****** ****** ****** ****** ****** ****** ******
  24  ****** ****** ****** ****** ****** ****** ****** ****** ****** ******
      ****** ****** ****** ****** ****** ****** ****** ****** ****** ******
      ****** ****** ****** ****** ****** ****** ****** ****** ****** ******
  25  ****** ****** ****** ****** ****** ****** ****** ****** ****** ******
      ****** ****** ****** ****** ****** ****** ****** ****** ****** ******
      ****** ****** ****** ****** ****** ****** ****** ****** ****** ******

 HEAD WILL BE SAVED ON UNIT   51 AT END OF TIME STEP    1, STRESS PERIOD    5
1
  VOLUMETRIC BUDGET FOR ENTIRE MODEL AT END OF TIME STEP    1, STRESS PERIOD   5
  ------------------------------------------------------------------------------

     CUMULATIVE VOLUMES      L**3       RATES FOR THIS TIME STEP      L**3/T
     ------------------                 ------------------------

           IN:                                      IN:
           ---                                      ---
             STORAGE =    31029370.3268               STORAGE =       18058.9795
       CONSTANT HEAD =    10418024.5139         CONSTANT HEAD =       30992.3398
               WELLS =           0.0000                 WELLS =           0.0000
            RECHARGE =    10074000.0000              RECHARGE =       13800.0000
      STREAM LEAKAGE =     4748958.4890        STREAM LEAKAGE =       15759.4312

            TOTAL IN =    56270353.3297              TOTAL IN =       78610.7505

          OUT:                                     OUT:
          ----                                     ----
             STORAGE =         591.3922               STORAGE =           0.0000
       CONSTANT HEAD =           0.0000         CONSTANT HEAD =           0.0000
               WELLS =    19712106.4735                 WELLS =       43133.7122
            RECHARGE =           0.0000              RECHARGE =           0.0000
      STREAM LEAKAGE =    36557657.8303        STREAM LEAKAGE =       35477.0415

           TOTAL OUT =    56270355.6960             TOTAL OUT =       78610.7537

            IN - OUT =          -2.3663              IN - OUT =      -3.1917E-03

 PERCENT DISCREPANCY =          -0.00     PERCENT DISCREPANCY =          -0.00






         TIME SUMMARY AT END OF TIME STEP    1 IN STRESS PERIOD    5
                    SECONDS     MINUTES      HOURS       DAYS        YEARS
                    -----------------------------------------------------------
   TIME STEP LENGTH 7.94880E+06 1.32480E+05  2208.0      92.000     0.25188    
 STRESS PERIOD TIME 7.94880E+06 1.32480E+05  2208.0      92.000     0.25188    
         TOTAL TIME 3.94848E+07 6.58080E+05  10968.      457.00      1.2512    
1
1
                            STRESS PERIOD NO.    6, LENGTH =   91.00000    
                            -----------------------------------------------

                              NUMBER OF TIME STEPS =     1

                               MULTIPLIER FOR DELT =     1.500

                            INITIAL TIME STEP SIZE =   91.00000    

 WELL NO.  LAYER   ROW   COL   STRESS RATE         
 --------------------------------------------------
      1      1     15     19     -0.1065E+05
      2      1     15     28      -8067.    
      3      1     19     14      -9238.    
      4      1      9     25     -0.1518E+05

      4 WELLS

                 RECHARGE =  2.000000E-03

 REUSING STREAM SEGMENT DATA FROM LAST STRESS PERIOD
 
 SOLVING FOR HEAD 


     7 CALLS TO PCG ROUTINE FOR TIME STEP   1 IN STRESS PERIOD    6
    26 TOTAL ITERATIONS

 OUTPUT CONTROL FOR STRESS PERIOD    6   TIME STEP    1
    SAVE BUDGET
    SAVE HEAD FOR ALL LAYERS
    PRINT HEAD FOR ALL LAYERS
 UBDSV2 SAVING "STREAMFLOW OUT  " ON UNIT  50 AT TIME STEP  1, STRESS PERIOD   6



 STREAM LISTING     PERIOD      6   STEP        1

 LAYER ROW COL. STREAM  RCH.  FLOW INTO     FLOW TO   FLOW OUT OF   OVRLND.     DIRECT     STREAM       STREAM     STREAM     STREAM   STREAMBED  STREAMBED
                SEG.NO.  NO.  STRM. RCH.    AQUIFER    STRM. RCH.    RUNOFF     PRECIP       ET          HEAD       DEPTH      WIDTH   CONDCTNC.   GRADIENT

   1   13    1     1     1    1.0000E+05 -2.4266E+03   1.0243E+05  0.000E+00  0.000E+00  0.000E+00  4.84071E+01  1.457E-01  2.000E+01  2.000E+04 -1.213E-01
   1   13    2     1     2    1.0243E+05 -3.4798E+03   1.0591E+05  0.000E+00  0.000E+00  0.000E+00  4.79323E+01  1.482E-01  2.000E+01  2.000E+04 -1.740E-01
   1   14    3     1     3    1.0591E+05 -6.5128E+02   1.0656E+05  0.000E+00  0.000E+00  0.000E+00  4.74568E+01  1.500E-01  2.000E+01  2.000E+04 -3.256E-02
   1   15    4     1     4    1.0656E+05 -6.1853E+02   1.0718E+05  0.000E+00  0.000E+00  0.000E+00  4.69801E+01  1.505E-01  2.000E+01  2.000E+04 -3.093E-02
   1   16    5     1     5    1.0718E+05 -1.9941E+03   1.0917E+05  0.000E+00  0.000E+00  0.000E+00  4.65039E+01  1.516E-01  2.000E+01  2.000E+04 -9.970E-02
   1   16    6     1     6    1.0917E+05 -1.2292E+03   1.1040E+05  0.000E+00  0.000E+00  0.000E+00  4.60280E+01  1.530E-01  2.000E+01  2.000E+04 -6.146E-02
   1   16    7     1     7    1.1040E+05 -1.1617E+03   1.1156E+05  0.000E+00  0.000E+00  0.000E+00  4.55517E+01  1.540E-01  2.000E+01  2.000E+04 -5.808E-02
   1   16    8     1     8    1.1156E+05 -1.0918E+03   1.1265E+05  0.000E+00  0.000E+00  0.000E+00  4.50754E+01  1.549E-01  2.000E+01  2.000E+04 -5.459E-02
   1   16    9     1     9    1.1265E+05 -9.8854E+02   1.1364E+05  0.000E+00  0.000E+00  0.000E+00  4.45990E+01  1.558E-01  2.000E+01  2.000E+04 -4.943E-02
   1   16   10     1    10    1.1364E+05 -8.3424E+02   1.1448E+05  0.000E+00  0.000E+00  0.000E+00  4.41224E+01  1.565E-01  2.000E+01  2.000E+04 -4.171E-02
   1   16   11     1    11    1.1448E+05 -6.0766E+02   1.1508E+05  0.000E+00  0.000E+00  0.000E+00  4.36458E+01  1.571E-01  2.000E+01  2.000E+04 -3.038E-02
   1   16   12     1    12    1.1508E+05 -5.5479E+02   1.1564E+05  0.000E+00  0.000E+00  0.000E+00  4.31690E+01  1.576E-01  2.000E+01  2.000E+04 -2.774E-02
   1   15   13     1    13    1.1564E+05 -9.3506E+02   1.1657E+05  0.000E+00  0.000E+00  0.000E+00  4.26923E+01  1.582E-01  2.000E+01  2.000E+04 -4.675E-02
   1   14   14     1    14    1.1657E+05 -1.4689E+03   1.1804E+05  0.000E+00  0.000E+00  0.000E+00  4.22160E+01  1.592E-01  2.000E+01  2.000E+04 -7.345E-02
   1   13   15     1    15    1.1804E+05 -1.9671E+03   1.2001E+05  0.000E+00  0.000E+00  0.000E+00  4.17401E+01  1.606E-01  2.000E+01  2.000E+04 -9.836E-02
   1   12   16     1    16    1.2001E+05 -3.0630E+03   1.2307E+05  0.000E+00  0.000E+00  0.000E+00  4.12649E+01  1.626E-01  2.000E+01  2.000E+04 -1.532E-01
   1   12   17     1    17    1.2307E+05 -1.5899E+03   1.2466E+05  0.000E+00  0.000E+00  0.000E+00  4.07895E+01  1.645E-01  2.000E+01  2.000E+04 -7.950E-02
   1   12   18     1    18    1.2466E+05 -1.2551E+03   1.2592E+05  0.000E+00  0.000E+00  0.000E+00  4.03133E+01  1.656E-01  2.000E+01  2.000E+04 -6.276E-02
   1   12   19     1    19    1.2592E+05 -1.6984E+03   1.2762E+05  0.000E+00  0.000E+00  0.000E+00  3.98372E+01  1.668E-01  2.000E+01  2.000E+04 -8.492E-02
   1   13   20     1    20    1.2762E+05  2.7663E+01   1.2759E+05  0.000E+00  0.000E+00  0.000E+00  3.93606E+01  1.674E-01  2.000E+01  2.000E+04  1.383E-03
   1   14   21     1    21    1.2759E+05  5.2042E+02   1.2707E+05  0.000E+00  0.000E+00  0.000E+00  3.88831E+01  1.672E-01  2.000E+01  2.000E+04  2.602E-02
   1   14   22     1    22    1.2707E+05  5.1895E+03   1.2188E+05  0.000E+00  0.000E+00  0.000E+00  3.84036E+01  1.650E-01  2.000E+01  2.000E+04  2.595E-01
   1    9   30     2     1    5.0000E+04 -2.5229E+02   5.0252E+04  0.000E+00  0.000E+00  0.000E+00  4.02410E+01  1.160E-01  2.000E+01  2.000E+04 -1.261E-02
   1    9   29     2     2    5.0252E+04 -5.1420E+02   5.0766E+04  0.000E+00  0.000E+00  0.000E+00  3.99916E+01  1.166E-01  2.000E+01  2.000E+04 -2.571E-02
   1    9   28     2     3    5.0766E+04 -6.2362E+02   5.1390E+04  0.000E+00  0.000E+00  0.000E+00  3.97424E+01  1.174E-01  2.000E+01  2.000E+04 -3.118E-02
   1    9   27     2     4    5.1390E+04  1.8848E+02   5.1202E+04  0.000E+00  0.000E+00  0.000E+00  3.94927E+01  1.177E-01  2.000E+01  2.000E+04  9.424E-03
   1   10   26     2     5    5.1202E+04  2.3281E+03   4.8874E+04  0.000E+00  0.000E+00  0.000E+00  3.92409E+01  1.159E-01  2.000E+01  2.000E+04  1.164E-01
   1   11   25     2     6    4.8874E+04  1.1059E+03   4.7768E+04  0.000E+00  0.000E+00  0.000E+00  3.89885E+01  1.135E-01  2.000E+01  2.000E+04  5.530E-02
   1   12   24     2     7    4.7768E+04 -7.6715E+02   4.8535E+04  0.000E+00  0.000E+00  0.000E+00  3.87383E+01  1.133E-01  2.000E+01  2.000E+04 -3.836E-02
   1   13   23     2     8    4.8535E+04 -2.7115E+02   4.8806E+04  0.000E+00  0.000E+00  0.000E+00  3.84890E+01  1.140E-01  2.000E+01  2.000E+04 -1.356E-02
   1   14   22     2     9    4.8806E+04  1.8752E+03   4.6931E+04  0.000E+00  0.000E+00  0.000E+00  3.82379E+01  1.129E-01  2.000E+01  2.000E+04  9.376E-02
   1   14   22     3     1    1.6881E+05 -8.4355E+03   1.7724E+05  0.000E+00  0.000E+00  0.000E+00  3.77223E+01  1.668E-01  2.000E+01  2.000E+04 -4.218E-01
   1   15   23     3     2    1.7724E+05 -4.2144E+02   1.7767E+05  0.000E+00  0.000E+00  0.000E+00  3.68360E+01  1.693E-01  2.000E+01  2.000E+04 -2.107E-02
   1   15   24     3     3    1.7767E+05 -3.3149E+02   1.7800E+05  0.000E+00  0.000E+00  0.000E+00  3.59473E+01  1.696E-01  2.000E+01  2.000E+04 -1.657E-02
   1   15   25     3     4    1.7800E+05 -3.2637E+02   1.7832E+05  0.000E+00  0.000E+00  0.000E+00  3.50586E+01  1.697E-01  2.000E+01  2.000E+04 -1.632E-02
   1   15   26     3     5    1.7832E+05 -1.0159E+02   1.7843E+05  0.000E+00  0.000E+00  0.000E+00  3.41699E+01  1.699E-01  2.000E+01  2.000E+04 -5.079E-03
   1   16   27     3     6    1.7843E+05  2.0766E+02   1.7822E+05  0.000E+00  0.000E+00  0.000E+00  3.32809E+01  1.698E-01  2.000E+01  2.000E+04  1.038E-02
   1   17   28     3     7    1.7822E+05  1.0892E+03   1.7713E+05  0.000E+00  0.000E+00  0.000E+00  3.23917E+01  1.695E-01  2.000E+01  2.000E+04  5.446E-02
   1   18   29     3     8    1.7713E+05 -2.4296E+03   1.7956E+05  0.000E+00  0.000E+00  0.000E+00  3.15032E+01  1.698E-01  2.000E+01  2.000E+04 -1.215E-01
   1   18   30     3     9    1.7956E+05 -2.5875E+03   1.8215E+05  0.000E+00  0.000E+00  0.000E+00  3.06157E+01  1.713E-01  2.000E+01  2.000E+04 -1.294E-01



1
              HEAD IN LAYER   1 AT END OF TIME STEP   1 IN STRESS PERIOD    6
  ---------------------------------------------------------------------------

          1      2      3      4      5      6      7      8      9     10
         11     12     13     14     15     16     17     18     19     20
         21     22     23     24     25     26     27     28     29     30
 .........................................................................
   1  ****** ****** ****** ****** ****** ****** ****** ****** ****** ******
      ****** ****** ****** ****** ****** ****** ****** ****** ****** ******
      ****** ****** ****** ****** ****** ****** ****** ****** ****** ******
   2  ****** ****** ****** ****** ****** ****** ****** ****** ****** ******
      ****** ****** ****** ****** ****** ****** ****** ****** ****** ******
      ****** ****** ****** ****** ****** ****** ****** ****** ****** ******
   3  ****** ****** ****** ****** ****** ****** ****** ****** ****** ******
      ****** ****** ****** ****** ****** ****** ****** ****** ****** ******
      ****** ****** ****** ****** ****** ****** ****** ****** ****** ******
   4  ****** ****** ****** ****** ****** ****** ****** ****** ****** ******
      ****** ****** ****** ****** ****** ****** ****** ****** ****** ******
      ****** ****** ****** ****** ****** ****** ****** ****** ****** ******
   5  ****** ****** ****** ****** ****** ****** ****** ****** ****** ******
      ****** ****** ****** ****** ****** ****** ****** ****** ****** ******
      ****** ****** ****** ****** ****** ****** ****** ****** ****** ******
   6  ****** ****** ****** ****** ****** ****** ****** ****** ****** ******
      ****** ****** ****** ****** ****** ****** ****** ****** ****** ******
      ****** ****** ****** ****** ****** ****** ****** ****** ****** ******
   7  ****** ****** ****** ****** ****** ****** ****** ****** ****** ******
      ****** ****** ****** ****** ****** ****** ****** ****** ****** ******
      ****** ****** ****** ****** ****** ****** ****** ****** ****** ******
   8  ****** ****** ****** ****** ****** ****** ****** ****** ****** ******
      ****** ****** ****** ****** ****** ****** ****** ****** ****** ******
      ****** ****** ****** ****** ****** ****** ****** ****** ****** ******
   9  ****** ****** ****** ****** ****** ****** ****** ****** ****** ******
      ****** ****** ****** ****** ****** ****** ****** ****** ****** ******
      ****** ****** ****** ****** ****** ****** ****** ****** ****** ******
  10  ****** ****** ****** ****** ****** ****** ****** ****** ****** ******
      ****** ****** ****** ****** ****** ****** ****** ****** ****** ******
      ****** ****** ****** ****** ****** ****** ****** ****** ****** ******
  11  ****** ****** ****** ****** ****** ****** ****** ****** ****** ******
      ****** ****** ****** ****** ****** ****** ****** ****** ****** ******
      ****** ****** ****** ****** ****** ****** ****** ****** ****** ******
  12  ****** ****** ****** ****** ****** ****** ****** ****** ****** ******
      ****** ****** ****** ****** ****** ****** ****** ****** ****** ******
      ****** ****** ****** ****** ****** ****** ****** ****** ****** ******
  13  ****** ****** ****** ****** ****** ****** ****** ****** ****** ******
      ****** ****** ****** ****** ****** ****** ****** ****** ****** ******
      ****** ****** ****** ****** ****** ****** ****** ****** ****** ******
  14  ****** ****** ****** ****** ****** ****** ****** ****** ****** ******
      ****** ****** ****** ****** ****** ****** ****** ****** ****** ******
      ****** ****** ****** ****** ****** ****** ****** ****** ****** ******
  15  ****** ****** ****** ****** ****** ****** ****** ****** ****** ******
      ****** ****** ****** ****** ****** ****** ****** ****** ****** ******
      ****** ****** ****** ****** ****** ****** ****** ****** ****** ******
  16  ****** ****** ****** ****** ****** ****** ****** ****** ****** ******
      ****** ****** ****** ****** ****** ****** ****** ****** ****** ******
      ****** ****** ****** ****** ****** ****** ****** ****** ****** ******
  17  ****** ****** ****** ****** ****** ****** ****** ****** ****** ******
      ****** ****** ****** ****** ****** ****** ****** ****** ****** ******
      ****** ****** ****** ****** ****** ****** ****** ****** ****** ******
  18  ****** ****** ****** ****** ****** ****** ****** ****** ****** ******
      ****** ****** ****** ****** ****** ****** ****** ****** ****** ******
      ****** ****** ****** ****** ****** ****** ****** ****** ****** ******
  19  ****** ****** ****** ****** ****** ****** ****** ****** ****** ******
      ****** ****** ****** ****** ****** ****** ****** ****** ****** ******
      ****** ****** ****** ****** ****** ****** ****** ****** ****** ******
  20  ****** ****** ****** ****** ****** ****** ****** ****** ****** ******
      ****** ****** ****** ****** ****** ****** ****** ****** ****** ******
      ****** ****** ****** ****** ****** ****** ****** ****** ****** ******
  21  ****** ****** ****** ****** ****** ****** ****** ****** ****** ******
      ****** ****** ****** ****** ****** ****** ****** ****** ****** ******
      ****** ****** ****** ****** ****** ****** ****** ****** ****** ******
  22  ****** ****** ****** ****** ****** ****** ****** ****** ****** ******
      ****** ****** ****** ****** ****** ****** ****** ****** ****** ******
      ****** ****** ****** ****** ****** ****** ****** ****** ****** ******
  23  ****** ****** ****** ****** ****** ****** ****** ****** ****** ******
      ****** ****** ****** ****** ****** ****** ****** ****** ****** ******
      ****** ****** ****** ****** ****** ****** ****** ****** ****** ******
  24  ****** ****** ****** ****** ****** ****** ****** ****** ****** ******
      ****** ****** ****** ****** ****** ****** ****** ****** ****** ******
      ****** ****** ****** ****** ****** ****** ****** ****** ****** ******
  25  ****** ****** ****** ****** ****** ****** ****** ****** ****** ******
      ****** ****** ****** ****** ****** ****** ****** ****** ****** ******
      ****** ****** ****** ****** ****** ****** ****** ****** ****** ******

 HEAD WILL BE SAVED ON UNIT   51 AT END OF TIME STEP    1, STRESS PERIOD    6
1
  VOLUMETRIC BUDGET FOR ENTIRE MODEL AT END OF TIME STEP    1, STRESS PERIOD   6
  ------------------------------------------------------------------------------

     CUMULATIVE VOLUMES      L**3       RATES FOR THIS TIME STEP      L**3/T
     ------------------                 ------------------------

           IN:                                      IN:
           ---                                      ---
             STORAGE =    31029370.3268               STORAGE =           0.0000
       CONSTANT HEAD =    13063491.5578         CONSTANT HEAD =       29071.0664
               WELLS =           0.0000                 WELLS =           0.0000
            RECHARGE =    15097200.0000              RECHARGE =       55200.0000
      STREAM LEAKAGE =     5889382.4827        STREAM LEAKAGE =       12532.1318

            TOTAL IN =    65079444.3674              TOTAL IN =       96803.1982

          OUT:                                     OUT:
          ----                                     ----
             STORAGE =      818855.4276               STORAGE =        8991.9125
       CONSTANT HEAD =           0.0000         CONSTANT HEAD =           0.0000
               WELLS =    23637274.2833                 WELLS =       43133.7122
            RECHARGE =           0.0000              RECHARGE =           0.0000
      STREAM LEAKAGE =    40623316.7517        STREAM LEAKAGE =       44677.5706

           TOTAL OUT =    65079446.4626             TOTAL OUT =       96803.1952

            IN - OUT =          -2.0953              IN - OUT =       2.9780E-03

 PERCENT DISCREPANCY =          -0.00     PERCENT DISCREPANCY =           0.00






         TIME SUMMARY AT END OF TIME STEP    1 IN STRESS PERIOD    6
                    SECONDS     MINUTES      HOURS       DAYS        YEARS
                    -----------------------------------------------------------
   TIME STEP LENGTH 7.86240E+06 1.31040E+05  2184.0      91.000     0.24914    
 STRESS PERIOD TIME 7.86240E+06 1.31040E+05  2184.0      91.000     0.24914    
         TOTAL TIME 4.73472E+07 7.89120E+05  13152.      548.00      1.5003    
1
1
                            STRESS PERIOD NO.    7, LENGTH =   91.00000    
                            -----------------------------------------------

                              NUMBER OF TIME STEPS =     1

                               MULTIPLIER FOR DELT =     1.500

                            INITIAL TIME STEP SIZE =   91.00000    

 WELL NO.  LAYER   ROW   COL   STRESS RATE         
 --------------------------------------------------
      1      1     15     19     -0.1065E+05
      2      1     15     28      -8067.    
      3      1     19     14      -9238.    
      4      1      9     25     -0.1518E+05

      4 WELLS

                 RECHARGE =   0.00000    

 REUSING STREAM SEGMENT DATA FROM LAST STRESS PERIOD
 
 SOLVING FOR HEAD 


     7 CALLS TO PCG ROUTINE FOR TIME STEP   1 IN STRESS PERIOD    7
    26 TOTAL ITERATIONS

 OUTPUT CONTROL FOR STRESS PERIOD    7   TIME STEP    1
    SAVE BUDGET
    SAVE HEAD FOR ALL LAYERS
    PRINT HEAD FOR ALL LAYERS
 UBDSV2 SAVING "STREAMFLOW OUT  " ON UNIT  50 AT TIME STEP  1, STRESS PERIOD   7



 STREAM LISTING     PERIOD      7   STEP        1

 LAYER ROW COL. STREAM  RCH.  FLOW INTO     FLOW TO   FLOW OUT OF   OVRLND.     DIRECT     STREAM       STREAM     STREAM     STREAM   STREAMBED  STREAMBED
                SEG.NO.  NO.  STRM. RCH.    AQUIFER    STRM. RCH.    RUNOFF     PRECIP       ET          HEAD       DEPTH      WIDTH   CONDCTNC.   GRADIENT

   1   13    1     1     1    1.0000E+05 -1.7662E+03   1.0177E+05  0.000E+00  0.000E+00  0.000E+00  4.84068E+01  1.454E-01  2.000E+01  2.000E+04 -8.831E-02
   1   13    2     1     2    1.0177E+05 -2.7413E+03   1.0451E+05  0.000E+00  0.000E+00  0.000E+00  4.79314E+01  1.474E-01  2.000E+01  2.000E+04 -1.371E-01
   1   14    3     1     3    1.0451E+05 -4.0004E+02   1.0491E+05  0.000E+00  0.000E+00  0.000E+00  4.74555E+01  1.487E-01  2.000E+01  2.000E+04 -2.000E-02
   1   15    4     1     4    1.0491E+05 -3.5613E+02   1.0526E+05  0.000E+00  0.000E+00  0.000E+00  4.69786E+01  1.490E-01  2.000E+01  2.000E+04 -1.781E-02
   1   16    5     1     5    1.0526E+05 -1.2374E+03   1.0650E+05  0.000E+00  0.000E+00  0.000E+00  4.65020E+01  1.497E-01  2.000E+01  2.000E+04 -6.187E-02
   1   16    6     1     6    1.0650E+05 -7.7340E+02   1.0727E+05  0.000E+00  0.000E+00  0.000E+00  4.60256E+01  1.506E-01  2.000E+01  2.000E+04 -3.867E-02
   1   16    7     1     7    1.0727E+05 -7.2447E+02   1.0800E+05  0.000E+00  0.000E+00  0.000E+00  4.55489E+01  1.512E-01  2.000E+01  2.000E+04 -3.622E-02
   1   16    8     1     8    1.0800E+05 -6.6047E+02   1.0866E+05  0.000E+00  0.000E+00  0.000E+00  4.50722E+01  1.518E-01  2.000E+01  2.000E+04 -3.302E-02
   1   16    9     1     9    1.0866E+05 -5.6011E+02   1.0922E+05  0.000E+00  0.000E+00  0.000E+00  4.45955E+01  1.523E-01  2.000E+01  2.000E+04 -2.801E-02
   1   16   10     1    10    1.0922E+05 -4.0789E+02   1.0963E+05  0.000E+00  0.000E+00  0.000E+00  4.41186E+01  1.527E-01  2.000E+01  2.000E+04 -2.039E-02
   1   16   11     1    11    1.0963E+05 -1.7950E+02   1.0981E+05  0.000E+00  0.000E+00  0.000E+00  4.36416E+01  1.529E-01  2.000E+01  2.000E+04 -8.975E-03
   1   16   12     1    12    1.0981E+05  1.6494E+02   1.0964E+05  0.000E+00  0.000E+00  0.000E+00  4.31643E+01  1.529E-01  2.000E+01  2.000E+04  8.247E-03
   1   15   13     1    13    1.0964E+05 -1.6666E+02   1.0981E+05  0.000E+00  0.000E+00  0.000E+00  4.26870E+01  1.529E-01  2.000E+01  2.000E+04 -8.333E-03
   1   14   14     1    14    1.0981E+05 -6.7483E+02   1.1048E+05  0.000E+00  0.000E+00  0.000E+00  4.22101E+01  1.533E-01  2.000E+01  2.000E+04 -3.374E-02
   1   13   15     1    15    1.1048E+05 -1.1729E+03   1.1166E+05  0.000E+00  0.000E+00  0.000E+00  4.17336E+01  1.541E-01  2.000E+01  2.000E+04 -5.864E-02
   1   12   16     1    16    1.1166E+05 -2.2783E+03   1.1393E+05  0.000E+00  0.000E+00  0.000E+00  4.12578E+01  1.555E-01  2.000E+01  2.000E+04 -1.139E-01
   1   12   17     1    17    1.1393E+05 -1.0169E+03   1.1495E+05  0.000E+00  0.000E+00  0.000E+00  4.07818E+01  1.568E-01  2.000E+01  2.000E+04 -5.084E-02
   1   12   18     1    18    1.1495E+05 -6.9535E+02   1.1565E+05  0.000E+00  0.000E+00  0.000E+00  4.03053E+01  1.576E-01  2.000E+01  2.000E+04 -3.477E-02
   1   12   19     1    19    1.1565E+05 -1.0149E+03   1.1666E+05  0.000E+00  0.000E+00  0.000E+00  3.98287E+01  1.583E-01  2.000E+01  2.000E+04 -5.074E-02
   1   13   20     1    20    1.1666E+05  6.9750E+02   1.1596E+05  0.000E+00  0.000E+00  0.000E+00  3.93516E+01  1.584E-01  2.000E+01  2.000E+04  3.487E-02
   1   14   21     1    21    1.1596E+05  1.1850E+03   1.1478E+05  0.000E+00  0.000E+00  0.000E+00  3.88735E+01  1.576E-01  2.000E+01  2.000E+04  5.925E-02
   1   14   22     1    22    1.1478E+05  5.3511E+03   1.0943E+05  0.000E+00  0.000E+00  0.000E+00  3.83936E+01  1.549E-01  2.000E+01  2.000E+04  2.676E-01
   1    9   30     2     1    5.0000E+04  2.6084E+02   4.9739E+04  0.000E+00  0.000E+00  0.000E+00  4.02407E+01  1.157E-01  2.000E+01  2.000E+04  1.304E-02
   1    9   29     2     2    4.9739E+04 -2.9265E+00   4.9742E+04  0.000E+00  0.000E+00  0.000E+00  3.99905E+01  1.155E-01  2.000E+01  2.000E+04 -1.463E-04
   1    9   28     2     3    4.9742E+04 -1.1119E+02   4.9853E+04  0.000E+00  0.000E+00  0.000E+00  3.97406E+01  1.156E-01  2.000E+01  2.000E+04 -5.560E-03
   1    9   27     2     4    4.9853E+04  8.8381E+02   4.8969E+04  0.000E+00  0.000E+00  0.000E+00  3.94900E+01  1.150E-01  2.000E+01  2.000E+04  4.419E-02
   1   10   26     2     5    4.8969E+04  3.0254E+03   4.5944E+04  0.000E+00  0.000E+00  0.000E+00  3.92373E+01  1.123E-01  2.000E+01  2.000E+04  1.513E-01
   1   11   25     2     6    4.5944E+04  1.7745E+03   4.4170E+04  0.000E+00  0.000E+00  0.000E+00  3.89839E+01  1.089E-01  2.000E+01  2.000E+04  8.872E-02
   1   12   24     2     7    4.4170E+04 -1.5794E+02   4.4328E+04  0.000E+00  0.000E+00  0.000E+00  3.87327E+01  1.077E-01  2.000E+01  2.000E+04 -7.897E-03
   1   13   23     2     8    4.4328E+04 -7.9666E+01   4.4407E+04  0.000E+00  0.000E+00  0.000E+00  3.84828E+01  1.078E-01  2.000E+01  2.000E+04 -3.983E-03
   1   14   22     2     9    4.4407E+04  2.1073E+03   4.2300E+04  0.000E+00  0.000E+00  0.000E+00  3.82314E+01  1.064E-01  2.000E+01  2.000E+04  1.054E-01
   1   14   22     3     1    1.5173E+05 -8.2757E+03   1.6000E+05  0.000E+00  0.000E+00  0.000E+00  3.77122E+01  1.567E-01  2.000E+01  2.000E+04 -4.138E-01
   1   15   23     3     2    1.6000E+05 -2.1423E+02   1.6022E+05  0.000E+00  0.000E+00  0.000E+00  3.68259E+01  1.592E-01  2.000E+01  2.000E+04 -1.071E-02
   1   15   24     3     3    1.6022E+05 -1.5750E+02   1.6038E+05  0.000E+00  0.000E+00  0.000E+00  3.59371E+01  1.593E-01  2.000E+01  2.000E+04 -7.875E-03
   1   15   25     3     4    1.6038E+05 -1.4938E+02   1.6052E+05  0.000E+00  0.000E+00  0.000E+00  3.50483E+01  1.594E-01  2.000E+01  2.000E+04 -7.469E-03
   1   15   26     3     5    1.6052E+05  9.9800E+01   1.6043E+05  0.000E+00  0.000E+00  0.000E+00  3.41594E+01  1.594E-01  2.000E+01  2.000E+04  4.990E-03
   1   16   27     3     6    1.6043E+05  4.4031E+02   1.5998E+05  0.000E+00  0.000E+00  0.000E+00  3.32704E+01  1.593E-01  2.000E+01  2.000E+04  2.202E-02
   1   17   28     3     7    1.5998E+05  1.7318E+03   1.5825E+05  0.000E+00  0.000E+00  0.000E+00  3.23808E+01  1.586E-01  2.000E+01  2.000E+04  8.659E-02
   1   18   29     3     8    1.5825E+05 -1.7410E+03   1.5999E+05  0.000E+00  0.000E+00  0.000E+00  3.14919E+01  1.586E-01  2.000E+01  2.000E+04 -8.705E-02
   1   18   30     3     9    1.5999E+05 -2.0576E+03   1.6205E+05  0.000E+00  0.000E+00  0.000E+00  3.06042E+01  1.597E-01  2.000E+01  2.000E+04 -1.029E-01



1
              HEAD IN LAYER   1 AT END OF TIME STEP   1 IN STRESS PERIOD    7
  ---------------------------------------------------------------------------

          1      2      3      4      5      6      7      8      9     10
         11     12     13     14     15     16     17     18     19     20
         21     22     23     24     25     26     27     28     29     30
 .........................................................................
   1  ****** ****** ****** ****** ****** ****** ****** ****** ****** ******
      ****** ****** ****** ****** ****** ****** ****** ****** ****** ******
      ****** ****** ****** ****** ****** ****** ****** ****** ****** ******
   2  ****** ****** ****** ****** ****** ****** ****** ****** ****** ******
      ****** ****** ****** ****** ****** ****** ****** ****** ****** ******
      ****** ****** ****** ****** ****** ****** ****** ****** ****** ******
   3  ****** ****** ****** ****** ****** ****** ****** ****** ****** ******
      ****** ****** ****** ****** ****** ****** ****** ****** ****** ******
      ****** ****** ****** ****** ****** ****** ****** ****** ****** ******
   4  ****** ****** ****** ****** ****** ****** ****** ****** ****** ******
      ****** ****** ****** ****** ****** ****** ****** ****** ****** ******
      ****** ****** ****** ****** ****** ****** ****** ****** ****** ******
   5  ****** ****** ****** ****** ****** ****** ****** ****** ****** ******
      ****** ****** ****** ****** ****** ****** ****** ****** ****** ******
      ****** ****** ****** ****** ****** ****** ****** ****** ****** ******
   6  ****** ****** ****** ****** ****** ****** ****** ****** ****** ******
      ****** ****** ****** ****** ****** ****** ****** ****** ****** ******
      ****** ****** ****** ****** ****** ****** ****** ****** ****** ******
   7  ****** ****** ****** ****** ****** ****** ****** ****** ****** ******
      ****** ****** ****** ****** ****** ****** ****** ****** ****** ******
      ****** ****** ****** ****** ****** ****** ****** ****** ****** ******
   8  ****** ****** ****** ****** ****** ****** ****** ****** ****** ******
      ****** ****** ****** ****** ****** ****** ****** ****** ****** ******
      ****** ****** ****** ****** ****** ****** ****** ****** ****** ******
   9  ****** ****** ****** ****** ****** ****** ****** ****** ****** ******
      ****** ****** ****** ****** ****** ****** ****** ****** ****** ******
      ****** ****** ****** ****** ****** ****** ****** ****** ****** ******
  10  ****** ****** ****** ****** ****** ****** ****** ****** ****** ******
      ****** ****** ****** ****** ****** ****** ****** ****** ****** ******
      ****** ****** ****** ****** ****** ****** ****** ****** ****** ******
  11  ****** ****** ****** ****** ****** ****** ****** ****** ****** ******
      ****** ****** ****** ****** ****** ****** ****** ****** ****** ******
      ****** ****** ****** ****** ****** ****** ****** ****** ****** ******
  12  ****** ****** ****** ****** ****** ****** ****** ****** ****** ******
      ****** ****** ****** ****** ****** ****** ****** ****** ****** ******
      ****** ****** ****** ****** ****** ****** ****** ****** ****** ******
  13  ****** ****** ****** ****** ****** ****** ****** ****** ****** ******
      ****** ****** ****** ****** ****** ****** ****** ****** ****** ******
      ****** ****** ****** ****** ****** ****** ****** ****** ****** ******
  14  ****** ****** ****** ****** ****** ****** ****** ****** ****** ******
      ****** ****** ****** ****** ****** ****** ****** ****** ****** ******
      ****** ****** ****** ****** ****** ****** ****** ****** ****** ******
  15  ****** ****** ****** ****** ****** ****** ****** ****** ****** ******
      ****** ****** ****** ****** ****** ****** ****** ****** ****** ******
      ****** ****** ****** ****** ****** ****** ****** ****** ****** ******
  16  ****** ****** ****** ****** ****** ****** ****** ****** ****** ******
      ****** ****** ****** ****** ****** ****** ****** ****** ****** ******
      ****** ****** ****** ****** ****** ****** ****** ****** ****** ******
  17  ****** ****** ****** ****** ****** ****** ****** ****** ****** ******
      ****** ****** ****** ****** ****** ****** ****** ****** ****** ******
      ****** ****** ****** ****** ****** ****** ****** ****** ****** ******
  18  ****** ****** ****** ****** ****** ****** ****** ****** ****** ******
      ****** ****** ****** ****** ****** ****** ****** ****** ****** ******
      ****** ****** ****** ****** ****** ****** ****** ****** ****** ******
  19  ****** ****** ****** ****** ****** ****** ****** ****** ****** ******
      ****** ****** ****** ****** ****** ****** ****** ****** ****** ******
      ****** ****** ****** ****** ****** ****** ****** ****** ****** ******
  20  ****** ****** ****** ****** ****** ****** ****** ****** ****** ******
      ****** ****** ****** ****** ****** ****** ****** ****** ****** ******
      ****** ****** ****** ****** ****** ****** ****** ****** ****** ******
  21  ****** ****** ****** ****** ****** ****** ****** ****** ****** ******
      ****** ****** ****** ****** ****** ****** ****** ****** ****** ******
      ****** ****** ****** ****** ****** ****** ****** ****** ****** ******
  22  ****** ****** ****** ****** ****** ****** ****** ****** ****** ******
      ****** ****** ****** ****** ****** ****** ****** ****** ****** ******
      ****** ****** ****** ****** ****** ****** ****** ****** ****** ******
  23  ****** ****** ****** ****** ****** ****** ****** ****** ****** ******
      ****** ****** ****** ****** ****** ****** ****** ****** ****** ******
      ****** ****** ****** ****** ****** ****** ****** ****** ****** ******
  24  ****** ****** ****** ****** ****** ****** ****** ****** ****** ******
      ****** ****** ****** ****** ****** ****** ****** ****** ****** ******
      ****** ****** ****** ****** ****** ****** ****** ****** ****** ******
  25  ****** ****** ****** ****** ****** ****** ****** ****** ****** ******
      ****** ****** ****** ****** ****** ****** ****** ****** ****** ******
      ****** ****** ****** ****** ****** ****** ****** ****** ****** ******

 HEAD WILL BE SAVED ON UNIT   51 AT END OF TIME STEP    1, STRESS PERIOD    7
1
  VOLUMETRIC BUDGET FOR ENTIRE MODEL AT END OF TIME STEP    1, STRESS PERIOD   7
  ------------------------------------------------------------------------------

     CUMULATIVE VOLUMES      L**3       RATES FOR THIS TIME STEP      L**3/T
     ------------------                 ------------------------

           IN:                                      IN:
           ---                                      ---
             STORAGE =    33049707.2345               STORAGE =       22201.5045
       CONSTANT HEAD =    16065006.3296         CONSTANT HEAD =       32983.6788
               WELLS =           0.0000                 WELLS =           0.0000
            RECHARGE =    15097200.0000              RECHARGE =           0.0000
      STREAM LEAKAGE =     7502113.3670        STREAM LEAKAGE =       17722.3174

            TOTAL IN =    71714026.9311              TOTAL IN =       72907.5007

          OUT:                                     OUT:
          ----                                     ----
             STORAGE =      818855.4276               STORAGE =           0.0000
       CONSTANT HEAD =           0.0000         CONSTANT HEAD =           0.0000
               WELLS =    27562442.0931                 WELLS =       43133.7122
            RECHARGE =           0.0000              RECHARGE =           0.0000
      STREAM LEAKAGE =    43332732.0207        STREAM LEAKAGE =       29773.7942

           TOTAL OUT =    71714029.5415             TOTAL OUT =       72907.5064

            IN - OUT =          -2.6104              IN - OUT =      -5.6602E-03

 PERCENT DISCREPANCY =          -0.00     PERCENT DISCREPANCY =          -0.00






         TIME SUMMARY AT END OF TIME STEP    1 IN STRESS PERIOD    7
                    SECONDS     MINUTES      HOURS       DAYS        YEARS
                    -----------------------------------------------------------
   TIME STEP LENGTH 7.86240E+06 1.31040E+05  2184.0      91.000     0.24914    
 STRESS PERIOD TIME 7.86240E+06 1.31040E+05  2184.0      91.000     0.24914    
         TOTAL TIME 5.52096E+07 9.20160E+05  15336.      639.00      1.7495    
1
1
                            STRESS PERIOD NO.    8, LENGTH =   91.00000    
                            -----------------------------------------------

                              NUMBER OF TIME STEPS =     1

                               MULTIPLIER FOR DELT =     1.500

                            INITIAL TIME STEP SIZE =   91.00000    

 WELL NO.  LAYER   ROW   COL   STRESS RATE         
 --------------------------------------------------
      1      1     15     19     -0.1065E+05
      2      1     15     28      -8067.    
      3      1     19     14      -9238.    
      4      1      9     25     -0.1518E+05

      4 WELLS

                 RECHARGE =  1.000000E-03

 REUSING STREAM SEGMENT DATA FROM LAST STRESS PERIOD
 
 SOLVING FOR HEAD 


     6 CALLS TO PCG ROUTINE FOR TIME STEP   1 IN STRESS PERIOD    8
    22 TOTAL ITERATIONS

 OUTPUT CONTROL FOR STRESS PERIOD    8   TIME STEP    1
    SAVE BUDGET
    SAVE HEAD FOR ALL LAYERS
    PRINT HEAD FOR ALL LAYERS
 UBDSV2 SAVING "STREAMFLOW OUT  " ON UNIT  50 AT TIME STEP  1, STRESS PERIOD   8



 STREAM LISTING     PERIOD      8   STEP        1

 LAYER ROW COL. STREAM  RCH.  FLOW INTO     FLOW TO   FLOW OUT OF   OVRLND.     DIRECT     STREAM       STREAM     STREAM     STREAM   STREAMBED  STREAMBED
                SEG.NO.  NO.  STRM. RCH.    AQUIFER    STRM. RCH.    RUNOFF     PRECIP       ET          HEAD       DEPTH      WIDTH   CONDCTNC.   GRADIENT

   1   13    1     1     1    1.0000E+05 -1.8442E+03   1.0184E+05  0.000E+00  0.000E+00  0.000E+00  4.84068E+01  1.455E-01  2.000E+01  2.000E+04 -9.221E-02
   1   13    2     1     2    1.0184E+05 -2.8198E+03   1.0466E+05  0.000E+00  0.000E+00  0.000E+00  4.79315E+01  1.475E-01  2.000E+01  2.000E+04 -1.410E-01
   1   14    3     1     3    1.0466E+05 -4.6473E+02   1.0513E+05  0.000E+00  0.000E+00  0.000E+00  4.74557E+01  1.489E-01  2.000E+01  2.000E+04 -2.324E-02
   1   15    4     1     4    1.0513E+05 -4.2518E+02   1.0555E+05  0.000E+00  0.000E+00  0.000E+00  4.69788E+01  1.492E-01  2.000E+01  2.000E+04 -2.126E-02
   1   16    5     1     5    1.0555E+05 -1.4097E+03   1.0696E+05  0.000E+00  0.000E+00  0.000E+00  4.65023E+01  1.500E-01  2.000E+01  2.000E+04 -7.048E-02
   1   16    6     1     6    1.0696E+05 -8.7984E+02   1.0784E+05  0.000E+00  0.000E+00  0.000E+00  4.60260E+01  1.510E-01  2.000E+01  2.000E+04 -4.399E-02
   1   16    7     1     7    1.0784E+05 -8.2602E+02   1.0867E+05  0.000E+00  0.000E+00  0.000E+00  4.55494E+01  1.517E-01  2.000E+01  2.000E+04 -4.130E-02
   1   16    8     1     8    1.0867E+05 -7.6116E+02   1.0943E+05  0.000E+00  0.000E+00  0.000E+00  4.50728E+01  1.524E-01  2.000E+01  2.000E+04 -3.806E-02
   1   16    9     1     9    1.0943E+05 -6.6184E+02   1.1009E+05  0.000E+00  0.000E+00  0.000E+00  4.45961E+01  1.530E-01  2.000E+01  2.000E+04 -3.309E-02
   1   16   10     1    10    1.1009E+05 -5.1193E+02   1.1060E+05  0.000E+00  0.000E+00  0.000E+00  4.41194E+01  1.535E-01  2.000E+01  2.000E+04 -2.560E-02
   1   16   11     1    11    1.1060E+05 -2.8629E+02   1.1089E+05  0.000E+00  0.000E+00  0.000E+00  4.36424E+01  1.538E-01  2.000E+01  2.000E+04 -1.431E-02
   1   16   12     1    12    1.1089E+05  5.3926E+00   1.1089E+05  0.000E+00  0.000E+00  0.000E+00  4.31653E+01  1.539E-01  2.000E+01  2.000E+04  2.696E-04
   1   15   13     1    13    1.1089E+05 -3.3482E+02   1.1122E+05  0.000E+00  0.000E+00  0.000E+00  4.26881E+01  1.540E-01  2.000E+01  2.000E+04 -1.674E-02
   1   14   14     1    14    1.1122E+05 -8.3701E+02   1.1206E+05  0.000E+00  0.000E+00  0.000E+00  4.22113E+01  1.545E-01  2.000E+01  2.000E+04 -4.185E-02
   1   13   15     1    15    1.1206E+05 -1.3231E+03   1.1338E+05  0.000E+00  0.000E+00  0.000E+00  4.17350E+01  1.554E-01  2.000E+01  2.000E+04 -6.615E-02
   1   12   16     1    16    1.1338E+05 -2.3918E+03   1.1577E+05  0.000E+00  0.000E+00  0.000E+00  4.12592E+01  1.570E-01  2.000E+01  2.000E+04 -1.196E-01
   1   12   17     1    17    1.1577E+05 -1.1289E+03   1.1690E+05  0.000E+00  0.000E+00  0.000E+00  4.07834E+01  1.584E-01  2.000E+01  2.000E+04 -5.645E-02
   1   12   18     1    18    1.1690E+05 -8.1385E+02   1.1771E+05  0.000E+00  0.000E+00  0.000E+00  4.03069E+01  1.592E-01  2.000E+01  2.000E+04 -4.069E-02
   1   12   19     1    19    1.1771E+05 -1.1645E+03   1.1888E+05  0.000E+00  0.000E+00  0.000E+00  3.98305E+01  1.600E-01  2.000E+01  2.000E+04 -5.822E-02
   1   13   20     1    20    1.1888E+05  5.2015E+02   1.1836E+05  0.000E+00  0.000E+00  0.000E+00  3.93534E+01  1.603E-01  2.000E+01  2.000E+04  2.601E-02
   1   14   21     1    21    1.1836E+05  1.0287E+03   1.1733E+05  0.000E+00  0.000E+00  0.000E+00  3.88755E+01  1.596E-01  2.000E+01  2.000E+04  5.143E-02
   1   14   22     1    22    1.1733E+05  5.3027E+03   1.1203E+05  0.000E+00  0.000E+00  0.000E+00  3.83957E+01  1.570E-01  2.000E+01  2.000E+04  2.651E-01
   1    9   30     2     1    5.0000E+04  9.7595E+01   4.9902E+04  0.000E+00  0.000E+00  0.000E+00  4.02408E+01  1.158E-01  2.000E+01  2.000E+04  4.880E-03
   1    9   29     2     2    4.9902E+04 -1.6340E+02   5.0066E+04  0.000E+00  0.000E+00  0.000E+00  3.99908E+01  1.158E-01  2.000E+01  2.000E+04 -8.170E-03
   1    9   28     2     3    5.0066E+04 -2.6615E+02   5.0332E+04  0.000E+00  0.000E+00  0.000E+00  3.97411E+01  1.161E-01  2.000E+01  2.000E+04 -1.331E-02
   1    9   27     2     4    5.0332E+04  7.0543E+02   4.9627E+04  0.000E+00  0.000E+00  0.000E+00  3.94908E+01  1.158E-01  2.000E+01  2.000E+04  3.527E-02
   1   10   26     2     5    4.9627E+04  2.8199E+03   4.6807E+04  0.000E+00  0.000E+00  0.000E+00  3.92384E+01  1.134E-01  2.000E+01  2.000E+04  1.410E-01
   1   11   25     2     6    4.6807E+04  1.5705E+03   4.5236E+04  0.000E+00  0.000E+00  0.000E+00  3.89852E+01  1.102E-01  2.000E+01  2.000E+04  7.852E-02
   1   12   24     2     7    4.5236E+04 -3.4310E+02   4.5579E+04  0.000E+00  0.000E+00  0.000E+00  3.87344E+01  1.094E-01  2.000E+01  2.000E+04 -1.715E-02
   1   13   23     2     8    4.5579E+04 -1.5395E+02   4.5733E+04  0.000E+00  0.000E+00  0.000E+00  3.84847E+01  1.097E-01  2.000E+01  2.000E+04 -7.698E-03
   1   14   22     2     9    4.5733E+04  2.0559E+03   4.3677E+04  0.000E+00  0.000E+00  0.000E+00  3.82333E+01  1.083E-01  2.000E+01  2.000E+04  1.028E-01
   1   14   22     3     1    1.5571E+05 -8.3186E+03   1.6402E+05  0.000E+00  0.000E+00  0.000E+00  3.77146E+01  1.591E-01  2.000E+01  2.000E+04 -4.159E-01
   1   15   23     3     2    1.6402E+05 -2.7782E+02   1.6430E+05  0.000E+00  0.000E+00  0.000E+00  3.68283E+01  1.616E-01  2.000E+01  2.000E+04 -1.389E-02
   1   15   24     3     3    1.6430E+05 -2.1768E+02   1.6452E+05  0.000E+00  0.000E+00  0.000E+00  3.59395E+01  1.618E-01  2.000E+01  2.000E+04 -1.088E-02
   1   15   25     3     4    1.6452E+05 -2.1133E+02   1.6473E+05  0.000E+00  0.000E+00  0.000E+00  3.50508E+01  1.619E-01  2.000E+01  2.000E+04 -1.057E-02
   1   15   26     3     5    1.6473E+05  2.5340E+01   1.6471E+05  0.000E+00  0.000E+00  0.000E+00  3.41619E+01  1.619E-01  2.000E+01  2.000E+04  1.267E-03
   1   16   27     3     6    1.6471E+05  3.5882E+02   1.6435E+05  0.000E+00  0.000E+00  0.000E+00  3.32729E+01  1.618E-01  2.000E+01  2.000E+04  1.794E-02
   1   17   28     3     7    1.6435E+05  1.5293E+03   1.6282E+05  0.000E+00  0.000E+00  0.000E+00  3.23835E+01  1.613E-01  2.000E+01  2.000E+04  7.646E-02
   1   18   29     3     8    1.6282E+05 -1.9041E+03   1.6472E+05  0.000E+00  0.000E+00  0.000E+00  3.14947E+01  1.614E-01  2.000E+01  2.000E+04 -9.520E-02
   1   18   30     3     9    1.6472E+05 -2.2028E+03   1.6692E+05  0.000E+00  0.000E+00  0.000E+00  3.06070E+01  1.626E-01  2.000E+01  2.000E+04 -1.101E-01



1
              HEAD IN LAYER   1 AT END OF TIME STEP   1 IN STRESS PERIOD    8
  ---------------------------------------------------------------------------

          1      2      3      4      5      6      7      8      9     10
         11     12     13     14     15     16     17     18     19     20
         21     22     23     24     25     26     27     28     29     30
 .........................................................................
   1  ****** ****** ****** ****** ****** ****** ****** ****** ****** ******
      ****** ****** ****** ****** ****** ****** ****** ****** ****** ******
      ****** ****** ****** ****** ****** ****** ****** ****** ****** ******
   2  ****** ****** ****** ****** ****** ****** ****** ****** ****** ******
      ****** ****** ****** ****** ****** ****** ****** ****** ****** ******
      ****** ****** ****** ****** ****** ****** ****** ****** ****** ******
   3  ****** ****** ****** ****** ****** ****** ****** ****** ****** ******
      ****** ****** ****** ****** ****** ****** ****** ****** ****** ******
      ****** ****** ****** ****** ****** ****** ****** ****** ****** ******
   4  ****** ****** ****** ****** ****** ****** ****** ****** ****** ******
      ****** ****** ****** ****** ****** ****** ****** ****** ****** ******
      ****** ****** ****** ****** ****** ****** ****** ****** ****** ******
   5  ****** ****** ****** ****** ****** ****** ****** ****** ****** ******
      ****** ****** ****** ****** ****** ****** ****** ****** ****** ******
      ****** ****** ****** ****** ****** ****** ****** ****** ****** ******
   6  ****** ****** ****** ****** ****** ****** ****** ****** ****** ******
      ****** ****** ****** ****** ****** ****** ****** ****** ****** ******
      ****** ****** ****** ****** ****** ****** ****** ****** ****** ******
   7  ****** ****** ****** ****** ****** ****** ****** ****** ****** ******
      ****** ****** ****** ****** ****** ****** ****** ****** ****** ******
      ****** ****** ****** ****** ****** ****** ****** ****** ****** ******
   8  ****** ****** ****** ****** ****** ****** ****** ****** ****** ******
      ****** ****** ****** ****** ****** ****** ****** ****** ****** ******
      ****** ****** ****** ****** ****** ****** ****** ****** ****** ******
   9  ****** ****** ****** ****** ****** ****** ****** ****** ****** ******
      ****** ****** ****** ****** ****** ****** ****** ****** ****** ******
      ****** ****** ****** ****** ****** ****** ****** ****** ****** ******
  10  ****** ****** ****** ****** ****** ****** ****** ****** ****** ******
      ****** ****** ****** ****** ****** ****** ****** ****** ****** ******
      ****** ****** ****** ****** ****** ****** ****** ****** ****** ******
  11  ****** ****** ****** ****** ****** ****** ****** ****** ****** ******
      ****** ****** ****** ****** ****** ****** ****** ****** ****** ******
      ****** ****** ****** ****** ****** ****** ****** ****** ****** ******
  12  ****** ****** ****** ****** ****** ****** ****** ****** ****** ******
      ****** ****** ****** ****** ****** ****** ****** ****** ****** ******
      ****** ****** ****** ****** ****** ****** ****** ****** ****** ******
  13  ****** ****** ****** ****** ****** ****** ****** ****** ****** ******
      ****** ****** ****** ****** ****** ****** ****** ****** ****** ******
      ****** ****** ****** ****** ****** ****** ****** ****** ****** ******
  14  ****** ****** ****** ****** ****** ****** ****** ****** ****** ******
      ****** ****** ****** ****** ****** ****** ****** ****** ****** ******
      ****** ****** ****** ****** ****** ****** ****** ****** ****** ******
  15  ****** ****** ****** ****** ****** ****** ****** ****** ****** ******
      ****** ****** ****** ****** ****** ****** ****** ****** ****** ******
      ****** ****** ****** ****** ****** ****** ****** ****** ****** ******
  16  ****** ****** ****** ****** ****** ****** ****** ****** ****** ******
      ****** ****** ****** ****** ****** ****** ****** ****** ****** ******
      ****** ****** ****** ****** ****** ****** ****** ****** ****** ******
  17  ****** ****** ****** ****** ****** ****** ****** ****** ****** ******
      ****** ****** ****** ****** ****** ****** ****** ****** ****** ******
      ****** ****** ****** ****** ****** ****** ****** ****** ****** ******
  18  ****** ****** ****** ****** ****** ****** ****** ****** ****** ******
      ****** ****** ****** ****** ****** ****** ****** ****** ****** ******
      ****** ****** ****** ****** ****** ****** ****** ****** ****** ******
  19  ****** ****** ****** ****** ****** ****** ****** ****** ****** ******
      ****** ****** ****** ****** ****** ****** ****** ****** ****** ******
      ****** ****** ****** ****** ****** ****** ****** ****** ****** ******
  20  ****** ****** ****** ****** ****** ****** ****** ****** ****** ******
      ****** ****** ****** ****** ****** ****** ****** ****** ****** ******
      ****** ****** ****** ****** ****** ****** ****** ****** ****** ******
  21  ****** ****** ****** ****** ****** ****** ****** ****** ****** ******
      ****** ****** ****** ****** ****** ****** ****** ****** ****** ******
      ****** ****** ****** ****** ****** ****** ****** ****** ****** ******
  22  ****** ****** ****** ****** ****** ****** ****** ****** ****** ******
      ****** ****** ****** ****** ****** ****** ****** ****** ****** ******
      ****** ****** ****** ****** ****** ****** ****** ****** ****** ******
  23  ****** ****** ****** ****** ****** ****** ****** ****** ****** ******
      ****** ****** ****** ****** ****** ****** ****** ****** ****** ******
      ****** ****** ****** ****** ****** ****** ****** ****** ****** ******
  24  ****** ****** ****** ****** ****** ****** ****** ****** ****** ******
      ****** ****** ****** ****** ****** ****** ****** ****** ****** ******
      ****** ****** ****** ****** ****** ****** ****** ****** ****** ******
  25  ****** ****** ****** ****** ****** ****** ****** ****** ****** ******
      ****** ****** ****** ****** ****** ****** ****** ****** ****** ******
      ****** ****** ****** ****** ****** ****** ****** ****** ****** ******

 HEAD WILL BE SAVED ON UNIT   51 AT END OF TIME STEP    1, STRESS PERIOD    8
1
  VOLUMETRIC BUDGET FOR ENTIRE MODEL AT END OF TIME STEP    1, STRESS PERIOD   8
  ------------------------------------------------------------------------------

     CUMULATIVE VOLUMES      L**3       RATES FOR THIS TIME STEP      L**3/T
     ------------------                 ------------------------

           IN:                                      IN:
           ---                                      ---
             STORAGE =    33170464.1849               STORAGE =        1326.9995
       CONSTANT HEAD =    19038598.8515         CONSTANT HEAD =       32676.8409
               WELLS =           0.0000                 WELLS =           0.0000
            RECHARGE =    17608800.0000              RECHARGE =       27600.0000
      STREAM LEAKAGE =     8959904.5689        STREAM LEAKAGE =       16019.6835

            TOTAL IN =    78777767.6053              TOTAL IN =       77623.5239

          OUT:                                     OUT:
          ----                                     ----
             STORAGE =      959553.4087               STORAGE =        1546.1317
       CONSTANT HEAD =           0.0000         CONSTANT HEAD =           0.0000
               WELLS =    31487609.9030                 WELLS =       43133.7122
            RECHARGE =           0.0000              RECHARGE =           0.0000
      STREAM LEAKAGE =    46330606.1161        STREAM LEAKAGE =       32943.6714

           TOTAL OUT =    78777769.4278             TOTAL OUT =       77623.5152

            IN - OUT =          -1.8225              IN - OUT =       8.6578E-03

 PERCENT DISCREPANCY =          -0.00     PERCENT DISCREPANCY =           0.00






         TIME SUMMARY AT END OF TIME STEP    1 IN STRESS PERIOD    8
                    SECONDS     MINUTES      HOURS       DAYS        YEARS
                    -----------------------------------------------------------
   TIME STEP LENGTH 7.86240E+06 1.31040E+05  2184.0      91.000     0.24914    
 STRESS PERIOD TIME 7.86240E+06 1.31040E+05  2184.0      91.000     0.24914    
         TOTAL TIME 6.30720E+07 1.05120E+06  17520.      730.00      1.9986    
1
1
                            STRESS PERIOD NO.    9, LENGTH =   92.00000    
                            -----------------------------------------------

                              NUMBER OF TIME STEPS =     1

                               MULTIPLIER FOR DELT =     1.500

                            INITIAL TIME STEP SIZE =   92.00000    

 WELL NO.  LAYER   ROW   COL   STRESS RATE         
 --------------------------------------------------
      1      1     15     19     -0.1065E+05
      2      1     15     28      -8067.    
      3      1     19     14      -9238.    
      4      1      9     25     -0.1518E+05

      4 WELLS

                 RECHARGE =  5.000000E-04

 REUSING STREAM SEGMENT DATA FROM LAST STRESS PERIOD
 
 SOLVING FOR HEAD 


     6 CALLS TO PCG ROUTINE FOR TIME STEP   1 IN STRESS PERIOD    9
    23 TOTAL ITERATIONS

 OUTPUT CONTROL FOR STRESS PERIOD    9   TIME STEP    1
    SAVE BUDGET
    SAVE HEAD FOR ALL LAYERS
    PRINT HEAD FOR ALL LAYERS
 UBDSV2 SAVING "STREAMFLOW OUT  " ON UNIT  50 AT TIME STEP  1, STRESS PERIOD   9



 STREAM LISTING     PERIOD      9   STEP        1

 LAYER ROW COL. STREAM  RCH.  FLOW INTO     FLOW TO   FLOW OUT OF   OVRLND.     DIRECT     STREAM       STREAM     STREAM     STREAM   STREAMBED  STREAMBED
                SEG.NO.  NO.  STRM. RCH.    AQUIFER    STRM. RCH.    RUNOFF     PRECIP       ET          HEAD       DEPTH      WIDTH   CONDCTNC.   GRADIENT

   1   13    1     1     1    1.0000E+05 -1.6334E+03   1.0163E+05  0.000E+00  0.000E+00  0.000E+00  4.84067E+01  1.454E-01  2.000E+01  2.000E+04 -8.167E-02
   1   13    2     1     2    1.0163E+05 -2.5812E+03   1.0421E+05  0.000E+00  0.000E+00  0.000E+00  4.79313E+01  1.472E-01  2.000E+01  2.000E+04 -1.291E-01
   1   14    3     1     3    1.0421E+05 -3.9447E+02   1.0461E+05  0.000E+00  0.000E+00  0.000E+00  4.74553E+01  1.484E-01  2.000E+01  2.000E+04 -1.972E-02
   1   15    4     1     4    1.0461E+05 -3.5373E+02   1.0496E+05  0.000E+00  0.000E+00  0.000E+00  4.69783E+01  1.488E-01  2.000E+01  2.000E+04 -1.769E-02
   1   16    5     1     5    1.0496E+05 -1.2166E+03   1.0618E+05  0.000E+00  0.000E+00  0.000E+00  4.65017E+01  1.494E-01  2.000E+01  2.000E+04 -6.083E-02
   1   16    6     1     6    1.0618E+05 -7.5982E+02   1.0694E+05  0.000E+00  0.000E+00  0.000E+00  4.60253E+01  1.503E-01  2.000E+01  2.000E+04 -3.799E-02
   1   16    7     1     7    1.0694E+05 -7.0979E+02   1.0765E+05  0.000E+00  0.000E+00  0.000E+00  4.55486E+01  1.509E-01  2.000E+01  2.000E+04 -3.549E-02
   1   16    8     1     8    1.0765E+05 -6.4645E+02   1.0830E+05  0.000E+00  0.000E+00  0.000E+00  4.50719E+01  1.515E-01  2.000E+01  2.000E+04 -3.232E-02
   1   16    9     1     9    1.0830E+05 -5.4867E+02   1.0884E+05  0.000E+00  0.000E+00  0.000E+00  4.45951E+01  1.520E-01  2.000E+01  2.000E+04 -2.743E-02
   1   16   10     1    10    1.0884E+05 -4.0064E+02   1.0924E+05  0.000E+00  0.000E+00  0.000E+00  4.41183E+01  1.524E-01  2.000E+01  2.000E+04 -2.003E-02
   1   16   11     1    11    1.0924E+05 -1.7579E+02   1.0942E+05  0.000E+00  0.000E+00  0.000E+00  4.36412E+01  1.526E-01  2.000E+01  2.000E+04 -8.790E-03
   1   16   12     1    12    1.0942E+05  1.9438E+02   1.0923E+05  0.000E+00  0.000E+00  0.000E+00  4.31640E+01  1.526E-01  2.000E+01  2.000E+04  9.719E-03
   1   15   13     1    13    1.0923E+05 -1.2578E+02   1.0935E+05  0.000E+00  0.000E+00  0.000E+00  4.26867E+01  1.526E-01  2.000E+01  2.000E+04 -6.289E-03
   1   14   14     1    14    1.0935E+05 -6.1533E+02   1.0997E+05  0.000E+00  0.000E+00  0.000E+00  4.22097E+01  1.529E-01  2.000E+01  2.000E+04 -3.077E-02
   1   13   15     1    15    1.0997E+05 -1.0962E+03   1.1106E+05  0.000E+00  0.000E+00  0.000E+00  4.17331E+01  1.536E-01  2.000E+01  2.000E+04 -5.481E-02
   1   12   16     1    16    1.1106E+05 -2.1579E+03   1.1322E+05  0.000E+00  0.000E+00  0.000E+00  4.12572E+01  1.549E-01  2.000E+01  2.000E+04 -1.079E-01
   1   12   17     1    17    1.1322E+05 -9.6758E+02   1.1419E+05  0.000E+00  0.000E+00  0.000E+00  4.07812E+01  1.562E-01  2.000E+01  2.000E+04 -4.838E-02
   1   12   18     1    18    1.1419E+05 -6.5968E+02   1.1485E+05  0.000E+00  0.000E+00  0.000E+00  4.03046E+01  1.569E-01  2.000E+01  2.000E+04 -3.298E-02
   1   12   19     1    19    1.1485E+05 -9.7892E+02   1.1583E+05  0.000E+00  0.000E+00  0.000E+00  3.98280E+01  1.576E-01  2.000E+01  2.000E+04 -4.895E-02
   1   13   20     1    20    1.1583E+05  6.9359E+02   1.1513E+05  0.000E+00  0.000E+00  0.000E+00  3.93509E+01  1.577E-01  2.000E+01  2.000E+04  3.468E-02
   1   14   21     1    21    1.1513E+05  1.2011E+03   1.1393E+05  0.000E+00  0.000E+00  0.000E+00  3.88728E+01  1.569E-01  2.000E+01  2.000E+04  6.006E-02
   1   14   22     1    22    1.1393E+05  5.3419E+03   1.0859E+05  0.000E+00  0.000E+00  0.000E+00  3.83929E+01  1.542E-01  2.000E+01  2.000E+04  2.671E-01
   1    9   30     2     1    5.0000E+04  2.2065E+02   4.9779E+04  0.000E+00  0.000E+00  0.000E+00  4.02407E+01  1.157E-01  2.000E+01  2.000E+04  1.103E-02
   1    9   29     2     2    4.9779E+04 -4.0145E+01   4.9819E+04  0.000E+00  0.000E+00  0.000E+00  3.99906E+01  1.156E-01  2.000E+01  2.000E+04 -2.007E-03
   1    9   28     2     3    4.9819E+04 -1.4106E+02   4.9961E+04  0.000E+00  0.000E+00  0.000E+00  3.97407E+01  1.157E-01  2.000E+01  2.000E+04 -7.053E-03
   1    9   27     2     4    4.9961E+04  8.8113E+02   4.9079E+04  0.000E+00  0.000E+00  0.000E+00  3.94902E+01  1.152E-01  2.000E+01  2.000E+04  4.406E-02
   1   10   26     2     5    4.9079E+04  2.9928E+03   4.6087E+04  0.000E+00  0.000E+00  0.000E+00  3.92375E+01  1.125E-01  2.000E+01  2.000E+04  1.496E-01
   1   11   25     2     6    4.6087E+04  1.7359E+03   4.4351E+04  0.000E+00  0.000E+00  0.000E+00  3.89841E+01  1.091E-01  2.000E+01  2.000E+04  8.680E-02
   1   12   24     2     7    4.4351E+04 -1.9110E+02   4.4542E+04  0.000E+00  0.000E+00  0.000E+00  3.87330E+01  1.080E-01  2.000E+01  2.000E+04 -9.555E-03
   1   13   23     2     8    4.4542E+04 -1.0698E+02   4.4649E+04  0.000E+00  0.000E+00  0.000E+00  3.84832E+01  1.082E-01  2.000E+01  2.000E+04 -5.349E-03
   1   14   22     2     9    4.4649E+04  2.1190E+03   4.2530E+04  0.000E+00  0.000E+00  0.000E+00  3.82317E+01  1.067E-01  2.000E+01  2.000E+04  1.060E-01
   1   14   22     3     1    1.5112E+05 -8.2782E+03   1.5940E+05  0.000E+00  0.000E+00  0.000E+00  3.77118E+01  1.563E-01  2.000E+01  2.000E+04 -4.139E-01
   1   15   23     3     2    1.5940E+05 -2.2501E+02   1.5962E+05  0.000E+00  0.000E+00  0.000E+00  3.68255E+01  1.588E-01  2.000E+01  2.000E+04 -1.125E-02
   1   15   24     3     3    1.5962E+05 -1.7454E+02   1.5980E+05  0.000E+00  0.000E+00  0.000E+00  3.59367E+01  1.590E-01  2.000E+01  2.000E+04 -8.727E-03
   1   15   25     3     4    1.5980E+05 -1.6796E+02   1.5997E+05  0.000E+00  0.000E+00  0.000E+00  3.50480E+01  1.591E-01  2.000E+01  2.000E+04 -8.398E-03
   1   15   26     3     5    1.5997E+05  7.2991E+01   1.5989E+05  0.000E+00  0.000E+00  0.000E+00  3.41591E+01  1.591E-01  2.000E+01  2.000E+04  3.650E-03
   1   16   27     3     6    1.5989E+05  4.1493E+02   1.5948E+05  0.000E+00  0.000E+00  0.000E+00  3.32701E+01  1.589E-01  2.000E+01  2.000E+04  2.075E-02
   1   17   28     3     7    1.5948E+05  1.6832E+03   1.5780E+05  0.000E+00  0.000E+00  0.000E+00  3.23805E+01  1.583E-01  2.000E+01  2.000E+04  8.416E-02
   1   18   29     3     8    1.5780E+05 -1.7272E+03   1.5952E+05  0.000E+00  0.000E+00  0.000E+00  3.14917E+01  1.583E-01  2.000E+01  2.000E+04 -8.636E-02
   1   18   30     3     9    1.5952E+05 -2.0701E+03   1.6159E+05  0.000E+00  0.000E+00  0.000E+00  3.06039E+01  1.595E-01  2.000E+01  2.000E+04 -1.035E-01



1
              HEAD IN LAYER   1 AT END OF TIME STEP   1 IN STRESS PERIOD    9
  ---------------------------------------------------------------------------

          1      2      3      4      5      6      7      8      9     10
         11     12     13     14     15     16     17     18     19     20
         21     22     23     24     25     26     27     28     29     30
 .........................................................................
   1  ****** ****** ****** ****** ****** ****** ****** ****** ****** ******
      ****** ****** ****** ****** ****** ****** ****** ****** ****** ******
      ****** ****** ****** ****** ****** ****** ****** ****** ****** ******
   2  ****** ****** ****** ****** ****** ****** ****** ****** ****** ******
      ****** ****** ****** ****** ****** ****** ****** ****** ****** ******
      ****** ****** ****** ****** ****** ****** ****** ****** ****** ******
   3  ****** ****** ****** ****** ****** ****** ****** ****** ****** ******
      ****** ****** ****** ****** ****** ****** ****** ****** ****** ******
      ****** ****** ****** ****** ****** ****** ****** ****** ****** ******
   4  ****** ****** ****** ****** ****** ****** ****** ****** ****** ******
      ****** ****** ****** ****** ****** ****** ****** ****** ****** ******
      ****** ****** ****** ****** ****** ****** ****** ****** ****** ******
   5  ****** ****** ****** ****** ****** ****** ****** ****** ****** ******
      ****** ****** ****** ****** ****** ****** ****** ****** ****** ******
      ****** ****** ****** ****** ****** ****** ****** ****** ****** ******
   6  ****** ****** ****** ****** ****** ****** ****** ****** ****** ******
      ****** ****** ****** ****** ****** ****** ****** ****** ****** ******
      ****** ****** ****** ****** ****** ****** ****** ****** ****** ******
   7  ****** ****** ****** ****** ****** ****** ****** ****** ****** ******
      ****** ****** ****** ****** ****** ****** ****** ****** ****** ******
      ****** ****** ****** ****** ****** ****** ****** ****** ****** ******
   8  ****** ****** ****** ****** ****** ****** ****** ****** ****** ******
      ****** ****** ****** ****** ****** ****** ****** ****** ****** ******
      ****** ****** ****** ****** ****** ****** ****** ****** ****** ******
   9  ****** ****** ****** ****** ****** ****** ****** ****** ****** ******
      ****** ****** ****** ****** ****** ****** ****** ****** ****** ******
      ****** ****** ****** ****** ****** ****** ****** ****** ****** ******
  10  ****** ****** ****** ****** ****** ****** ****** ****** ****** ******
      ****** ****** ****** ****** ****** ****** ****** ****** ****** ******
      ****** ****** ****** ****** ****** ****** ****** ****** ****** ******
  11  ****** ****** ****** ****** ****** ****** ****** ****** ****** ******
      ****** ****** ****** ****** ****** ****** ****** ****** ****** ******
      ****** ****** ****** ****** ****** ****** ****** ****** ****** ******
  12  ****** ****** ****** ****** ****** ****** ****** ****** ****** ******
      ****** ****** ****** ****** ****** ****** ****** ****** ****** ******
      ****** ****** ****** ****** ****** ****** ****** ****** ****** ******
  13  ****** ****** ****** ****** ****** ****** ****** ****** ****** ******
      ****** ****** ****** ****** ****** ****** ****** ****** ****** ******
      ****** ****** ****** ****** ****** ****** ****** ****** ****** ******
  14  ****** ****** ****** ****** ****** ****** ****** ****** ****** ******
      ****** ****** ****** ****** ****** ****** ****** ****** ****** ******
      ****** ****** ****** ****** ****** ****** ****** ****** ****** ******
  15  ****** ****** ****** ****** ****** ****** ****** ****** ****** ******
      ****** ****** ****** ****** ****** ****** ****** ****** ****** ******
      ****** ****** ****** ****** ****** ****** ****** ****** ****** ******
  16  ****** ****** ****** ****** ****** ****** ****** ****** ****** ******
      ****** ****** ****** ****** ****** ****** ****** ****** ****** ******
      ****** ****** ****** ****** ****** ****** ****** ****** ****** ******
  17  ****** ****** ****** ****** ****** ****** ****** ****** ****** ******
      ****** ****** ****** ****** ****** ****** ****** ****** ****** ******
      ****** ****** ****** ****** ****** ****** ****** ****** ****** ******
  18  ****** ****** ****** ****** ****** ****** ****** ****** ****** ******
      ****** ****** ****** ****** ****** ****** ****** ****** ****** ******
      ****** ****** ****** ****** ****** ****** ****** ****** ****** ******
  19  ****** ****** ****** ****** ****** ****** ****** ****** ****** ******
      ****** ****** ****** ****** ****** ****** ****** ****** ****** ******
      ****** ****** ****** ****** ****** ****** ****** ****** ****** ******
  20  ****** ****** ****** ****** ****** ****** ****** ****** ****** ******
      ****** ****** ****** ****** ****** ****** ****** ****** ****** ******
      ****** ****** ****** ****** ****** ****** ****** ****** ****** ******
  21  ****** ****** ****** ****** ****** ****** ****** ****** ****** ******
      ****** ****** ****** ****** ****** ****** ****** ****** ****** ******
      ****** ****** ****** ****** ****** ****** ****** ****** ****** ******
  22  ****** ****** ****** ****** ****** ****** ****** ****** ****** ******
      ****** ****** ****** ****** ****** ****** ****** ****** ****** ******
      ****** ****** ****** ****** ****** ****** ****** ****** ****** ******
  23  ****** ****** ****** ****** ****** ****** ****** ****** ****** ******
      ****** ****** ****** ****** ****** ****** ****** ****** ****** ******
      ****** ****** ****** ****** ****** ****** ****** ****** ****** ******
  24  ****** ****** ****** ****** ****** ****** ****** ****** ****** ******
      ****** ****** ****** ****** ****** ****** ****** ****** ****** ******
      ****** ****** ****** ****** ****** ****** ****** ****** ****** ******
  25  ****** ****** ****** ****** ****** ****** ****** ****** ****** ******
      ****** ****** ****** ****** ****** ****** ****** ****** ****** ******
      ****** ****** ****** ****** ****** ****** ****** ****** ****** ******

 HEAD WILL BE SAVED ON UNIT   51 AT END OF TIME STEP    1, STRESS PERIOD    9
1
  VOLUMETRIC BUDGET FOR ENTIRE MODEL AT END OF TIME STEP    1, STRESS PERIOD   9
  ------------------------------------------------------------------------------

     CUMULATIVE VOLUMES      L**3       RATES FOR THIS TIME STEP      L**3/T
     ------------------                 ------------------------

           IN:                                      IN:
           ---                                      ---
             STORAGE =    33823088.1435               STORAGE =        7093.7387
       CONSTANT HEAD =    22151203.0674         CONSTANT HEAD =       33832.6545
               WELLS =           0.0000                 WELLS =           0.0000
            RECHARGE =    18878400.0000              RECHARGE =       13800.0000
      STREAM LEAKAGE =    10574658.5685        STREAM LEAKAGE =       17551.6739

            TOTAL IN =    85427349.7795              TOTAL IN =       72278.0671

          OUT:                                     OUT:
          ----                                     ----
             STORAGE =      959553.4087               STORAGE =           0.0000
       CONSTANT HEAD =           0.0000         CONSTANT HEAD =           0.0000
               WELLS =    35455911.4250                 WELLS =       43133.7122
            RECHARGE =           0.0000              RECHARGE =           0.0000
      STREAM LEAKAGE =    49011886.8397        STREAM LEAKAGE =       29144.3557

           TOTAL OUT =    85427351.6734             TOTAL OUT =       72278.0679

            IN - OUT =          -1.8940              IN - OUT =      -7.7692E-04

 PERCENT DISCREPANCY =          -0.00     PERCENT DISCREPANCY =          -0.00






         TIME SUMMARY AT END OF TIME STEP    1 IN STRESS PERIOD    9
                    SECONDS     MINUTES      HOURS       DAYS        YEARS
                    -----------------------------------------------------------
   TIME STEP LENGTH 7.94880E+06 1.32480E+05  2208.0      92.000     0.25188    
 STRESS PERIOD TIME 7.94880E+06 1.32480E+05  2208.0      92.000     0.25188    
         TOTAL TIME 7.10208E+07 1.18368E+06  19728.      822.00      2.2505    
1
1
                            STRESS PERIOD NO.   10, LENGTH =   91.00000    
                            -----------------------------------------------

                              NUMBER OF TIME STEPS =     1

                               MULTIPLIER FOR DELT =     1.500

                            INITIAL TIME STEP SIZE =   91.00000    

 WELL NO.  LAYER   ROW   COL   STRESS RATE         
 --------------------------------------------------
      1      1     15     19     -0.1065E+05
      2      1     15     28      -8067.    
      3      1     19     14      -9238.    
      4      1      9     25     -0.1518E+05

      4 WELLS

                 RECHARGE =  2.000000E-03

 REUSING STREAM SEGMENT DATA FROM LAST STRESS PERIOD
 
 SOLVING FOR HEAD 


     7 CALLS TO PCG ROUTINE FOR TIME STEP   1 IN STRESS PERIOD   10
    26 TOTAL ITERATIONS

 OUTPUT CONTROL FOR STRESS PERIOD   10   TIME STEP    1
    SAVE BUDGET
    SAVE HEAD FOR ALL LAYERS
    PRINT HEAD FOR ALL LAYERS
 UBDSV2 SAVING "STREAMFLOW OUT  " ON UNIT  50 AT TIME STEP  1, STRESS PERIOD  10



 STREAM LISTING     PERIOD     10   STEP        1

 LAYER ROW COL. STREAM  RCH.  FLOW INTO     FLOW TO   FLOW OUT OF   OVRLND.     DIRECT     STREAM       STREAM     STREAM     STREAM   STREAMBED  STREAMBED
                SEG.NO.  NO.  STRM. RCH.    AQUIFER    STRM. RCH.    RUNOFF     PRECIP       ET          HEAD       DEPTH      WIDTH   CONDCTNC.   GRADIENT

   1   13    1     1     1    1.0000E+05 -2.0885E+03   1.0209E+05  0.000E+00  0.000E+00  0.000E+00  4.84069E+01  1.456E-01  2.000E+01  2.000E+04 -1.044E-01
   1   13    2     1     2    1.0209E+05 -3.0859E+03   1.0517E+05  0.000E+00  0.000E+00  0.000E+00  4.79319E+01  1.478E-01  2.000E+01  2.000E+04 -1.543E-01
   1   14    3     1     3    1.0517E+05 -5.8144E+02   1.0576E+05  0.000E+00  0.000E+00  0.000E+00  4.74562E+01  1.493E-01  2.000E+01  2.000E+04 -2.907E-02
   1   15    4     1     4    1.0576E+05 -5.5348E+02   1.0631E+05  0.000E+00  0.000E+00  0.000E+00  4.69794E+01  1.498E-01  2.000E+01  2.000E+04 -2.767E-02
   1   16    5     1     5    1.0631E+05 -1.8353E+03   1.0814E+05  0.000E+00  0.000E+00  0.000E+00  4.65031E+01  1.508E-01  2.000E+01  2.000E+04 -9.177E-02
   1   16    6     1     6    1.0814E+05 -1.1221E+03   1.0927E+05  0.000E+00  0.000E+00  0.000E+00  4.60271E+01  1.521E-01  2.000E+01  2.000E+04 -5.611E-02
   1   16    7     1     7    1.0927E+05 -1.0544E+03   1.1032E+05  0.000E+00  0.000E+00  0.000E+00  4.55507E+01  1.530E-01  2.000E+01  2.000E+04 -5.272E-02
   1   16    8     1     8    1.1032E+05 -9.8558E+02   1.1131E+05  0.000E+00  0.000E+00  0.000E+00  4.50743E+01  1.538E-01  2.000E+01  2.000E+04 -4.928E-02
   1   16    9     1     9    1.1131E+05 -8.8621E+02   1.1219E+05  0.000E+00  0.000E+00  0.000E+00  4.45978E+01  1.546E-01  2.000E+01  2.000E+04 -4.431E-02
   1   16   10     1    10    1.1219E+05 -7.3825E+02   1.1293E+05  0.000E+00  0.000E+00  0.000E+00  4.41212E+01  1.553E-01  2.000E+01  2.000E+04 -3.691E-02
   1   16   11     1    11    1.1293E+05 -5.1673E+02   1.1345E+05  0.000E+00  0.000E+00  0.000E+00  4.36445E+01  1.558E-01  2.000E+01  2.000E+04 -2.584E-02
   1   16   12     1    12    1.1345E+05 -3.7484E+02   1.1382E+05  0.000E+00  0.000E+00  0.000E+00  4.31675E+01  1.562E-01  2.000E+01  2.000E+04 -1.874E-02
   1   15   13     1    13    1.1382E+05 -7.1283E+02   1.1454E+05  0.000E+00  0.000E+00  0.000E+00  4.26907E+01  1.566E-01  2.000E+01  2.000E+04 -3.564E-02
   1   14   14     1    14    1.1454E+05 -1.2101E+03   1.1575E+05  0.000E+00  0.000E+00  0.000E+00  4.22142E+01  1.574E-01  2.000E+01  2.000E+04 -6.051E-02
   1   13   15     1    15    1.1575E+05 -1.6815E+03   1.1743E+05  0.000E+00  0.000E+00  0.000E+00  4.17381E+01  1.586E-01  2.000E+01  2.000E+04 -8.407E-02
   1   12   16     1    16    1.1743E+05 -2.7226E+03   1.2015E+05  0.000E+00  0.000E+00  0.000E+00  4.12627E+01  1.604E-01  2.000E+01  2.000E+04 -1.361E-01
   1   12   17     1    17    1.2015E+05 -1.3944E+03   1.2154E+05  0.000E+00  0.000E+00  0.000E+00  4.07871E+01  1.621E-01  2.000E+01  2.000E+04 -6.972E-02
   1   12   18     1    18    1.2154E+05 -1.0821E+03   1.2263E+05  0.000E+00  0.000E+00  0.000E+00  4.03108E+01  1.631E-01  2.000E+01  2.000E+04 -5.410E-02
   1   12   19     1    19    1.2263E+05 -1.4987E+03   1.2412E+05  0.000E+00  0.000E+00  0.000E+00  3.98345E+01  1.641E-01  2.000E+01  2.000E+04 -7.494E-02
   1   13   20     1    20    1.2412E+05  1.7201E+02   1.2395E+05  0.000E+00  0.000E+00  0.000E+00  3.93578E+01  1.646E-01  2.000E+01  2.000E+04  8.600E-03
   1   14   21     1    21    1.2395E+05  6.7638E+02   1.2328E+05  0.000E+00  0.000E+00  0.000E+00  3.88802E+01  1.643E-01  2.000E+01  2.000E+04  3.382E-02
   1   14   22     1    22    1.2328E+05  5.2126E+03   1.1806E+05  0.000E+00  0.000E+00  0.000E+00  3.84006E+01  1.619E-01  2.000E+01  2.000E+04  2.606E-01
   1    9   30     2     1    5.0000E+04 -1.9384E+02   5.0194E+04  0.000E+00  0.000E+00  0.000E+00  4.02410E+01  1.160E-01  2.000E+01  2.000E+04 -9.692E-03
   1    9   29     2     2    5.0194E+04 -4.5238E+02   5.0646E+04  0.000E+00  0.000E+00  0.000E+00  3.99914E+01  1.164E-01  2.000E+01  2.000E+04 -2.262E-02
   1    9   28     2     3    5.0646E+04 -5.5255E+02   5.1199E+04  0.000E+00  0.000E+00  0.000E+00  3.97421E+01  1.171E-01  2.000E+01  2.000E+04 -2.763E-02
   1    9   27     2     4    5.1199E+04  3.2744E+02   5.0871E+04  0.000E+00  0.000E+00  0.000E+00  3.94923E+01  1.173E-01  2.000E+01  2.000E+04  1.637E-02
   1   10   26     2     5    5.0871E+04  2.4393E+03   4.8432E+04  0.000E+00  0.000E+00  0.000E+00  3.92404E+01  1.154E-01  2.000E+01  2.000E+04  1.220E-01
   1   11   25     2     6    4.8432E+04  1.2070E+03   4.7225E+04  0.000E+00  0.000E+00  0.000E+00  3.89878E+01  1.128E-01  2.000E+01  2.000E+04  6.035E-02
   1   12   24     2     7    4.7225E+04 -6.6980E+02   4.7895E+04  0.000E+00  0.000E+00  0.000E+00  3.87374E+01  1.124E-01  2.000E+01  2.000E+04 -3.349E-02
   1   13   23     2     8    4.7895E+04 -2.5572E+02   4.8151E+04  0.000E+00  0.000E+00  0.000E+00  3.84881E+01  1.131E-01  2.000E+01  2.000E+04 -1.279E-02
   1   14   22     2     9    4.8151E+04  1.9396E+03   4.6211E+04  0.000E+00  0.000E+00  0.000E+00  3.82369E+01  1.119E-01  2.000E+01  2.000E+04  9.698E-02
   1   14   22     3     1    1.6428E+05 -8.4044E+03   1.7268E+05  0.000E+00  0.000E+00  0.000E+00  3.77197E+01  1.641E-01  2.000E+01  2.000E+04 -4.202E-01
   1   15   23     3     2    1.7268E+05 -3.8739E+02   1.7307E+05  0.000E+00  0.000E+00  0.000E+00  3.68334E+01  1.667E-01  2.000E+01  2.000E+04 -1.937E-02
   1   15   24     3     3    1.7307E+05 -3.1163E+02   1.7338E+05  0.000E+00  0.000E+00  0.000E+00  3.59447E+01  1.669E-01  2.000E+01  2.000E+04 -1.558E-02
   1   15   25     3     4    1.7338E+05 -3.0847E+02   1.7369E+05  0.000E+00  0.000E+00  0.000E+00  3.50560E+01  1.671E-01  2.000E+01  2.000E+04 -1.542E-02
   1   15   26     3     5    1.7369E+05 -8.9194E+01   1.7378E+05  0.000E+00  0.000E+00  0.000E+00  3.41672E+01  1.672E-01  2.000E+01  2.000E+04 -4.460E-03
   1   16   27     3     6    1.7378E+05  2.2916E+02   1.7355E+05  0.000E+00  0.000E+00  0.000E+00  3.32783E+01  1.672E-01  2.000E+01  2.000E+04  1.146E-02
   1   17   28     3     7    1.7355E+05  1.1629E+03   1.7238E+05  0.000E+00  0.000E+00  0.000E+00  3.23890E+01  1.668E-01  2.000E+01  2.000E+04  5.814E-02
   1   18   29     3     8    1.7238E+05 -2.2780E+03   1.7466E+05  0.000E+00  0.000E+00  0.000E+00  3.15004E+01  1.671E-01  2.000E+01  2.000E+04 -1.139E-01
   1   18   30     3     9    1.7466E+05 -2.4950E+03   1.7716E+05  0.000E+00  0.000E+00  0.000E+00  3.06129E+01  1.685E-01  2.000E+01  2.000E+04 -1.248E-01



1
              HEAD IN LAYER   1 AT END OF TIME STEP   1 IN STRESS PERIOD   10
  ---------------------------------------------------------------------------

          1      2      3      4      5      6      7      8      9     10
         11     12     13     14     15     16     17     18     19     20
         21     22     23     24     25     26     27     28     29     30
 .........................................................................
   1  ****** ****** ****** ****** ****** ****** ****** ****** ****** ******
      ****** ****** ****** ****** ****** ****** ****** ****** ****** ******
      ****** ****** ****** ****** ****** ****** ****** ****** ****** ******
   2  ****** ****** ****** ****** ****** ****** ****** ****** ****** ******
      ****** ****** ****** ****** ****** ****** ****** ****** ****** ******
      ****** ****** ****** ****** ****** ****** ****** ****** ****** ******
   3  ****** ****** ****** ****** ****** ****** ****** ****** ****** ******
      ****** ****** ****** ****** ****** ****** ****** ****** ****** ******
      ****** ****** ****** ****** ****** ****** ****** ****** ****** ******
   4  ****** ****** ****** ****** ****** ****** ****** ****** ****** ******
      ****** ****** ****** ****** ****** ****** ****** ****** ****** ******
      ****** ****** ****** ****** ****** ****** ****** ****** ****** ******
   5  ****** ****** ****** ****** ****** ****** ****** ****** ****** ******
      ****** ****** ****** ****** ****** ****** ****** ****** ****** ******
      ****** ****** ****** ****** ****** ****** ****** ****** ****** ******
   6  ****** ****** ****** ****** ****** ****** ****** ****** ****** ******
      ****** ****** ****** ****** ****** ****** ****** ****** ****** ******
      ****** ****** ****** ****** ****** ****** ****** ****** ****** ******
   7  ****** ****** ****** ****** ****** ****** ****** ****** ****** ******
      ****** ****** ****** ****** ****** ****** ****** ****** ****** ******
      ****** ****** ****** ****** ****** ****** ****** ****** ****** ******
   8  ****** ****** ****** ****** ****** ****** ****** ****** ****** ******
      ****** ****** ****** ****** ****** ****** ****** ****** ****** ******
      ****** ****** ****** ****** ****** ****** ****** ****** ****** ******
   9  ****** ****** ****** ****** ****** ****** ****** ****** ****** ******
      ****** ****** ****** ****** ****** ****** ****** ****** ****** ******
      ****** ****** ****** ****** ****** ****** ****** ****** ****** ******
  10  ****** ****** ****** ****** ****** ****** ****** ****** ****** ******
      ****** ****** ****** ****** ****** ****** ****** ****** ****** ******
      ****** ****** ****** ****** ****** ****** ****** ****** ****** ******
  11  ****** ****** ****** ****** ****** ****** ****** ****** ****** ******
      ****** ****** ****** ****** ****** ****** ****** ****** ****** ******
      ****** ****** ****** ****** ****** ****** ****** ****** ****** ******
  12  ****** ****** ****** ****** ****** ****** ****** ****** ****** ******
      ****** ****** ****** ****** ****** ****** ****** ****** ****** ******
      ****** ****** ****** ****** ****** ****** ****** ****** ****** ******
  13  ****** ****** ****** ****** ****** ****** ****** ****** ****** ******
      ****** ****** ****** ****** ****** ****** ****** ****** ****** ******
      ****** ****** ****** ****** ****** ****** ****** ****** ****** ******
  14  ****** ****** ****** ****** ****** ****** ****** ****** ****** ******
      ****** ****** ****** ****** ****** ****** ****** ****** ****** ******
      ****** ****** ****** ****** ****** ****** ****** ****** ****** ******
  15  ****** ****** ****** ****** ****** ****** ****** ****** ****** ******
      ****** ****** ****** ****** ****** ****** ****** ****** ****** ******
      ****** ****** ****** ****** ****** ****** ****** ****** ****** ******
  16  ****** ****** ****** ****** ****** ****** ****** ****** ****** ******
      ****** ****** ****** ****** ****** ****** ****** ****** ****** ******
      ****** ****** ****** ****** ****** ****** ****** ****** ****** ******
  17  ****** ****** ****** ****** ****** ****** ****** ****** ****** ******
      ****** ****** ****** ****** ****** ****** ****** ****** ****** ******
      ****** ****** ****** ****** ****** ****** ****** ****** ****** ******
  18  ****** ****** ****** ****** ****** ****** ****** ****** ****** ******
      ****** ****** ****** ****** ****** ****** ****** ****** ****** ******
      ****** ****** ****** ****** ****** ****** ****** ****** ****** ******
  19  ****** ****** ****** ****** ****** ****** ****** ****** ****** ******
      ****** ****** ****** ****** ****** ****** ****** ****** ****** ******
      ****** ****** ****** ****** ****** ****** ****** ****** ****** ******
  20  ****** ****** ****** ****** ****** ****** ****** ****** ****** ******
      ****** ****** ****** ****** ****** ****** ****** ****** ****** ******
      ****** ****** ****** ****** ****** ****** ****** ****** ****** ******
  21  ****** ****** ****** ****** ****** ****** ****** ****** ****** ******
      ****** ****** ****** ****** ****** ****** ****** ****** ****** ******
      ****** ****** ****** ****** ****** ****** ****** ****** ****** ******
  22  ****** ****** ****** ****** ****** ****** ****** ****** ****** ******
      ****** ****** ****** ****** ****** ****** ****** ****** ****** ******
      ****** ****** ****** ****** ****** ****** ****** ****** ****** ******
  23  ****** ****** ****** ****** ****** ****** ****** ****** ****** ******
      ****** ****** ****** ****** ****** ****** ****** ****** ****** ******
      ****** ****** ****** ****** ****** ****** ****** ****** ****** ******
  24  ****** ****** ****** ****** ****** ****** ****** ****** ****** ******
      ****** ****** ****** ****** ****** ****** ****** ****** ****** ******
      ****** ****** ****** ****** ****** ****** ****** ****** ****** ******
  25  ****** ****** ****** ****** ****** ****** ****** ****** ****** ******
      ****** ****** ****** ****** ****** ****** ****** ****** ****** ******
      ****** ****** ****** ****** ****** ****** ****** ****** ****** ******

 HEAD WILL BE SAVED ON UNIT   51 AT END OF TIME STEP    1, STRESS PERIOD   10
1
  VOLUMETRIC BUDGET FOR ENTIRE MODEL AT END OF TIME STEP    1, STRESS PERIOD  10
  ------------------------------------------------------------------------------

     CUMULATIVE VOLUMES      L**3       RATES FOR THIS TIME STEP      L**3/T
     ------------------                 ------------------------

           IN:                                      IN:
           ---                                      ---
             STORAGE =    33823088.1435               STORAGE =           0.0000
       CONSTANT HEAD =    24960434.6530         CONSTANT HEAD =       30870.6768
               WELLS =           0.0000                 WELLS =           0.0000
            RECHARGE =    23901600.0000              RECHARGE =       55200.0000
      STREAM LEAKAGE =    11790987.6740        STREAM LEAKAGE =       13366.2539

            TOTAL IN =    94476110.4705              TOTAL IN =       99436.9307

          OUT:                                     OUT:
          ----                                     ----
             STORAGE =     2395513.7927               STORAGE =       15779.7844
       CONSTANT HEAD =           0.0000         CONSTANT HEAD =           0.0000
               WELLS =    39381079.2348                 WELLS =       43133.7122
            RECHARGE =           0.0000              RECHARGE =           0.0000
      STREAM LEAKAGE =    52699519.0337        STREAM LEAKAGE =       40523.4307

           TOTAL OUT =    94476112.0612             TOTAL OUT =       99436.9273

            IN - OUT =          -1.5907              IN - OUT =       3.3333E-03

 PERCENT DISCREPANCY =          -0.00     PERCENT DISCREPANCY =           0.00






         TIME SUMMARY AT END OF TIME STEP    1 IN STRESS PERIOD   10
                    SECONDS     MINUTES      HOURS       DAYS        YEARS
                    -----------------------------------------------------------
   TIME STEP LENGTH 7.86240E+06 1.31040E+05  2184.0      91.000     0.24914    
 STRESS PERIOD TIME 7.86240E+06 1.31040E+05  2184.0      91.000     0.24914    
         TOTAL TIME 7.88832E+07 1.31472E+06  21912.      913.00      2.4997    
1
1
                            STRESS PERIOD NO.   11, LENGTH =   91.00000    
                            -----------------------------------------------

                              NUMBER OF TIME STEPS =     1

                               MULTIPLIER FOR DELT =     1.500

                            INITIAL TIME STEP SIZE =   91.00000    

 WELL NO.  LAYER   ROW   COL   STRESS RATE         
 --------------------------------------------------
      1      1     15     19     -0.1065E+05
      2      1     15     28      -8067.    
      3      1     19     14      -9238.    
      4      1      9     25     -0.1518E+05

      4 WELLS

                 RECHARGE =   0.00000    

 REUSING STREAM SEGMENT DATA FROM LAST STRESS PERIOD
 
 SOLVING FOR HEAD 


     7 CALLS TO PCG ROUTINE FOR TIME STEP   1 IN STRESS PERIOD   11
    26 TOTAL ITERATIONS

 OUTPUT CONTROL FOR STRESS PERIOD   11   TIME STEP    1
    SAVE BUDGET
    SAVE HEAD FOR ALL LAYERS
    PRINT HEAD FOR ALL LAYERS
 UBDSV2 SAVING "STREAMFLOW OUT  " ON UNIT  50 AT TIME STEP  1, STRESS PERIOD  11



 STREAM LISTING     PERIOD     11   STEP        1

 LAYER ROW COL. STREAM  RCH.  FLOW INTO     FLOW TO   FLOW OUT OF   OVRLND.     DIRECT     STREAM       STREAM     STREAM     STREAM   STREAMBED  STREAMBED
                SEG.NO.  NO.  STRM. RCH.    AQUIFER    STRM. RCH.    RUNOFF     PRECIP       ET          HEAD       DEPTH      WIDTH   CONDCTNC.   GRADIENT

   1   13    1     1     1    1.0000E+05 -1.5228E+03   1.0152E+05  0.000E+00  0.000E+00  0.000E+00  4.84067E+01  1.453E-01  2.000E+01  2.000E+04 -7.614E-02
   1   13    2     1     2    1.0152E+05 -2.4560E+03   1.0398E+05  0.000E+00  0.000E+00  0.000E+00  4.79311E+01  1.470E-01  2.000E+01  2.000E+04 -1.228E-01
   1   14    3     1     3    1.0398E+05 -3.5089E+02   1.0433E+05  0.000E+00  0.000E+00  0.000E+00  4.74550E+01  1.482E-01  2.000E+01  2.000E+04 -1.754E-02
   1   15    4     1     4    1.0433E+05 -3.1185E+02   1.0464E+05  0.000E+00  0.000E+00  0.000E+00  4.69781E+01  1.485E-01  2.000E+01  2.000E+04 -1.559E-02
   1   16    5     1     5    1.0464E+05 -1.1475E+03   1.0579E+05  0.000E+00  0.000E+00  0.000E+00  4.65014E+01  1.491E-01  2.000E+01  2.000E+04 -5.738E-02
   1   16    6     1     6    1.0579E+05 -7.0801E+02   1.0650E+05  0.000E+00  0.000E+00  0.000E+00  4.60249E+01  1.499E-01  2.000E+01  2.000E+04 -3.540E-02
   1   16    7     1     7    1.0650E+05 -6.5787E+02   1.0715E+05  0.000E+00  0.000E+00  0.000E+00  4.55482E+01  1.505E-01  2.000E+01  2.000E+04 -3.289E-02
   1   16    8     1     8    1.0715E+05 -5.9458E+02   1.0775E+05  0.000E+00  0.000E+00  0.000E+00  4.50715E+01  1.510E-01  2.000E+01  2.000E+04 -2.973E-02
   1   16    9     1     9    1.0775E+05 -4.9740E+02   1.0825E+05  0.000E+00  0.000E+00  0.000E+00  4.45947E+01  1.515E-01  2.000E+01  2.000E+04 -2.487E-02
   1   16   10     1    10    1.0825E+05 -3.5045E+02   1.0860E+05  0.000E+00  0.000E+00  0.000E+00  4.41178E+01  1.518E-01  2.000E+01  2.000E+04 -1.752E-02
   1   16   11     1    11    1.0860E+05 -1.2703E+02   1.0872E+05  0.000E+00  0.000E+00  0.000E+00  4.36407E+01  1.520E-01  2.000E+01  2.000E+04 -6.351E-03
   1   16   12     1    12    1.0872E+05  2.7081E+02   1.0845E+05  0.000E+00  0.000E+00  0.000E+00  4.31633E+01  1.520E-01  2.000E+01  2.000E+04  1.354E-02
   1   15   13     1    13    1.0845E+05 -2.4877E+01   1.0848E+05  0.000E+00  0.000E+00  0.000E+00  4.26860E+01  1.519E-01  2.000E+01  2.000E+04 -1.244E-03
   1   14   14     1    14    1.0848E+05 -5.0481E+02   1.0898E+05  0.000E+00  0.000E+00  0.000E+00  4.22089E+01  1.521E-01  2.000E+01  2.000E+04 -2.524E-02
   1   13   15     1    15    1.0898E+05 -9.8207E+02   1.0997E+05  0.000E+00  0.000E+00  0.000E+00  4.17323E+01  1.527E-01  2.000E+01  2.000E+04 -4.910E-02
   1   12   16     1    16    1.0997E+05 -2.0472E+03   1.1201E+05  0.000E+00  0.000E+00  0.000E+00  4.12563E+01  1.540E-01  2.000E+01  2.000E+04 -1.024E-01
   1   12   17     1    17    1.1201E+05 -8.8854E+02   1.1290E+05  0.000E+00  0.000E+00  0.000E+00  4.07802E+01  1.552E-01  2.000E+01  2.000E+04 -4.443E-02
   1   12   18     1    18    1.1290E+05 -5.8376E+02   1.1348E+05  0.000E+00  0.000E+00  0.000E+00  4.03035E+01  1.558E-01  2.000E+01  2.000E+04 -2.919E-02
   1   12   19     1    19    1.1348E+05 -8.8699E+02   1.1437E+05  0.000E+00  0.000E+00  0.000E+00  3.98269E+01  1.564E-01  2.000E+01  2.000E+04 -4.435E-02
   1   13   20     1    20    1.1437E+05  7.8408E+02   1.1359E+05  0.000E+00  0.000E+00  0.000E+00  3.93496E+01  1.565E-01  2.000E+01  2.000E+04  3.920E-02
   1   14   21     1    21    1.1359E+05  1.2735E+03   1.1231E+05  0.000E+00  0.000E+00  0.000E+00  3.88715E+01  1.556E-01  2.000E+01  2.000E+04  6.367E-02
   1   14   22     1    22    1.1231E+05  5.3622E+03   1.0695E+05  0.000E+00  0.000E+00  0.000E+00  3.83915E+01  1.529E-01  2.000E+01  2.000E+04  2.681E-01
   1    9   30     2     1    5.0000E+04  2.9401E+02   4.9706E+04  0.000E+00  0.000E+00  0.000E+00  4.02407E+01  1.157E-01  2.000E+01  2.000E+04  1.470E-02
   1    9   29     2     2    4.9706E+04  3.2411E+01   4.9674E+04  0.000E+00  0.000E+00  0.000E+00  3.99904E+01  1.154E-01  2.000E+01  2.000E+04  1.621E-03
   1    9   28     2     3    4.9674E+04 -6.9991E+01   4.9744E+04  0.000E+00  0.000E+00  0.000E+00  3.97405E+01  1.155E-01  2.000E+01  2.000E+04 -3.500E-03
   1    9   27     2     4    4.9744E+04  9.6660E+02   4.8777E+04  0.000E+00  0.000E+00  0.000E+00  3.94898E+01  1.148E-01  2.000E+01  2.000E+04  4.833E-02
   1   10   26     2     5    4.8777E+04  3.0929E+03   4.5684E+04  0.000E+00  0.000E+00  0.000E+00  3.92370E+01  1.120E-01  2.000E+01  2.000E+04  1.546E-01
   1   11   25     2     6    4.5684E+04  1.8367E+03   4.3847E+04  0.000E+00  0.000E+00  0.000E+00  3.89834E+01  1.084E-01  2.000E+01  2.000E+04  9.183E-02
   1   12   24     2     7    4.3847E+04 -9.7162E+01   4.3945E+04  0.000E+00  0.000E+00  0.000E+00  3.87322E+01  1.072E-01  2.000E+01  2.000E+04 -4.858E-03
   1   13   23     2     8    4.3945E+04 -7.0008E+01   4.4015E+04  0.000E+00  0.000E+00  0.000E+00  3.84823E+01  1.073E-01  2.000E+01  2.000E+04 -3.500E-03
   1   14   22     2     9    4.4015E+04  2.1474E+03   4.1867E+04  0.000E+00  0.000E+00  0.000E+00  3.82308E+01  1.058E-01  2.000E+01  2.000E+04  1.074E-01
   1   14   22     3     1    1.4882E+05 -8.2587E+03   1.5708E+05  0.000E+00  0.000E+00  0.000E+00  3.77104E+01  1.549E-01  2.000E+01  2.000E+04 -4.129E-01
   1   15   23     3     2    1.5708E+05 -1.9532E+02   1.5727E+05  0.000E+00  0.000E+00  0.000E+00  3.68241E+01  1.574E-01  2.000E+01  2.000E+04 -9.766E-03
   1   15   24     3     3    1.5727E+05 -1.4650E+02   1.5742E+05  0.000E+00  0.000E+00  0.000E+00  3.59353E+01  1.575E-01  2.000E+01  2.000E+04 -7.325E-03
   1   15   25     3     4    1.5742E+05 -1.3951E+02   1.5756E+05  0.000E+00  0.000E+00  0.000E+00  3.50465E+01  1.576E-01  2.000E+01  2.000E+04 -6.976E-03
   1   15   26     3     5    1.5756E+05  1.0648E+02   1.5745E+05  0.000E+00  0.000E+00  0.000E+00  3.41576E+01  1.576E-01  2.000E+01  2.000E+04  5.324E-03
   1   16   27     3     6    1.5745E+05  4.5217E+02   1.5700E+05  0.000E+00  0.000E+00  0.000E+00  3.32686E+01  1.575E-01  2.000E+01  2.000E+04  2.261E-02
   1   17   28     3     7    1.5700E+05  1.7726E+03   1.5523E+05  0.000E+00  0.000E+00  0.000E+00  3.23790E+01  1.568E-01  2.000E+01  2.000E+04  8.863E-02
   1   18   29     3     8    1.5523E+05 -1.6560E+03   1.5688E+05  0.000E+00  0.000E+00  0.000E+00  3.14901E+01  1.568E-01  2.000E+01  2.000E+04 -8.280E-02
   1   18   30     3     9    1.5688E+05 -2.0059E+03   1.5889E+05  0.000E+00  0.000E+00  0.000E+00  3.06023E+01  1.579E-01  2.000E+01  2.000E+04 -1.003E-01



1
              HEAD IN LAYER   1 AT END OF TIME STEP   1 IN STRESS PERIOD   11
  ---------------------------------------------------------------------------

          1      2      3      4      5      6      7      8      9     10
         11     12     13     14     15     16     17     18     19     20
         21     22     23     24     25     26     27     28     29     30
 .........................................................................
   1  ****** ****** ****** ****** ****** ****** ****** ****** ****** ******
      ****** ****** ****** ****** ****** ****** ****** ****** ****** ******
      ****** ****** ****** ****** ****** ****** ****** ****** ****** ******
   2  ****** ****** ****** ****** ****** ****** ****** ****** ****** ******
      ****** ****** ****** ****** ****** ****** ****** ****** ****** ******
      ****** ****** ****** ****** ****** ****** ****** ****** ****** ******
   3  ****** ****** ****** ****** ****** ****** ****** ****** ****** ******
      ****** ****** ****** ****** ****** ****** ****** ****** ****** ******
      ****** ****** ****** ****** ****** ****** ****** ****** ****** ******
   4  ****** ****** ****** ****** ****** ****** ****** ****** ****** ******
      ****** ****** ****** ****** ****** ****** ****** ****** ****** ******
      ****** ****** ****** ****** ****** ****** ****** ****** ****** ******
   5  ****** ****** ****** ****** ****** ****** ****** ****** ****** ******
      ****** ****** ****** ****** ****** ****** ****** ****** ****** ******
      ****** ****** ****** ****** ****** ****** ****** ****** ****** ******
   6  ****** ****** ****** ****** ****** ****** ****** ****** ****** ******
      ****** ****** ****** ****** ****** ****** ****** ****** ****** ******
      ****** ****** ****** ****** ****** ****** ****** ****** ****** ******
   7  ****** ****** ****** ****** ****** ****** ****** ****** ****** ******
      ****** ****** ****** ****** ****** ****** ****** ****** ****** ******
      ****** ****** ****** ****** ****** ****** ****** ****** ****** ******
   8  ****** ****** ****** ****** ****** ****** ****** ****** ****** ******
      ****** ****** ****** ****** ****** ****** ****** ****** ****** ******
      ****** ****** ****** ****** ****** ****** ****** ****** ****** ******
   9  ****** ****** ****** ****** ****** ****** ****** ****** ****** ******
      ****** ****** ****** ****** ****** ****** ****** ****** ****** ******
      ****** ****** ****** ****** ****** ****** ****** ****** ****** ******
  10  ****** ****** ****** ****** ****** ****** ****** ****** ****** ******
      ****** ****** ****** ****** ****** ****** ****** ****** ****** ******
      ****** ****** ****** ****** ****** ****** ****** ****** ****** ******
  11  ****** ****** ****** ****** ****** ****** ****** ****** ****** ******
      ****** ****** ****** ****** ****** ****** ****** ****** ****** ******
      ****** ****** ****** ****** ****** ****** ****** ****** ****** ******
  12  ****** ****** ****** ****** ****** ****** ****** ****** ****** ******
      ****** ****** ****** ****** ****** ****** ****** ****** ****** ******
      ****** ****** ****** ****** ****** ****** ****** ****** ****** ******
  13  ****** ****** ****** ****** ****** ****** ****** ****** ****** ******
      ****** ****** ****** ****** ****** ****** ****** ****** ****** ******
      ****** ****** ****** ****** ****** ****** ****** ****** ****** ******
  14  ****** ****** ****** ****** ****** ****** ****** ****** ****** ******
      ****** ****** ****** ****** ****** ****** ****** ****** ****** ******
      ****** ****** ****** ****** ****** ****** ****** ****** ****** ******
  15  ****** ****** ****** ****** ****** ****** ****** ****** ****** ******
      ****** ****** ****** ****** ****** ****** ****** ****** ****** ******
      ****** ****** ****** ****** ****** ****** ****** ****** ****** ******
  16  ****** ****** ****** ****** ****** ****** ****** ****** ****** ******
      ****** ****** ****** ****** ****** ****** ****** ****** ****** ******
      ****** ****** ****** ****** ****** ****** ****** ****** ****** ******
  17  ****** ****** ****** ****** ****** ****** ****** ****** ****** ******
      ****** ****** ****** ****** ****** ****** ****** ****** ****** ******
      ****** ****** ****** ****** ****** ****** ****** ****** ****** ******
  18  ****** ****** ****** ****** ****** ****** ****** ****** ****** ******
      ****** ****** ****** ****** ****** ****** ****** ****** ****** ******
      ****** ****** ****** ****** ****** ****** ****** ****** ****** ******
  19  ****** ****** ****** ****** ****** ****** ****** ****** ****** ******
      ****** ****** ****** ****** ****** ****** ****** ****** ****** ******
      ****** ****** ****** ****** ****** ****** ****** ****** ****** ******
  20  ****** ****** ****** ****** ****** ****** ****** ****** ****** ******
      ****** ****** ****** ****** ****** ****** ****** ****** ****** ******
      ****** ****** ****** ****** ****** ****** ****** ****** ****** ******
  21  ****** ****** ****** ****** ****** ****** ****** ****** ****** ******
      ****** ****** ****** ****** ****** ****** ****** ****** ****** ******
      ****** ****** ****** ****** ****** ****** ****** ****** ****** ******
  22  ****** ****** ****** ****** ****** ****** ****** ****** ****** ******
      ****** ****** ****** ****** ****** ****** ****** ****** ****** ******
      ****** ****** ****** ****** ****** ****** ****** ****** ****** ******
  23  ****** ****** ****** ****** ****** ****** ****** ****** ****** ******
      ****** ****** ****** ****** ****** ****** ****** ****** ****** ******
      ****** ****** ****** ****** ****** ****** ****** ****** ****** ******
  24  ****** ****** ****** ****** ****** ****** ****** ****** ****** ******
      ****** ****** ****** ****** ****** ****** ****** ****** ****** ******
      ****** ****** ****** ****** ****** ****** ****** ****** ****** ******
  25  ****** ****** ****** ****** ****** ****** ****** ****** ****** ******
      ****** ****** ****** ****** ****** ****** ****** ****** ****** ******
      ****** ****** ****** ****** ****** ****** ****** ****** ****** ******

 HEAD WILL BE SAVED ON UNIT   51 AT END OF TIME STEP    1, STRESS PERIOD   11
1
  VOLUMETRIC BUDGET FOR ENTIRE MODEL AT END OF TIME STEP    1, STRESS PERIOD  11
  ------------------------------------------------------------------------------

     CUMULATIVE VOLUMES      L**3       RATES FOR THIS TIME STEP      L**3/T
     ------------------                 ------------------------

           IN:                                      IN:
           ---                                      ---
             STORAGE =    35449626.5450               STORAGE =       17874.0484
       CONSTANT HEAD =    28068048.2001         CONSTANT HEAD =       34149.5994
               WELLS =           0.0000                 WELLS =           0.0000
            RECHARGE =    23901600.0000              RECHARGE =           0.0000
      STREAM LEAKAGE =    13464642.4866        STREAM LEAKAGE =       18391.8111

            TOTAL IN =   100883917.2317              TOTAL IN =       70415.4589

          OUT:                                     OUT:
          ----                                     ----
             STORAGE =     2395513.7927               STORAGE =           0.0000
       CONSTANT HEAD =           0.0000         CONSTANT HEAD =           0.0000
               WELLS =    43306247.0446                 WELLS =       43133.7122
            RECHARGE =           0.0000              RECHARGE =           0.0000
      STREAM LEAKAGE =    55182158.4393        STREAM LEAKAGE =       27281.7517

           TOTAL OUT =   100883919.2766             TOTAL OUT =       70415.4639

            IN - OUT =          -2.0448              IN - OUT =      -4.9910E-03

 PERCENT DISCREPANCY =          -0.00     PERCENT DISCREPANCY =          -0.00






         TIME SUMMARY AT END OF TIME STEP    1 IN STRESS PERIOD   11
                    SECONDS     MINUTES      HOURS       DAYS        YEARS
                    -----------------------------------------------------------
   TIME STEP LENGTH 7.86240E+06 1.31040E+05  2184.0      91.000     0.24914    
 STRESS PERIOD TIME 7.86240E+06 1.31040E+05  2184.0      91.000     0.24914    
         TOTAL TIME 8.67456E+07 1.44576E+06  24096.      1004.0      2.7488    
1
1
                            STRESS PERIOD NO.   12, LENGTH =   91.00000    
                            -----------------------------------------------

                              NUMBER OF TIME STEPS =     1

                               MULTIPLIER FOR DELT =     1.500

                            INITIAL TIME STEP SIZE =   91.00000    

 WELL NO.  LAYER   ROW   COL   STRESS RATE         
 --------------------------------------------------
      1      1     15     19     -0.1065E+05
      2      1     15     28      -8067.    
      3      1     19     14      -9238.    
      4      1      9     25     -0.1518E+05

      4 WELLS

                 RECHARGE =  1.000000E-03

 REUSING STREAM SEGMENT DATA FROM LAST STRESS PERIOD
 
 SOLVING FOR HEAD 


     6 CALLS TO PCG ROUTINE FOR TIME STEP   1 IN STRESS PERIOD   12
    23 TOTAL ITERATIONS

 OUTPUT CONTROL FOR STRESS PERIOD   12   TIME STEP    1
    SAVE BUDGET
    SAVE HEAD FOR ALL LAYERS
    PRINT HEAD FOR ALL LAYERS
 UBDSV2 SAVING "STREAMFLOW OUT  " ON UNIT  50 AT TIME STEP  1, STRESS PERIOD  12



 STREAM LISTING     PERIOD     12   STEP        1

 LAYER ROW COL. STREAM  RCH.  FLOW INTO     FLOW TO   FLOW OUT OF   OVRLND.     DIRECT     STREAM       STREAM     STREAM     STREAM   STREAMBED  STREAMBED
                SEG.NO.  NO.  STRM. RCH.    AQUIFER    STRM. RCH.    RUNOFF     PRECIP       ET          HEAD       DEPTH      WIDTH   CONDCTNC.   GRADIENT

   1   13    1     1     1    1.0000E+05 -1.6685E+03   1.0167E+05  0.000E+00  0.000E+00  0.000E+00  4.84067E+01  1.454E-01  2.000E+01  2.000E+04 -8.343E-02
   1   13    2     1     2    1.0167E+05 -2.6129E+03   1.0428E+05  0.000E+00  0.000E+00  0.000E+00  4.79313E+01  1.472E-01  2.000E+01  2.000E+04 -1.306E-01
   1   14    3     1     3    1.0428E+05 -4.2971E+02   1.0471E+05  0.000E+00  0.000E+00  0.000E+00  4.74553E+01  1.485E-01  2.000E+01  2.000E+04 -2.149E-02
   1   15    4     1     4    1.0471E+05 -3.9441E+02   1.0511E+05  0.000E+00  0.000E+00  0.000E+00  4.69784E+01  1.489E-01  2.000E+01  2.000E+04 -1.972E-02
   1   16    5     1     5    1.0511E+05 -1.3573E+03   1.0646E+05  0.000E+00  0.000E+00  0.000E+00  4.65019E+01  1.496E-01  2.000E+01  2.000E+04 -6.787E-02
   1   16    6     1     6    1.0646E+05 -8.3861E+02   1.0730E+05  0.000E+00  0.000E+00  0.000E+00  4.60255E+01  1.505E-01  2.000E+01  2.000E+04 -4.193E-02
   1   16    7     1     7    1.0730E+05 -7.8341E+02   1.0808E+05  0.000E+00  0.000E+00  0.000E+00  4.55490E+01  1.512E-01  2.000E+01  2.000E+04 -3.917E-02
   1   16    8     1     8    1.0808E+05 -7.1907E+02   1.0880E+05  0.000E+00  0.000E+00  0.000E+00  4.50723E+01  1.519E-01  2.000E+01  2.000E+04 -3.595E-02
   1   16    9     1     9    1.0880E+05 -6.2228E+02   1.0943E+05  0.000E+00  0.000E+00  0.000E+00  4.45956E+01  1.524E-01  2.000E+01  2.000E+04 -3.111E-02
   1   16   10     1    10    1.0943E+05 -4.7660E+02   1.0990E+05  0.000E+00  0.000E+00  0.000E+00  4.41188E+01  1.529E-01  2.000E+01  2.000E+04 -2.383E-02
   1   16   11     1    11    1.0990E+05 -2.5533E+02   1.1016E+05  0.000E+00  0.000E+00  0.000E+00  4.36418E+01  1.532E-01  2.000E+01  2.000E+04 -1.277E-02
   1   16   12     1    12    1.1016E+05  6.9065E+01   1.1009E+05  0.000E+00  0.000E+00  0.000E+00  4.31646E+01  1.533E-01  2.000E+01  2.000E+04  3.453E-03
   1   15   13     1    13    1.1009E+05 -2.4228E+02   1.1033E+05  0.000E+00  0.000E+00  0.000E+00  4.26874E+01  1.533E-01  2.000E+01  2.000E+04 -1.211E-02
   1   14   14     1    14    1.1033E+05 -7.2307E+02   1.1105E+05  0.000E+00  0.000E+00  0.000E+00  4.22106E+01  1.537E-01  2.000E+01  2.000E+04 -3.615E-02
   1   13   15     1    15    1.1105E+05 -1.1933E+03   1.1225E+05  0.000E+00  0.000E+00  0.000E+00  4.17341E+01  1.545E-01  2.000E+01  2.000E+04 -5.966E-02
   1   12   16     1    16    1.1225E+05 -2.2323E+03   1.1448E+05  0.000E+00  0.000E+00  0.000E+00  4.12582E+01  1.560E-01  2.000E+01  2.000E+04 -1.116E-01
   1   12   17     1    17    1.1448E+05 -1.0428E+03   1.1552E+05  0.000E+00  0.000E+00  0.000E+00  4.07823E+01  1.573E-01  2.000E+01  2.000E+04 -5.214E-02
   1   12   18     1    18    1.1552E+05 -7.4006E+02   1.1626E+05  0.000E+00  0.000E+00  0.000E+00  4.03058E+01  1.580E-01  2.000E+01  2.000E+04 -3.700E-02
   1   12   19     1    19    1.1626E+05 -1.0802E+03   1.1734E+05  0.000E+00  0.000E+00  0.000E+00  3.98292E+01  1.588E-01  2.000E+01  2.000E+04 -5.401E-02
   1   13   20     1    20    1.1734E+05  5.7343E+02   1.1677E+05  0.000E+00  0.000E+00  0.000E+00  3.93522E+01  1.590E-01  2.000E+01  2.000E+04  2.867E-02
   1   14   21     1    21    1.1677E+05  1.0794E+03   1.1569E+05  0.000E+00  0.000E+00  0.000E+00  3.88742E+01  1.583E-01  2.000E+01  2.000E+04  5.397E-02
   1   14   22     1    22    1.1569E+05  5.3081E+03   1.1038E+05  0.000E+00  0.000E+00  0.000E+00  3.83943E+01  1.557E-01  2.000E+01  2.000E+04  2.654E-01
   1    9   30     2     1    5.0000E+04  1.1743E+02   4.9883E+04  0.000E+00  0.000E+00  0.000E+00  4.02408E+01  1.158E-01  2.000E+01  2.000E+04  5.872E-03
   1    9   29     2     2    4.9883E+04 -1.4213E+02   5.0025E+04  0.000E+00  0.000E+00  0.000E+00  3.99908E+01  1.158E-01  2.000E+01  2.000E+04 -7.107E-03
   1    9   28     2     3    5.0025E+04 -2.4105E+02   5.0266E+04  0.000E+00  0.000E+00  0.000E+00  3.97411E+01  1.161E-01  2.000E+01  2.000E+04 -1.205E-02
   1    9   27     2     4    5.0266E+04  7.5700E+02   4.9509E+04  0.000E+00  0.000E+00  0.000E+00  3.94907E+01  1.157E-01  2.000E+01  2.000E+04  3.785E-02
   1   10   26     2     5    4.9509E+04  2.8627E+03   4.6646E+04  0.000E+00  0.000E+00  0.000E+00  3.92382E+01  1.132E-01  2.000E+01  2.000E+04  1.431E-01
   1   11   25     2     6    4.6646E+04  1.6105E+03   4.5036E+04  0.000E+00  0.000E+00  0.000E+00  3.89850E+01  1.100E-01  2.000E+01  2.000E+04  8.052E-02
   1   12   24     2     7    4.5036E+04 -3.0364E+02   4.5339E+04  0.000E+00  0.000E+00  0.000E+00  3.87340E+01  1.090E-01  2.000E+01  2.000E+04 -1.518E-02
   1   13   23     2     8    4.5339E+04 -1.4767E+02   4.5487E+04  0.000E+00  0.000E+00  0.000E+00  3.84844E+01  1.094E-01  2.000E+01  2.000E+04 -7.383E-03
   1   14   22     2     9    4.5487E+04  2.0809E+03   4.3406E+04  0.000E+00  0.000E+00  0.000E+00  3.82330E+01  1.080E-01  2.000E+01  2.000E+04  1.040E-01
   1   14   22     3     1    1.5379E+05 -8.3091E+03   1.6210E+05  0.000E+00  0.000E+00  0.000E+00  3.77135E+01  1.579E-01  2.000E+01  2.000E+04 -4.155E-01
   1   15   23     3     2    1.6210E+05 -2.6730E+02   1.6236E+05  0.000E+00  0.000E+00  0.000E+00  3.68271E+01  1.605E-01  2.000E+01  2.000E+04 -1.337E-02
   1   15   24     3     3    1.6236E+05 -2.1155E+02   1.6258E+05  0.000E+00  0.000E+00  0.000E+00  3.59384E+01  1.606E-01  2.000E+01  2.000E+04 -1.058E-02
   1   15   25     3     4    1.6258E+05 -2.0584E+02   1.6278E+05  0.000E+00  0.000E+00  0.000E+00  3.50496E+01  1.607E-01  2.000E+01  2.000E+04 -1.029E-02
   1   15   26     3     5    1.6278E+05  2.9025E+01   1.6275E+05  0.000E+00  0.000E+00  0.000E+00  3.41608E+01  1.608E-01  2.000E+01  2.000E+04  1.451E-03
   1   16   27     3     6    1.6275E+05  3.6542E+02   1.6239E+05  0.000E+00  0.000E+00  0.000E+00  3.32718E+01  1.607E-01  2.000E+01  2.000E+04  1.827E-02
   1   17   28     3     7    1.6239E+05  1.5520E+03   1.6084E+05  0.000E+00  0.000E+00  0.000E+00  3.23823E+01  1.601E-01  2.000E+01  2.000E+04  7.760E-02
   1   18   29     3     8    1.6084E+05 -1.8564E+03   1.6269E+05  0.000E+00  0.000E+00  0.000E+00  3.14935E+01  1.602E-01  2.000E+01  2.000E+04 -9.282E-02
   1   18   30     3     9    1.6269E+05 -2.1739E+03   1.6487E+05  0.000E+00  0.000E+00  0.000E+00  3.06058E+01  1.614E-01  2.000E+01  2.000E+04 -1.087E-01



1
              HEAD IN LAYER   1 AT END OF TIME STEP   1 IN STRESS PERIOD   12
  ---------------------------------------------------------------------------

          1      2      3      4      5      6      7      8      9     10
         11     12     13     14     15     16     17     18     19     20
         21     22     23     24     25     26     27     28     29     30
 .........................................................................
   1  ****** ****** ****** ****** ****** ****** ****** ****** ****** ******
      ****** ****** ****** ****** ****** ****** ****** ****** ****** ******
      ****** ****** ****** ****** ****** ****** ****** ****** ****** ******
   2  ****** ****** ****** ****** ****** ****** ****** ****** ****** ******
      ****** ****** ****** ****** ****** ****** ****** ****** ****** ******
      ****** ****** ****** ****** ****** ****** ****** ****** ****** ******
   3  ****** ****** ****** ****** ****** ****** ****** ****** ****** ******
      ****** ****** ****** ****** ****** ****** ****** ****** ****** ******
      ****** ****** ****** ****** ****** ****** ****** ****** ****** ******
   4  ****** ****** ****** ****** ****** ****** ****** ****** ****** ******
      ****** ****** ****** ****** ****** ****** ****** ****** ****** ******
      ****** ****** ****** ****** ****** ****** ****** ****** ****** ******
   5  ****** ****** ****** ****** ****** ****** ****** ****** ****** ******
      ****** ****** ****** ****** ****** ****** ****** ****** ****** ******
      ****** ****** ****** ****** ****** ****** ****** ****** ****** ******
   6  ****** ****** ****** ****** ****** ****** ****** ****** ****** ******
      ****** ****** ****** ****** ****** ****** ****** ****** ****** ******
      ****** ****** ****** ****** ****** ****** ****** ****** ****** ******
   7  ****** ****** ****** ****** ****** ****** ****** ****** ****** ******
      ****** ****** ****** ****** ****** ****** ****** ****** ****** ******
      ****** ****** ****** ****** ****** ****** ****** ****** ****** ******
   8  ****** ****** ****** ****** ****** ****** ****** ****** ****** ******
      ****** ****** ****** ****** ****** ****** ****** ****** ****** ******
      ****** ****** ****** ****** ****** ****** ****** ****** ****** ******
   9  ****** ****** ****** ****** ****** ****** ****** ****** ****** ******
      ****** ****** ****** ****** ****** ****** ****** ****** ****** ******
      ****** ****** ****** ****** ****** ****** ****** ****** ****** ******
  10  ****** ****** ****** ****** ****** ****** ****** ****** ****** ******
      ****** ****** ****** ****** ****** ****** ****** ****** ****** ******
      ****** ****** ****** ****** ****** ****** ****** ****** ****** ******
  11  ****** ****** ****** ****** ****** ****** ****** ****** ****** ******
      ****** ****** ****** ****** ****** ****** ****** ****** ****** ******
      ****** ****** ****** ****** ****** ****** ****** ****** ****** ******
  12  ****** ****** ****** ****** ****** ****** ****** ****** ****** ******
      ****** ****** ****** ****** ****** ****** ****** ****** ****** ******
      ****** ****** ****** ****** ****** ****** ****** ****** ****** ******
  13  ****** ****** ****** ****** ****** ****** ****** ****** ****** ******
      ****** ****** ****** ****** ****** ****** ****** ****** ****** ******
      ****** ****** ****** ****** ****** ****** ****** ****** ****** ******
  14  ****** ****** ****** ****** ****** ****** ****** ****** ****** ******
      ****** ****** ****** ****** ****** ****** ****** ****** ****** ******
      ****** ****** ****** ****** ****** ****** ****** ****** ****** ******
  15  ****** ****** ****** ****** ****** ****** ****** ****** ****** ******
      ****** ****** ****** ****** ****** ****** ****** ****** ****** ******
      ****** ****** ****** ****** ****** ****** ****** ****** ****** ******
  16  ****** ****** ****** ****** ****** ****** ****** ****** ****** ******
      ****** ****** ****** ****** ****** ****** ****** ****** ****** ******
      ****** ****** ****** ****** ****** ****** ****** ****** ****** ******
  17  ****** ****** ****** ****** ****** ****** ****** ****** ****** ******
      ****** ****** ****** ****** ****** ****** ****** ****** ****** ******
      ****** ****** ****** ****** ****** ****** ****** ****** ****** ******
  18  ****** ****** ****** ****** ****** ****** ****** ****** ****** ******
      ****** ****** ****** ****** ****** ****** ****** ****** ****** ******
      ****** ****** ****** ****** ****** ****** ****** ****** ****** ******
  19  ****** ****** ****** ****** ****** ****** ****** ****** ****** ******
      ****** ****** ****** ****** ****** ****** ****** ****** ****** ******
      ****** ****** ****** ****** ****** ****** ****** ****** ****** ******
  20  ****** ****** ****** ****** ****** ****** ****** ****** ****** ******
      ****** ****** ****** ****** ****** ****** ****** ****** ****** ******
      ****** ****** ****** ****** ****** ****** ****** ****** ****** ******
  21  ****** ****** ****** ****** ****** ****** ****** ****** ****** ******
      ****** ****** ****** ****** ****** ****** ****** ****** ****** ******
      ****** ****** ****** ****** ****** ****** ****** ****** ****** ******
  22  ****** ****** ****** ****** ****** ****** ****** ****** ****** ******
      ****** ****** ****** ****** ****** ****** ****** ****** ****** ******
      ****** ****** ****** ****** ****** ****** ****** ****** ****** ******
  23  ****** ****** ****** ****** ****** ****** ****** ****** ****** ******
      ****** ****** ****** ****** ****** ****** ****** ****** ****** ******
      ****** ****** ****** ****** ****** ****** ****** ****** ****** ******
  24  ****** ****** ****** ****** ****** ****** ****** ****** ****** ******
      ****** ****** ****** ****** ****** ****** ****** ****** ****** ******
      ****** ****** ****** ****** ****** ****** ****** ****** ****** ******
  25  ****** ****** ****** ****** ****** ****** ****** ****** ****** ******
      ****** ****** ****** ****** ****** ****** ****** ****** ****** ******
      ****** ****** ****** ****** ****** ****** ****** ****** ****** ******

 HEAD WILL BE SAVED ON UNIT   51 AT END OF TIME STEP    1, STRESS PERIOD   12
1
  VOLUMETRIC BUDGET FOR ENTIRE MODEL AT END OF TIME STEP    1, STRESS PERIOD  12
  ------------------------------------------------------------------------------

     CUMULATIVE VOLUMES      L**3       RATES FOR THIS TIME STEP      L**3/T
     ------------------                 ------------------------

           IN:                                      IN:
           ---                                      ---
             STORAGE =    35450192.8144               STORAGE =           6.2227
       CONSTANT HEAD =    31111851.6776         CONSTANT HEAD =       33448.3899
               WELLS =           0.0000                 WELLS =           0.0000
            RECHARGE =    26413200.0000              RECHARGE =       27600.0000
      STREAM LEAKAGE =    14957487.8026        STREAM LEAKAGE =       16404.8936

            TOTAL IN =   107932732.2945              TOTAL IN =       77459.5062

          OUT:                                     OUT:
          ----                                     ----
             STORAGE =     2673519.6967               STORAGE =        3055.0099
       CONSTANT HEAD =           0.0000         CONSTANT HEAD =           0.0000
               WELLS =    47231414.8544                 WELLS =       43133.7122
            RECHARGE =           0.0000              RECHARGE =           0.0000
      STREAM LEAKAGE =    58027799.7281        STREAM LEAKAGE =       31270.7834

           TOTAL OUT =   107932734.2793             TOTAL OUT =       77459.5055

            IN - OUT =          -1.9848              IN - OUT =       6.6028E-04

 PERCENT DISCREPANCY =          -0.00     PERCENT DISCREPANCY =           0.00






         TIME SUMMARY AT END OF TIME STEP    1 IN STRESS PERIOD   12
                    SECONDS     MINUTES      HOURS       DAYS        YEARS
                    -----------------------------------------------------------
   TIME STEP LENGTH 7.86240E+06 1.31040E+05  2184.0      91.000     0.24914    
 STRESS PERIOD TIME 7.86240E+06 1.31040E+05  2184.0      91.000     0.24914    
         TOTAL TIME 9.46080E+07 1.57680E+06  26280.      1095.0      2.9979    
1

 Run end date and time (yyyy/mm/dd hh:mm:ss): 2019/02/09 14:38:07
 Elapsed run time:  0.096 Seconds

