                                  MODFLOW-2005     
      U.S. GEOLOGICAL SURVEY MODULAR FINITE-DIFFERENCE GROUND-WATER FLOW MODEL
                            VERSION 1.11.00 8/8/2013

 LIST FILE: supply2.lst
                         UNIT   10

 OPENING ..\data\supply.dis
 FILE TYPE:DIS   UNIT   11   STATUS:OLD    
 FORMAT:FORMATTED              ACCESS:SEQUENTIAL          

 OPENING ..\data\supply.ba6
 FILE TYPE:BAS6   UNIT   12   STATUS:OLD    
 FORMAT:FORMATTED              ACCESS:SEQUENTIAL          

 OPENING ..\data\supply.bc6
 FILE TYPE:BCF6   UNIT   13   STATUS:OLD    
 FORMAT:FORMATTED              ACCESS:SEQUENTIAL          

 OPENING ..\data\supply.rch
 FILE TYPE:RCH   UNIT   15   STATUS:OLD    
 FORMAT:FORMATTED              ACCESS:SEQUENTIAL          

 OPENING ..\data\supply2.sfr
 FILE TYPE:SFR   UNIT   16   STATUS:OLD    
 FORMAT:FORMATTED              ACCESS:SEQUENTIAL          

 OPENING ..\data\supply.oc
 FILE TYPE:OC   UNIT   17   STATUS:OLD    
 FORMAT:FORMATTED              ACCESS:SEQUENTIAL          

 OPENING ..\data\supply.pcg
 FILE TYPE:PCG   UNIT   18   STATUS:OLD    
 FORMAT:FORMATTED              ACCESS:SEQUENTIAL          

 OPENING supply2.wel
 FILE TYPE:WEL   UNIT   19   STATUS:OLD    
 FORMAT:FORMATTED              ACCESS:SEQUENTIAL          

 OPENING supply2sf.cbc
 FILE TYPE:DATA(BINARY)   UNIT   50   STATUS:UNKNOWN
 FORMAT:BINARY                 ACCESS:SEQUENTIAL          

 OPENING supply2hd.bhd
 FILE TYPE:DATA(BINARY)   UNIT   51   STATUS:UNKNOWN
 FORMAT:BINARY                 ACCESS:SEQUENTIAL          

 BAS -- BASIC PACKAGE, VERSION 7, 5/2/2005 INPUT READ FROM UNIT   12
 
 MODFLOW was compiled using uniform precision
 Precision of REAL and DOUBLE PRECISION variables:          15

 DISCRETIZATION INPUT DATA READ FROM UNIT   11
    1 LAYERS        25 ROWS        30 COLUMNS
   12 STRESS PERIOD(S) IN SIMULATION
 MODEL TIME UNIT IS DAYS
 MODEL LENGTH UNIT IS UNDEFINED
  Confining bed flag for each layer:
   0

                     DELR =   200.000    

                     DELC =   200.000    

 TOP ELEVATION OF LAYER 1 =  100.0000    

   MODEL LAYER BOTTOM EL. =   0.00000     FOR LAYER   1


 STRESS PERIOD     LENGTH       TIME STEPS     MULTIPLIER FOR DELT    SS FLAG
 ----------------------------------------------------------------------------
        1         92.00000          1                    1.500         TR
        2         91.00000          1                    1.500         TR
        3         91.00000          1                    1.500         TR
        4         91.00000          1                    1.500         TR
        5         92.00000          1                    1.500         TR
        6         91.00000          1                    1.500         TR
        7         91.00000          1                    1.500         TR
        8         91.00000          1                    1.500         TR
        9         92.00000          1                    1.500         TR
       10         91.00000          1                    1.500         TR
       11         91.00000          1                    1.500         TR
       12         91.00000          1                    1.500         TR

 TRANSIENT SIMULATION



 
 #MODOFC transient water supply sample problem                                   
 #                                                                               
 THE FREE FORMAT OPTION HAS BEEN SELECTED



                     BOUNDARY ARRAY FOR LAYER   1
 READING ON UNIT   12 WITH FORMAT: (20I4)              

 AQUIFER HEAD WILL BE SET TO   0.0000     AT ALL NO-FLOW NODES (IBOUND=0).



                       INITIAL HEAD FOR LAYER   1
 READING ON UNIT   12 WITH FORMAT: (10F13.0)           

 OUTPUT CONTROL IS SPECIFIED ONLY AT TIME STEPS FOR WHICH OUTPUT IS DESIRED
 COMPACT CELL-BY-CELL BUDGET FILES WILL BE WRITTEN
 HEAD PRINT FORMAT CODE IS  18    DRAWDOWN PRINT FORMAT CODE IS   0
 HEADS WILL BE SAVED ON UNIT   51    DRAWDOWNS WILL BE SAVED ON UNIT    0

 BCF -- BLOCK-CENTERED FLOW PACKAGE, VERSION 7, 5/2/2005
         INPUT READ FROM UNIT 13
 TRANSIENT SIMULATION
 HEAD AT CELLS THAT CONVERT TO DRY=   0.0000    
 WETTING CAPABILITY IS NOT ACTIVE
      LAYER  LAYER-TYPE CODE     INTERBLOCK T
      --------------------------------------------
         1            0          0 -- HARMONIC    

 COLUMN TO ROW ANISOTROPY =  1.000000    

     PRIMARY STORAGE COEF =  5.000000E-02 FOR LAYER   1

     TRANSMIS. ALONG ROWS =   500.000     FOR LAYER   1

 WEL -- WELL PACKAGE, VERSION 7, 5/2/2005 INPUT READ FROM UNIT   19
 # Well package input file written by MMProc
 No named parameters
 MAXIMUM OF      6 ACTIVE WELLS AT ONE TIME


     0 Well parameters

 RCH -- RECHARGE PACKAGE, VERSION 7, 5/2/2005 INPUT READ FROM UNIT   15
 No named parameters
 OPTION 1 -- RECHARGE TO TOP LAYER


     0 Recharge parameters

 SFR7 -- STREAMFLOW ROUTING PACKAGE, VERSION 1.0.7, 2013-01-15
         INPUT READ FROM UNIT  16
 #  Supply2 test problem for GWM-VI
 #  The eighth entry in the first data line is ISTCB2 -
 #    Setting this to a negative number indicates that
 #    streamflows out of the reach will be saved to a
 #    binary file.  The absolute value of ISTCB2 is the
 #    unit to which unformatted flows will be written.
 #
 No named parameters
 Segment information will not be 
 read by reach
 No named parameters
 No specifed inflow files


 NUMBER OF STREAM REACHES IS   40

 NUMBER OF STREAM SEGMENTS IS    3

 NUMBER OF STREAM PARAMETERS IS    0

 NUMBER OF STREAM SEGMENTS DEFINED USING PARAMETERS IS              0

 MAXIMUM ERROR FOR STREAM LEAKAGE RATES IS  1.00E-04

 CONSTANT FOR MANNINGS EQUATION IS  1.2839E+05





   STREAM NETWORK DESCRIPTION: 

   LAYER    ROW    COL   SEGMENT   REACH     LENGTH
                          NUMBER   NUMBER    IN CELL        
   --------------------------------------------------
      1     13      1       1        1    2.0000E+02
      1     13      2       1        2    2.0000E+02
      1     14      3       1        3    2.0000E+02
      1     15      4       1        4    2.0000E+02
      1     16      5       1        5    2.0000E+02
      1     16      6       1        6    2.0000E+02
      1     16      7       1        7    2.0000E+02
      1     16      8       1        8    2.0000E+02
      1     16      9       1        9    2.0000E+02
      1     16     10       1       10    2.0000E+02
      1     16     11       1       11    2.0000E+02
      1     16     12       1       12    2.0000E+02
      1     15     13       1       13    2.0000E+02
      1     14     14       1       14    2.0000E+02
      1     13     15       1       15    2.0000E+02
      1     12     16       1       16    2.0000E+02
      1     12     17       1       17    2.0000E+02
      1     12     18       1       18    2.0000E+02
      1     12     19       1       19    2.0000E+02
      1     13     20       1       20    2.0000E+02
      1     14     21       1       21    2.0000E+02
      1     14     22       1       22    2.0000E+02
      1      9     30       2        1    2.0000E+02
      1      9     29       2        2    2.0000E+02
      1      9     28       2        3    2.0000E+02
      1      9     27       2        4    2.0000E+02
      1     10     26       2        5    2.0000E+02
      1     11     25       2        6    2.0000E+02
      1     12     24       2        7    2.0000E+02
      1     13     23       2        8    2.0000E+02
      1     14     22       2        9    2.0000E+02
      1     14     22       3        1    2.0000E+02
      1     15     23       3        2    2.0000E+02
      1     15     24       3        3    2.0000E+02
      1     15     25       3        4    2.0000E+02
      1     15     26       3        5    2.0000E+02
      1     16     27       3        6    2.0000E+02
      1     17     28       3        7    2.0000E+02
      1     18     29       3        8    2.0000E+02
      1     18     30       3        9    2.0000E+02




 PCG -- CONJUGATE-GRADIENT SOLUTION PACKAGE, VERSION 7, 5/2/2005
 MAXIMUM OF    500 CALLS OF SOLUTION ROUTINE
 MAXIMUM OF      5 INTERNAL ITERATIONS PER CALL TO SOLUTION ROUTINE
 MATRIX PRECONDITIONING TYPE :    1



                                    SOLUTION BY THE CONJUGATE-GRADIENT METHOD
                                   -------------------------------------------
                    MAXIMUM NUMBER OF CALLS TO PCG ROUTINE =      500
                        MAXIMUM ITERATIONS PER CALL TO PCG =        5
                               MATRIX PRECONDITIONING TYPE =        1
        RELAXATION FACTOR (ONLY USED WITH PRECOND. TYPE 1) =    0.10000E+01
 PARAMETER OF POLYNOMIAL PRECOND. = 2 (2) OR IS CALCULATED :        0
                         HEAD CHANGE CRITERION FOR CLOSURE =    0.10000E-05
                     RESIDUAL CHANGE CRITERION FOR CLOSURE =    0.10000E+01
            PCG HEAD AND RESIDUAL CHANGE PRINTOUT INTERVAL =        1
     PRINTING FROM SOLVER IS LIMITED(1) OR SUPPRESSED (>1) =        1
                            STEADY-STATE DAMPING PARAMETER =    0.10000E+01
                               TRANSIENT DAMPING PARAMETER =    0.10000E+01
1
                            STRESS PERIOD NO.    1, LENGTH =   92.00000    
                            -----------------------------------------------

                              NUMBER OF TIME STEPS =     1

                               MULTIPLIER FOR DELT =     1.500

                            INITIAL TIME STEP SIZE =   92.00000    

 WELL NO.  LAYER   ROW   COL   STRESS RATE         
 --------------------------------------------------
      1      1      5     22     -0.5000E+05
      2      1      3     18     -0.5000E+05
      3      1      3     21     -0.5250E+05

      3 WELLS

                 RECHARGE =  5.000000E-04



 CLASSIFICATION & COUNT OF STREAM SEGMENTS BASED ON SOURCE OF INFLOW:

                HEADWATER     DIVERSION     RECEIVES TRIBUTARY FLOW
                ---------     ---------     -----------------------
                     2              0               1



                    INPUT DATA FOR EACH STREAM SEGMENT
 ---------------------------------------------------------------------------------------------

 SEGMENT    SEG.     INFLOW   OVERLAND   STREAM    STREAM   ICALC  OUTFLOW  DIVERSION PRIORITY
    NO.    LENGTH     RATE     RUNOFF      ET       PPT.    METH.  TO SEG.  FROM SEG.    NO.

      1  4.400E+03 1.000E+05 0.000E+00 0.000E+00 0.000E+00    1        3        0        0
      2  1.800E+03 5.000E+04 0.000E+00 0.000E+00 0.000E+00    1        3        0        0
      3  1.800E+03 0.000E+00 0.000E+00 0.000E+00 0.000E+00    1        0        0        0


         STREAMBED PROPERTIES AND STREAM DIMENSIONS

 SEGMENT     BED HYD. COND.      BED THICKNESS     ELEV.-TOP OF BED     WIDTH OF STREAM     DEPTH OF STREAM    STREAM ROUGHNESS
    No.     UPPER     LOWER     UPPER     LOWER     UPPER     LOWER     UPPER     LOWER     UPPER     LOWER   CHANNEL      BANK

     1  5.000E+00 5.000E+00 1.000E+00 1.000E+00 4.850E+01 3.800E+01 2.000E+01 2.000E+01                     5.000E-02
     2  5.000E+00 5.000E+00 1.000E+00 1.000E+00 4.025E+01 3.800E+01 2.000E+01 2.000E+01                     5.000E-02
     3  5.000E+00 5.000E+00 1.000E+00 1.000E+00 3.800E+01 3.000E+01 2.000E+01 2.000E+01                     5.000E-02



 
 SOLVING FOR HEAD 


     8 CALLS TO PCG ROUTINE FOR TIME STEP   1 IN STRESS PERIOD    1
    34 TOTAL ITERATIONS

 OUTPUT CONTROL FOR STRESS PERIOD    1   TIME STEP    1
    SAVE BUDGET
    SAVE HEAD FOR ALL LAYERS
    PRINT HEAD FOR ALL LAYERS
 UBDSV2 SAVING "STREAMFLOW OUT  " ON UNIT  50 AT TIME STEP  1, STRESS PERIOD   1



 STREAM LISTING     PERIOD      1   STEP        1

 LAYER ROW COL. STREAM  RCH.  FLOW INTO     FLOW TO   FLOW OUT OF   OVRLND.     DIRECT     STREAM       STREAM     STREAM     STREAM   STREAMBED  STREAMBED
                SEG.NO.  NO.  STRM. RCH.    AQUIFER    STRM. RCH.    RUNOFF     PRECIP       ET          HEAD       DEPTH      WIDTH   CONDCTNC.   GRADIENT

   1   13    1     1     1    1.0000E+05 -5.7322E+03   1.0573E+05  0.000E+00  0.000E+00  0.000E+00  4.84085E+01  1.471E-01  2.000E+01  2.000E+04 -2.866E-01
   1   13    2     1     2    1.0573E+05 -8.5553E+03   1.1429E+05  0.000E+00  0.000E+00  0.000E+00  4.79373E+01  1.532E-01  2.000E+01  2.000E+04 -4.278E-01
   1   14    3     1     3    1.1429E+05 -7.8429E+03   1.2213E+05  0.000E+00  0.000E+00  0.000E+00  4.74667E+01  1.599E-01  2.000E+01  2.000E+04 -3.921E-01
   1   15    4     1     4    1.2213E+05 -7.6794E+03   1.2981E+05  0.000E+00  0.000E+00  0.000E+00  4.69957E+01  1.661E-01  2.000E+01  2.000E+04 -3.840E-01
   1   16    5     1     5    1.2981E+05 -7.4906E+03   1.3730E+05  0.000E+00  0.000E+00  0.000E+00  4.65243E+01  1.721E-01  2.000E+01  2.000E+04 -3.745E-01
   1   16    6     1     6    1.3730E+05 -5.9858E+03   1.4329E+05  0.000E+00  0.000E+00  0.000E+00  4.60522E+01  1.772E-01  2.000E+01  2.000E+04 -2.993E-01
   1   16    7     1     7    1.4329E+05 -6.1164E+03   1.4940E+05  0.000E+00  0.000E+00  0.000E+00  4.55795E+01  1.818E-01  2.000E+01  2.000E+04 -3.058E-01
   1   16    8     1     8    1.4940E+05 -6.1946E+03   1.5560E+05  0.000E+00  0.000E+00  0.000E+00  4.51068E+01  1.863E-01  2.000E+01  2.000E+04 -3.097E-01
   1   16    9     1     9    1.5560E+05 -6.2041E+03   1.6180E+05  0.000E+00  0.000E+00  0.000E+00  4.46340E+01  1.908E-01  2.000E+01  2.000E+04 -3.102E-01
   1   16   10     1    10    1.6180E+05 -6.1517E+03   1.6795E+05  0.000E+00  0.000E+00  0.000E+00  4.41612E+01  1.953E-01  2.000E+01  2.000E+04 -3.076E-01
   1   16   11     1    11    1.6795E+05 -6.0754E+03   1.7403E+05  0.000E+00  0.000E+00  0.000E+00  4.36882E+01  1.996E-01  2.000E+01  2.000E+04 -3.038E-01
   1   16   12     1    12    1.7403E+05 -7.9077E+03   1.8194E+05  0.000E+00  0.000E+00  0.000E+00  4.32158E+01  2.044E-01  2.000E+01  2.000E+04 -3.954E-01
   1   15   13     1    13    1.8194E+05 -8.1118E+03   1.9005E+05  0.000E+00  0.000E+00  0.000E+00  4.27440E+01  2.099E-01  2.000E+01  2.000E+04 -4.056E-01
   1   14   14     1    14    1.9005E+05 -8.2238E+03   1.9827E+05  0.000E+00  0.000E+00  0.000E+00  4.22722E+01  2.154E-01  2.000E+01  2.000E+04 -4.112E-01
   1   13   15     1    15    1.9827E+05 -8.2021E+03   2.0647E+05  0.000E+00  0.000E+00  0.000E+00  4.18004E+01  2.208E-01  2.000E+01  2.000E+04 -4.101E-01
   1   12   16     1    16    2.0647E+05 -8.2422E+03   2.1472E+05  0.000E+00  0.000E+00  0.000E+00  4.13284E+01  2.261E-01  2.000E+01  2.000E+04 -4.121E-01
   1   12   17     1    17    2.1472E+05 -5.6081E+03   2.2032E+05  0.000E+00  0.000E+00  0.000E+00  4.08556E+01  2.306E-01  2.000E+01  2.000E+04 -2.804E-01
   1   12   18     1    18    2.2032E+05 -5.2440E+03   2.2557E+05  0.000E+00  0.000E+00  0.000E+00  4.03817E+01  2.340E-01  2.000E+01  2.000E+04 -2.622E-01
   1   12   19     1    19    2.2557E+05 -6.0785E+03   2.3165E+05  0.000E+00  0.000E+00  0.000E+00  3.99080E+01  2.376E-01  2.000E+01  2.000E+04 -3.039E-01
   1   13   20     1    20    2.3165E+05 -5.7618E+03   2.3741E+05  0.000E+00  0.000E+00  0.000E+00  3.94344E+01  2.412E-01  2.000E+01  2.000E+04 -2.881E-01
   1   14   21     1    21    2.3741E+05 -5.3511E+03   2.4276E+05  0.000E+00  0.000E+00  0.000E+00  3.89606E+01  2.446E-01  2.000E+01  2.000E+04 -2.676E-01
   1   14   22     1    22    2.4276E+05  4.5312E+03   2.3823E+05  0.000E+00  0.000E+00  0.000E+00  3.84835E+01  2.449E-01  2.000E+01  2.000E+04  2.266E-01
   1    9   30     2     1    5.0000E+04 -5.0454E+03   5.5045E+04  0.000E+00  0.000E+00  0.000E+00  4.02443E+01  1.193E-01  2.000E+01  2.000E+04 -2.523E-01
   1    9   29     2     2    5.5045E+04 -5.2310E+03   6.0276E+04  0.000E+00  0.000E+00  0.000E+00  4.00012E+01  1.262E-01  2.000E+01  2.000E+04 -2.615E-01
   1    9   28     2     3    6.0276E+04 -5.2673E+03   6.5544E+04  0.000E+00  0.000E+00  0.000E+00  3.97580E+01  1.330E-01  2.000E+01  2.000E+04 -2.634E-01
   1    9   27     2     4    6.5544E+04 -7.0971E+03   7.2641E+04  0.000E+00  0.000E+00  0.000E+00  3.95157E+01  1.407E-01  2.000E+01  2.000E+04 -3.549E-01
   1   10   26     2     5    7.2641E+04 -5.4855E+03   7.8126E+04  0.000E+00  0.000E+00  0.000E+00  3.92732E+01  1.482E-01  2.000E+01  2.000E+04 -2.743E-01
   1   11   25     2     6    7.8126E+04 -4.6538E+03   8.2780E+04  0.000E+00  0.000E+00  0.000E+00  3.90291E+01  1.541E-01  2.000E+01  2.000E+04 -2.327E-01
   1   12   24     2     7    8.2780E+04 -3.8601E+03   8.6640E+04  0.000E+00  0.000E+00  0.000E+00  3.87840E+01  1.590E-01  2.000E+01  2.000E+04 -1.930E-01
   1   13   23     2     8    8.6640E+04 -2.8853E+03   8.9526E+04  0.000E+00  0.000E+00  0.000E+00  3.85377E+01  1.627E-01  2.000E+01  2.000E+04 -1.443E-01
   1   14   22     2     9    8.9526E+04  6.4024E+02   8.8885E+04  0.000E+00  0.000E+00  0.000E+00  3.82890E+01  1.640E-01  2.000E+01  2.000E+04  3.201E-02
   1   14   22     3     1    3.2711E+05 -9.0995E+03   3.3621E+05  0.000E+00  0.000E+00  0.000E+00  3.78020E+01  2.464E-01  2.000E+01  2.000E+04 -4.550E-01
   1   15   23     3     2    3.3621E+05 -6.0396E+03   3.4225E+05  0.000E+00  0.000E+00  0.000E+00  3.69165E+01  2.498E-01  2.000E+01  2.000E+04 -3.020E-01
   1   15   24     3     3    3.4225E+05 -4.3646E+03   3.4662E+05  0.000E+00  0.000E+00  0.000E+00  3.60299E+01  2.521E-01  2.000E+01  2.000E+04 -2.182E-01
   1   15   25     3     4    3.4662E+05 -4.3534E+03   3.5097E+05  0.000E+00  0.000E+00  0.000E+00  3.51429E+01  2.540E-01  2.000E+01  2.000E+04 -2.177E-01
   1   15   26     3     5    3.5097E+05 -5.6658E+03   3.5664E+05  0.000E+00  0.000E+00  0.000E+00  3.42562E+01  2.562E-01  2.000E+01  2.000E+04 -2.833E-01
   1   16   27     3     6    3.5664E+05 -7.2912E+03   3.6393E+05  0.000E+00  0.000E+00  0.000E+00  3.33701E+01  2.590E-01  2.000E+01  2.000E+04 -3.646E-01
   1   17   28     3     7    3.6393E+05 -8.0754E+03   3.7200E+05  0.000E+00  0.000E+00  0.000E+00  3.24845E+01  2.623E-01  2.000E+01  2.000E+04 -4.038E-01
   1   18   29     3     8    3.7200E+05 -9.1265E+03   3.8113E+05  0.000E+00  0.000E+00  0.000E+00  3.15993E+01  2.660E-01  2.000E+01  2.000E+04 -4.563E-01
   1   18   30     3     9    3.8113E+05 -7.5409E+03   3.8867E+05  0.000E+00  0.000E+00  0.000E+00  3.07139E+01  2.695E-01  2.000E+01  2.000E+04 -3.770E-01



1
              HEAD IN LAYER   1 AT END OF TIME STEP   1 IN STRESS PERIOD    1
  ---------------------------------------------------------------------------

          1      2      3      4      5      6      7      8      9     10
         11     12     13     14     15     16     17     18     19     20
         21     22     23     24     25     26     27     28     29     30
 .........................................................................
   1  ****** ****** ****** ****** ****** ****** ****** ****** ****** ******
      ****** ****** ****** ****** ****** ****** ****** ****** ****** ******
      ****** ****** ****** ****** ****** ****** ****** ****** ****** ******
   2  ****** ****** ****** ****** ****** ****** ****** ****** ****** ******
      ****** ****** ****** ****** ****** ****** ****** ****** ****** ******
      ****** ****** ****** ****** ****** ****** ****** ****** ****** ******
   3  ****** ****** ****** ****** ****** ****** ****** ****** ****** ******
      ****** ****** ****** ****** ****** ****** ****** ****** ****** ******
      ****** ****** ****** ****** ****** ****** ****** ****** ****** ******
   4  ****** ****** ****** ****** ****** ****** ****** ****** ****** ******
      ****** ****** ****** ****** ****** ****** ****** ****** ****** ******
      ****** ****** ****** ****** ****** ****** ****** ****** ****** ******
   5  ****** ****** ****** ****** ****** ****** ****** ****** ****** ******
      ****** ****** ****** ****** ****** ****** ****** ****** ****** ******
      ****** ****** ****** ****** ****** ****** ****** ****** ****** ******
   6  ****** ****** ****** ****** ****** ****** ****** ****** ****** ******
      ****** ****** ****** ****** ****** ****** ****** ****** ****** ******
      ****** ****** ****** ****** ****** ****** ****** ****** ****** ******
   7  ****** ****** ****** ****** ****** ****** ****** ****** ****** ******
      ****** ****** ****** ****** ****** ****** ****** ****** ****** ******
      ****** ****** ****** ****** ****** ****** ****** ****** ****** ******
   8  ****** ****** ****** ****** ****** ****** ****** ****** ****** ******
      ****** ****** ****** ****** ****** ****** ****** ****** ****** ******
      ****** ****** ****** ****** ****** ****** ****** ****** ****** ******
   9  ****** ****** ****** ****** ****** ****** ****** ****** ****** ******
      ****** ****** ****** ****** ****** ****** ****** ****** ****** ******
      ****** ****** ****** ****** ****** ****** ****** ****** ****** ******
  10  ****** ****** ****** ****** ****** ****** ****** ****** ****** ******
      ****** ****** ****** ****** ****** ****** ****** ****** ****** ******
      ****** ****** ****** ****** ****** ****** ****** ****** ****** ******
  11  ****** ****** ****** ****** ****** ****** ****** ****** ****** ******
      ****** ****** ****** ****** ****** ****** ****** ****** ****** ******
      ****** ****** ****** ****** ****** ****** ****** ****** ****** ******
  12  ****** ****** ****** ****** ****** ****** ****** ****** ****** ******
      ****** ****** ****** ****** ****** ****** ****** ****** ****** ******
      ****** ****** ****** ****** ****** ****** ****** ****** ****** ******
  13  ****** ****** ****** ****** ****** ****** ****** ****** ****** ******
      ****** ****** ****** ****** ****** ****** ****** ****** ****** ******
      ****** ****** ****** ****** ****** ****** ****** ****** ****** ******
  14  ****** ****** ****** ****** ****** ****** ****** ****** ****** ******
      ****** ****** ****** ****** ****** ****** ****** ****** ****** ******
      ****** ****** ****** ****** ****** ****** ****** ****** ****** ******
  15  ****** ****** ****** ****** ****** ****** ****** ****** ****** ******
      ****** ****** ****** ****** ****** ****** ****** ****** ****** ******
      ****** ****** ****** ****** ****** ****** ****** ****** ****** ******
  16  ****** ****** ****** ****** ****** ****** ****** ****** ****** ******
      ****** ****** ****** ****** ****** ****** ****** ****** ****** ******
      ****** ****** ****** ****** ****** ****** ****** ****** ****** ******
  17  ****** ****** ****** ****** ****** ****** ****** ****** ****** ******
      ****** ****** ****** ****** ****** ****** ****** ****** ****** ******
      ****** ****** ****** ****** ****** ****** ****** ****** ****** ******
  18  ****** ****** ****** ****** ****** ****** ****** ****** ****** ******
      ****** ****** ****** ****** ****** ****** ****** ****** ****** ******
      ****** ****** ****** ****** ****** ****** ****** ****** ****** ******
  19  ****** ****** ****** ****** ****** ****** ****** ****** ****** ******
      ****** ****** ****** ****** ****** ****** ****** ****** ****** ******
      ****** ****** ****** ****** ****** ****** ****** ****** ****** ******
  20  ****** ****** ****** ****** ****** ****** ****** ****** ****** ******
      ****** ****** ****** ****** ****** ****** ****** ****** ****** ******
      ****** ****** ****** ****** ****** ****** ****** ****** ****** ******
  21  ****** ****** ****** ****** ****** ****** ****** ****** ****** ******
      ****** ****** ****** ****** ****** ****** ****** ****** ****** ******
      ****** ****** ****** ****** ****** ****** ****** ****** ****** ******
  22  ****** ****** ****** ****** ****** ****** ****** ****** ****** ******
      ****** ****** ****** ****** ****** ****** ****** ****** ****** ******
      ****** ****** ****** ****** ****** ****** ****** ****** ****** ******
  23  ****** ****** ****** ****** ****** ****** ****** ****** ****** ******
      ****** ****** ****** ****** ****** ****** ****** ****** ****** ******
      ****** ****** ****** ****** ****** ****** ****** ****** ****** ******
  24  ****** ****** ****** ****** ****** ****** ****** ****** ****** ******
      ****** ****** ****** ****** ****** ****** ****** ****** ****** ******
      ****** ****** ****** ****** ****** ****** ****** ****** ****** ******
  25  ****** ****** ****** ****** ****** ****** ****** ****** ****** ******
      ****** ****** ****** ****** ****** ****** ****** ****** ****** ******
      ****** ****** ****** ****** ****** ****** ****** ****** ****** ******

 HEAD WILL BE SAVED ON UNIT   51 AT END OF TIME STEP    1, STRESS PERIOD    1
1
  VOLUMETRIC BUDGET FOR ENTIRE MODEL AT END OF TIME STEP    1, STRESS PERIOD   1
  ------------------------------------------------------------------------------

     CUMULATIVE VOLUMES      L**3       RATES FOR THIS TIME STEP      L**3/T
     ------------------                 ------------------------

           IN:                                      IN:
           ---                                      ---
             STORAGE =    19460805.4589               STORAGE =      211530.4941
       CONSTANT HEAD =    15257345.2694         CONSTANT HEAD =      165840.7094
               WELLS =           0.0000                 WELLS =           0.0000
            RECHARGE =     1269600.0000              RECHARGE =       13800.0000
      STREAM LEAKAGE =      475774.5601        STREAM LEAKAGE =        5171.4626

            TOTAL IN =    36463525.2883              TOTAL IN =      396342.6662

          OUT:                                     OUT:
          ----                                     ----
             STORAGE =           0.0000               STORAGE =           0.0000
       CONSTANT HEAD =           0.0000         CONSTANT HEAD =           0.0000
               WELLS =    14030069.0000                 WELLS =      152500.7500
            RECHARGE =           0.0000              RECHARGE =           0.0000
      STREAM LEAKAGE =    22433456.4282        STREAM LEAKAGE =      243841.9177

           TOTAL OUT =    36463525.4282             TOTAL OUT =      396342.6677

            IN - OUT =          -0.1398              IN - OUT =      -1.5200E-03

 PERCENT DISCREPANCY =          -0.00     PERCENT DISCREPANCY =          -0.00






         TIME SUMMARY AT END OF TIME STEP    1 IN STRESS PERIOD    1
                    SECONDS     MINUTES      HOURS       DAYS        YEARS
                    -----------------------------------------------------------
   TIME STEP LENGTH 7.94880E+06 1.32480E+05  2208.0      92.000     0.25188    
 STRESS PERIOD TIME 7.94880E+06 1.32480E+05  2208.0      92.000     0.25188    
         TOTAL TIME 7.94880E+06 1.32480E+05  2208.0      92.000     0.25188    
1
1
                            STRESS PERIOD NO.    2, LENGTH =   91.00000    
                            -----------------------------------------------

                              NUMBER OF TIME STEPS =     1

                               MULTIPLIER FOR DELT =     1.500

                            INITIAL TIME STEP SIZE =   91.00000    

 WELL NO.  LAYER   ROW   COL   STRESS RATE         
 --------------------------------------------------
      1      1      5     22     -0.5000E+05
      2      1      3     18     -0.5000E+05
      3      1      3     21     -0.5250E+05

      3 WELLS

                 RECHARGE =  2.000000E-03

 REUSING STREAM SEGMENT DATA FROM LAST STRESS PERIOD
 
 SOLVING FOR HEAD 


     7 CALLS TO PCG ROUTINE FOR TIME STEP   1 IN STRESS PERIOD    2
    27 TOTAL ITERATIONS

 OUTPUT CONTROL FOR STRESS PERIOD    2   TIME STEP    1
    SAVE BUDGET
    SAVE HEAD FOR ALL LAYERS
    PRINT HEAD FOR ALL LAYERS
 UBDSV2 SAVING "STREAMFLOW OUT  " ON UNIT  50 AT TIME STEP  1, STRESS PERIOD   2



 STREAM LISTING     PERIOD      2   STEP        1

 LAYER ROW COL. STREAM  RCH.  FLOW INTO     FLOW TO   FLOW OUT OF   OVRLND.     DIRECT     STREAM       STREAM     STREAM     STREAM   STREAMBED  STREAMBED
                SEG.NO.  NO.  STRM. RCH.    AQUIFER    STRM. RCH.    RUNOFF     PRECIP       ET          HEAD       DEPTH      WIDTH   CONDCTNC.   GRADIENT

   1   13    1     1     1    1.0000E+05 -3.7879E+03   1.0379E+05  0.000E+00  0.000E+00  0.000E+00  4.84077E+01  1.463E-01  2.000E+01  2.000E+04 -1.894E-01
   1   13    2     1     2    1.0379E+05 -6.0805E+03   1.0987E+05  0.000E+00  0.000E+00  0.000E+00  4.79346E+01  1.505E-01  2.000E+01  2.000E+04 -3.040E-01
   1   14    3     1     3    1.0987E+05 -5.0729E+03   1.1494E+05  0.000E+00  0.000E+00  0.000E+00  4.74620E+01  1.552E-01  2.000E+01  2.000E+04 -2.536E-01
   1   15    4     1     4    1.1494E+05 -4.9372E+03   1.1988E+05  0.000E+00  0.000E+00  0.000E+00  4.69888E+01  1.593E-01  2.000E+01  2.000E+04 -2.469E-01
   1   16    5     1     5    1.1988E+05 -5.1643E+03   1.2504E+05  0.000E+00  0.000E+00  0.000E+00  4.65156E+01  1.634E-01  2.000E+01  2.000E+04 -2.582E-01
   1   16    6     1     6    1.2504E+05 -4.0701E+03   1.2911E+05  0.000E+00  0.000E+00  0.000E+00  4.60420E+01  1.670E-01  2.000E+01  2.000E+04 -2.035E-01
   1   16    7     1     7    1.2911E+05 -4.1534E+03   1.3327E+05  0.000E+00  0.000E+00  0.000E+00  4.55680E+01  1.702E-01  2.000E+01  2.000E+04 -2.077E-01
   1   16    8     1     8    1.3327E+05 -4.1989E+03   1.3747E+05  0.000E+00  0.000E+00  0.000E+00  4.50939E+01  1.735E-01  2.000E+01  2.000E+04 -2.099E-01
   1   16    9     1     9    1.3747E+05 -4.1924E+03   1.4166E+05  0.000E+00  0.000E+00  0.000E+00  4.46199E+01  1.767E-01  2.000E+01  2.000E+04 -2.096E-01
   1   16   10     1    10    1.4166E+05 -4.1424E+03   1.4580E+05  0.000E+00  0.000E+00  0.000E+00  4.41457E+01  1.798E-01  2.000E+01  2.000E+04 -2.071E-01
   1   16   11     1    11    1.4580E+05 -4.0896E+03   1.4989E+05  0.000E+00  0.000E+00  0.000E+00  4.36715E+01  1.829E-01  2.000E+01  2.000E+04 -2.045E-01
   1   16   12     1    12    1.4989E+05 -5.4767E+03   1.5537E+05  0.000E+00  0.000E+00  0.000E+00  4.31978E+01  1.864E-01  2.000E+01  2.000E+04 -2.738E-01
   1   15   13     1    13    1.5537E+05 -5.1419E+03   1.6051E+05  0.000E+00  0.000E+00  0.000E+00  4.27244E+01  1.903E-01  2.000E+01  2.000E+04 -2.571E-01
   1   14   14     1    14    1.6051E+05 -5.0418E+03   1.6555E+05  0.000E+00  0.000E+00  0.000E+00  4.22508E+01  1.939E-01  2.000E+01  2.000E+04 -2.521E-01
   1   13   15     1    15    1.6555E+05 -4.9017E+03   1.7045E+05  0.000E+00  0.000E+00  0.000E+00  4.17770E+01  1.975E-01  2.000E+01  2.000E+04 -2.451E-01
   1   12   16     1    16    1.7045E+05 -4.8628E+03   1.7531E+05  0.000E+00  0.000E+00  0.000E+00  4.13032E+01  2.009E-01  2.000E+01  2.000E+04 -2.431E-01
   1   12   17     1    17    1.7531E+05 -2.8981E+03   1.7821E+05  0.000E+00  0.000E+00  0.000E+00  4.08286E+01  2.036E-01  2.000E+01  2.000E+04 -1.449E-01
   1   12   18     1    18    1.7821E+05 -2.4660E+03   1.8068E+05  0.000E+00  0.000E+00  0.000E+00  4.03532E+01  2.054E-01  2.000E+01  2.000E+04 -1.233E-01
   1   12   19     1    19    1.8068E+05 -2.4373E+03   1.8312E+05  0.000E+00  0.000E+00  0.000E+00  3.98776E+01  2.071E-01  2.000E+01  2.000E+04 -1.219E-01
   1   13   20     1    20    1.8312E+05 -2.5597E+03   1.8568E+05  0.000E+00  0.000E+00  0.000E+00  3.94020E+01  2.088E-01  2.000E+01  2.000E+04 -1.280E-01
   1   14   21     1    21    1.8568E+05 -2.8706E+03   1.8855E+05  0.000E+00  0.000E+00  0.000E+00  3.89266E+01  2.107E-01  2.000E+01  2.000E+04 -1.435E-01
   1   14   22     1    22    1.8855E+05  5.1799E+03   1.8337E+05  0.000E+00  0.000E+00  0.000E+00  3.84485E+01  2.099E-01  2.000E+01  2.000E+04  2.590E-01
   1    9   30     2     1    5.0000E+04 -2.6073E+03   5.2607E+04  0.000E+00  0.000E+00  0.000E+00  4.02427E+01  1.177E-01  2.000E+01  2.000E+04 -1.304E-01
   1    9   29     2     2    5.2607E+04 -2.7693E+03   5.5377E+04  0.000E+00  0.000E+00  0.000E+00  3.99963E+01  1.213E-01  2.000E+01  2.000E+04 -1.385E-01
   1    9   28     2     3    5.5377E+04 -2.7353E+03   5.8112E+04  0.000E+00  0.000E+00  0.000E+00  3.97500E+01  1.250E-01  2.000E+01  2.000E+04 -1.368E-01
   1    9   27     2     4    5.8112E+04 -3.4775E+03   6.1589E+04  0.000E+00  0.000E+00  0.000E+00  3.95041E+01  1.291E-01  2.000E+01  2.000E+04 -1.739E-01
   1   10   26     2     5    6.1589E+04 -1.5484E+03   6.3138E+04  0.000E+00  0.000E+00  0.000E+00  3.92573E+01  1.323E-01  2.000E+01  2.000E+04 -7.742E-02
   1   11   25     2     6    6.3138E+04 -8.5742E+02   6.3995E+04  0.000E+00  0.000E+00  0.000E+00  3.90088E+01  1.338E-01  2.000E+01  2.000E+04 -4.287E-02
   1   12   24     2     7    6.3995E+04 -5.2154E+02   6.4517E+04  0.000E+00  0.000E+00  0.000E+00  3.87597E+01  1.347E-01  2.000E+01  2.000E+04 -2.608E-02
   1   13   23     2     8    6.4517E+04 -3.1700E+02   6.4834E+04  0.000E+00  0.000E+00  0.000E+00  3.85102E+01  1.352E-01  2.000E+01  2.000E+04 -1.585E-02
   1   14   22     2     9    6.4834E+04  1.4002E+03   6.3434E+04  0.000E+00  0.000E+00  0.000E+00  3.82595E+01  1.345E-01  2.000E+01  2.000E+04  7.001E-02
   1   14   22     3     1    2.4680E+05 -8.5088E+03   2.5531E+05  0.000E+00  0.000E+00  0.000E+00  3.77641E+01  2.085E-01  2.000E+01  2.000E+04 -4.254E-01
   1   15   23     3     2    2.5531E+05 -3.9634E+03   2.5927E+05  0.000E+00  0.000E+00  0.000E+00  3.68783E+01  2.116E-01  2.000E+01  2.000E+04 -1.982E-01
   1   15   24     3     3    2.5927E+05 -2.6705E+03   2.6194E+05  0.000E+00  0.000E+00  0.000E+00  3.59910E+01  2.133E-01  2.000E+01  2.000E+04 -1.335E-01
   1   15   25     3     4    2.6194E+05 -2.5218E+03   2.6446E+05  0.000E+00  0.000E+00  0.000E+00  3.51034E+01  2.145E-01  2.000E+01  2.000E+04 -1.261E-01
   1   15   26     3     5    2.6446E+05 -3.0559E+03   2.6752E+05  0.000E+00  0.000E+00  0.000E+00  3.42159E+01  2.159E-01  2.000E+01  2.000E+04 -1.528E-01
   1   16   27     3     6    2.6752E+05 -4.2637E+03   2.7178E+05  0.000E+00  0.000E+00  0.000E+00  3.33288E+01  2.177E-01  2.000E+01  2.000E+04 -2.132E-01
   1   17   28     3     7    2.7178E+05 -5.1030E+03   2.7689E+05  0.000E+00  0.000E+00  0.000E+00  3.24421E+01  2.199E-01  2.000E+01  2.000E+04 -2.552E-01
   1   18   29     3     8    2.7689E+05 -6.6973E+03   2.8358E+05  0.000E+00  0.000E+00  0.000E+00  3.15561E+01  2.227E-01  2.000E+01  2.000E+04 -3.349E-01
   1   18   30     3     9    2.8358E+05 -5.4752E+03   2.8906E+05  0.000E+00  0.000E+00  0.000E+00  3.06701E+01  2.256E-01  2.000E+01  2.000E+04 -2.738E-01



1
              HEAD IN LAYER   1 AT END OF TIME STEP   1 IN STRESS PERIOD    2
  ---------------------------------------------------------------------------

          1      2      3      4      5      6      7      8      9     10
         11     12     13     14     15     16     17     18     19     20
         21     22     23     24     25     26     27     28     29     30
 .........................................................................
   1  ****** ****** ****** ****** ****** ****** ****** ****** ****** ******
      ****** ****** ****** ****** ****** ****** ****** ****** ****** ******
      ****** ****** ****** ****** ****** ****** ****** ****** ****** ******
   2  ****** ****** ****** ****** ****** ****** ****** ****** ****** ******
      ****** ****** ****** ****** ****** ****** ****** ****** ****** ******
      ****** ****** ****** ****** ****** ****** ****** ****** ****** ******
   3  ****** ****** ****** ****** ****** ****** ****** ****** ****** ******
      ****** ****** ****** ****** ****** ****** ****** ****** ****** ******
      ****** ****** ****** ****** ****** ****** ****** ****** ****** ******
   4  ****** ****** ****** ****** ****** ****** ****** ****** ****** ******
      ****** ****** ****** ****** ****** ****** ****** ****** ****** ******
      ****** ****** ****** ****** ****** ****** ****** ****** ****** ******
   5  ****** ****** ****** ****** ****** ****** ****** ****** ****** ******
      ****** ****** ****** ****** ****** ****** ****** ****** ****** ******
      ****** ****** ****** ****** ****** ****** ****** ****** ****** ******
   6  ****** ****** ****** ****** ****** ****** ****** ****** ****** ******
      ****** ****** ****** ****** ****** ****** ****** ****** ****** ******
      ****** ****** ****** ****** ****** ****** ****** ****** ****** ******
   7  ****** ****** ****** ****** ****** ****** ****** ****** ****** ******
      ****** ****** ****** ****** ****** ****** ****** ****** ****** ******
      ****** ****** ****** ****** ****** ****** ****** ****** ****** ******
   8  ****** ****** ****** ****** ****** ****** ****** ****** ****** ******
      ****** ****** ****** ****** ****** ****** ****** ****** ****** ******
      ****** ****** ****** ****** ****** ****** ****** ****** ****** ******
   9  ****** ****** ****** ****** ****** ****** ****** ****** ****** ******
      ****** ****** ****** ****** ****** ****** ****** ****** ****** ******
      ****** ****** ****** ****** ****** ****** ****** ****** ****** ******
  10  ****** ****** ****** ****** ****** ****** ****** ****** ****** ******
      ****** ****** ****** ****** ****** ****** ****** ****** ****** ******
      ****** ****** ****** ****** ****** ****** ****** ****** ****** ******
  11  ****** ****** ****** ****** ****** ****** ****** ****** ****** ******
      ****** ****** ****** ****** ****** ****** ****** ****** ****** ******
      ****** ****** ****** ****** ****** ****** ****** ****** ****** ******
  12  ****** ****** ****** ****** ****** ****** ****** ****** ****** ******
      ****** ****** ****** ****** ****** ****** ****** ****** ****** ******
      ****** ****** ****** ****** ****** ****** ****** ****** ****** ******
  13  ****** ****** ****** ****** ****** ****** ****** ****** ****** ******
      ****** ****** ****** ****** ****** ****** ****** ****** ****** ******
      ****** ****** ****** ****** ****** ****** ****** ****** ****** ******
  14  ****** ****** ****** ****** ****** ****** ****** ****** ****** ******
      ****** ****** ****** ****** ****** ****** ****** ****** ****** ******
      ****** ****** ****** ****** ****** ****** ****** ****** ****** ******
  15  ****** ****** ****** ****** ****** ****** ****** ****** ****** ******
      ****** ****** ****** ****** ****** ****** ****** ****** ****** ******
      ****** ****** ****** ****** ****** ****** ****** ****** ****** ******
  16  ****** ****** ****** ****** ****** ****** ****** ****** ****** ******
      ****** ****** ****** ****** ****** ****** ****** ****** ****** ******
      ****** ****** ****** ****** ****** ****** ****** ****** ****** ******
  17  ****** ****** ****** ****** ****** ****** ****** ****** ****** ******
      ****** ****** ****** ****** ****** ****** ****** ****** ****** ******
      ****** ****** ****** ****** ****** ****** ****** ****** ****** ******
  18  ****** ****** ****** ****** ****** ****** ****** ****** ****** ******
      ****** ****** ****** ****** ****** ****** ****** ****** ****** ******
      ****** ****** ****** ****** ****** ****** ****** ****** ****** ******
  19  ****** ****** ****** ****** ****** ****** ****** ****** ****** ******
      ****** ****** ****** ****** ****** ****** ****** ****** ****** ******
      ****** ****** ****** ****** ****** ****** ****** ****** ****** ******
  20  ****** ****** ****** ****** ****** ****** ****** ****** ****** ******
      ****** ****** ****** ****** ****** ****** ****** ****** ****** ******
      ****** ****** ****** ****** ****** ****** ****** ****** ****** ******
  21  ****** ****** ****** ****** ****** ****** ****** ****** ****** ******
      ****** ****** ****** ****** ****** ****** ****** ****** ****** ******
      ****** ****** ****** ****** ****** ****** ****** ****** ****** ******
  22  ****** ****** ****** ****** ****** ****** ****** ****** ****** ******
      ****** ****** ****** ****** ****** ****** ****** ****** ****** ******
      ****** ****** ****** ****** ****** ****** ****** ****** ****** ******
  23  ****** ****** ****** ****** ****** ****** ****** ****** ****** ******
      ****** ****** ****** ****** ****** ****** ****** ****** ****** ******
      ****** ****** ****** ****** ****** ****** ****** ****** ****** ******
  24  ****** ****** ****** ****** ****** ****** ****** ****** ****** ******
      ****** ****** ****** ****** ****** ****** ****** ****** ****** ******
      ****** ****** ****** ****** ****** ****** ****** ****** ****** ******
  25  ****** ****** ****** ****** ****** ****** ****** ****** ****** ******
      ****** ****** ****** ****** ****** ****** ****** ****** ****** ******
      ****** ****** ****** ****** ****** ****** ****** ****** ****** ******

 HEAD WILL BE SAVED ON UNIT   51 AT END OF TIME STEP    1, STRESS PERIOD    2
1
  VOLUMETRIC BUDGET FOR ENTIRE MODEL AT END OF TIME STEP    1, STRESS PERIOD   2
  ------------------------------------------------------------------------------

     CUMULATIVE VOLUMES      L**3       RATES FOR THIS TIME STEP      L**3/T
     ------------------                 ------------------------

           IN:                                      IN:
           ---                                      ---
             STORAGE =    23255851.9627               STORAGE =       41703.8077
       CONSTANT HEAD =    32971086.5785         CONSTANT HEAD =      194656.4979
               WELLS =           0.0000                 WELLS =           0.0000
            RECHARGE =     6292800.0000              RECHARGE =       55200.0000
      STREAM LEAKAGE =     1074564.5833        STREAM LEAKAGE =        6580.1101

            TOTAL IN =    63594303.1245              TOTAL IN =      298140.4158

          OUT:                                     OUT:
          ----                                     ----
             STORAGE =           0.0000               STORAGE =           0.0000
       CONSTANT HEAD =           0.0000         CONSTANT HEAD =           0.0000
               WELLS =    27907637.2500                 WELLS =      152500.7500
            RECHARGE =           0.0000              RECHARGE =           0.0000
      STREAM LEAKAGE =    35686666.4840        STREAM LEAKAGE =      145639.6709

           TOTAL OUT =    63594303.7340             TOTAL OUT =      298140.4209

            IN - OUT =          -0.6095              IN - OUT =      -5.1608E-03

 PERCENT DISCREPANCY =          -0.00     PERCENT DISCREPANCY =          -0.00






         TIME SUMMARY AT END OF TIME STEP    1 IN STRESS PERIOD    2
                    SECONDS     MINUTES      HOURS       DAYS        YEARS
                    -----------------------------------------------------------
   TIME STEP LENGTH 7.86240E+06 1.31040E+05  2184.0      91.000     0.24914    
 STRESS PERIOD TIME 7.86240E+06 1.31040E+05  2184.0      91.000     0.24914    
         TOTAL TIME 1.58112E+07 2.63520E+05  4392.0      183.00     0.50103    
1
1
                            STRESS PERIOD NO.    3, LENGTH =   91.00000    
                            -----------------------------------------------

                              NUMBER OF TIME STEPS =     1

                               MULTIPLIER FOR DELT =     1.500

                            INITIAL TIME STEP SIZE =   91.00000    

 WELL NO.  LAYER   ROW   COL   STRESS RATE         
 --------------------------------------------------
      1      1      5     22     -0.5000E+05
      2      1      3     18     -0.5000E+05
      3      1      3     21     -0.5250E+05

      3 WELLS

                 RECHARGE =   0.00000    

 REUSING STREAM SEGMENT DATA FROM LAST STRESS PERIOD
 
 SOLVING FOR HEAD 


     7 CALLS TO PCG ROUTINE FOR TIME STEP   1 IN STRESS PERIOD    3
    27 TOTAL ITERATIONS

 OUTPUT CONTROL FOR STRESS PERIOD    3   TIME STEP    1
    SAVE BUDGET
    SAVE HEAD FOR ALL LAYERS
    PRINT HEAD FOR ALL LAYERS
 UBDSV2 SAVING "STREAMFLOW OUT  " ON UNIT  50 AT TIME STEP  1, STRESS PERIOD   3



 STREAM LISTING     PERIOD      3   STEP        1

 LAYER ROW COL. STREAM  RCH.  FLOW INTO     FLOW TO   FLOW OUT OF   OVRLND.     DIRECT     STREAM       STREAM     STREAM     STREAM   STREAMBED  STREAMBED
                SEG.NO.  NO.  STRM. RCH.    AQUIFER    STRM. RCH.    RUNOFF     PRECIP       ET          HEAD       DEPTH      WIDTH   CONDCTNC.   GRADIENT

   1   13    1     1     1    1.0000E+05 -2.8470E+03   1.0285E+05  0.000E+00  0.000E+00  0.000E+00  4.84072E+01  1.459E-01  2.000E+01  2.000E+04 -1.424E-01
   1   13    2     1     2    1.0285E+05 -4.7769E+03   1.0762E+05  0.000E+00  0.000E+00  0.000E+00  4.79332E+01  1.491E-01  2.000E+01  2.000E+04 -2.388E-01
   1   14    3     1     3    1.0762E+05 -3.7922E+03   1.1142E+05  0.000E+00  0.000E+00  0.000E+00  4.74596E+01  1.528E-01  2.000E+01  2.000E+04 -1.896E-01
   1   15    4     1     4    1.1142E+05 -3.6885E+03   1.1510E+05  0.000E+00  0.000E+00  0.000E+00  4.69854E+01  1.559E-01  2.000E+01  2.000E+04 -1.844E-01
   1   16    5     1     5    1.1510E+05 -4.0543E+03   1.1916E+05  0.000E+00  0.000E+00  0.000E+00  4.65113E+01  1.590E-01  2.000E+01  2.000E+04 -2.027E-01
   1   16    6     1     6    1.1916E+05 -3.1820E+03   1.2234E+05  0.000E+00  0.000E+00  0.000E+00  4.60370E+01  1.620E-01  2.000E+01  2.000E+04 -1.591E-01
   1   16    7     1     7    1.2234E+05 -3.2380E+03   1.2558E+05  0.000E+00  0.000E+00  0.000E+00  4.55623E+01  1.645E-01  2.000E+01  2.000E+04 -1.619E-01
   1   16    8     1     8    1.2558E+05 -3.2658E+03   1.2884E+05  0.000E+00  0.000E+00  0.000E+00  4.50876E+01  1.671E-01  2.000E+01  2.000E+04 -1.633E-01
   1   16    9     1     9    1.2884E+05 -3.2542E+03   1.3210E+05  0.000E+00  0.000E+00  0.000E+00  4.46129E+01  1.697E-01  2.000E+01  2.000E+04 -1.627E-01
   1   16   10     1    10    1.3210E+05 -3.2120E+03   1.3531E+05  0.000E+00  0.000E+00  0.000E+00  4.41381E+01  1.722E-01  2.000E+01  2.000E+04 -1.606E-01
   1   16   11     1    11    1.3531E+05 -3.1768E+03   1.3849E+05  0.000E+00  0.000E+00  0.000E+00  4.36633E+01  1.746E-01  2.000E+01  2.000E+04 -1.588E-01
   1   16   12     1    12    1.3849E+05 -4.3090E+03   1.4280E+05  0.000E+00  0.000E+00  0.000E+00  4.31889E+01  1.775E-01  2.000E+01  2.000E+04 -2.154E-01
   1   15   13     1    13    1.4280E+05 -3.7940E+03   1.4659E+05  0.000E+00  0.000E+00  0.000E+00  4.27146E+01  1.805E-01  2.000E+01  2.000E+04 -1.897E-01
   1   14   14     1    14    1.4659E+05 -3.6100E+03   1.5020E+05  0.000E+00  0.000E+00  0.000E+00  4.22401E+01  1.833E-01  2.000E+01  2.000E+04 -1.805E-01
   1   13   15     1    15    1.5020E+05 -3.4259E+03   1.5363E+05  0.000E+00  0.000E+00  0.000E+00  4.17654E+01  1.859E-01  2.000E+01  2.000E+04 -1.713E-01
   1   12   16     1    16    1.5363E+05 -3.2642E+03   1.5689E+05  0.000E+00  0.000E+00  0.000E+00  4.12906E+01  1.883E-01  2.000E+01  2.000E+04 -1.632E-01
   1   12   17     1    17    1.5689E+05 -1.7442E+03   1.5863E+05  0.000E+00  0.000E+00  0.000E+00  4.08152E+01  1.902E-01  2.000E+01  2.000E+04 -8.721E-02
   1   12   18     1    18    1.5863E+05 -1.3157E+03   1.5995E+05  0.000E+00  0.000E+00  0.000E+00  4.03390E+01  1.913E-01  2.000E+01  2.000E+04 -6.578E-02
   1   12   19     1    19    1.5995E+05 -9.4105E+02   1.6089E+05  0.000E+00  0.000E+00  0.000E+00  3.98625E+01  1.921E-01  2.000E+01  2.000E+04 -4.705E-02
   1   13   20     1    20    1.6089E+05 -1.3361E+03   1.6223E+05  0.000E+00  0.000E+00  0.000E+00  3.93861E+01  1.929E-01  2.000E+01  2.000E+04 -6.681E-02
   1   14   21     1    21    1.6223E+05 -1.8537E+03   1.6408E+05  0.000E+00  0.000E+00  0.000E+00  3.89099E+01  1.940E-01  2.000E+01  2.000E+04 -9.268E-02
   1   14   22     1    22    1.6408E+05  5.3775E+03   1.5870E+05  0.000E+00  0.000E+00  0.000E+00  3.84314E+01  1.928E-01  2.000E+01  2.000E+04  2.689E-01
   1    9   30     2     1    5.0000E+04 -1.7087E+03   5.1709E+04  0.000E+00  0.000E+00  0.000E+00  4.02420E+01  1.170E-01  2.000E+01  2.000E+04 -8.543E-02
   1    9   29     2     2    5.1709E+04 -1.8660E+03   5.3575E+04  0.000E+00  0.000E+00  0.000E+00  3.99945E+01  1.195E-01  2.000E+01  2.000E+04 -9.330E-02
   1    9   28     2     3    5.3575E+04 -1.8053E+03   5.5380E+04  0.000E+00  0.000E+00  0.000E+00  3.97470E+01  1.220E-01  2.000E+01  2.000E+04 -9.026E-02
   1    9   27     2     4    5.5380E+04 -2.0537E+03   5.7434E+04  0.000E+00  0.000E+00  0.000E+00  3.94996E+01  1.246E-01  2.000E+01  2.000E+04 -1.027E-01
   1   10   26     2     5    5.7434E+04 -1.2091E+02   5.7555E+04  0.000E+00  0.000E+00  0.000E+00  3.92510E+01  1.260E-01  2.000E+01  2.000E+04 -6.046E-03
   1   11   25     2     6    5.7555E+04  4.8788E+02   5.7067E+04  0.000E+00  0.000E+00  0.000E+00  3.90008E+01  1.258E-01  2.000E+01  2.000E+04  2.439E-02
   1   12   24     2     7    5.7067E+04  6.2083E+02   5.6446E+04  0.000E+00  0.000E+00  0.000E+00  3.87500E+01  1.250E-01  2.000E+01  2.000E+04  3.104E-02
   1   13   23     2     8    5.6446E+04  5.0640E+02   5.5939E+04  0.000E+00  0.000E+00  0.000E+00  3.84993E+01  1.243E-01  2.000E+01  2.000E+04  2.532E-02
   1   14   22     2     9    5.5939E+04  1.7053E+03   5.4234E+04  0.000E+00  0.000E+00  0.000E+00  3.82478E+01  1.228E-01  2.000E+01  2.000E+04  8.526E-02
   1   14   22     3     1    2.1294E+05 -8.3174E+03   2.2126E+05  0.000E+00  0.000E+00  0.000E+00  3.77467E+01  1.911E-01  2.000E+01  2.000E+04 -4.159E-01
   1   15   23     3     2    2.2126E+05 -3.0945E+03   2.2435E+05  0.000E+00  0.000E+00  0.000E+00  3.68608E+01  1.941E-01  2.000E+01  2.000E+04 -1.547E-01
   1   15   24     3     3    2.2435E+05 -2.0751E+03   2.2642E+05  0.000E+00  0.000E+00  0.000E+00  3.59732E+01  1.955E-01  2.000E+01  2.000E+04 -1.038E-01
   1   15   25     3     4    2.2642E+05 -1.9247E+03   2.2835E+05  0.000E+00  0.000E+00  0.000E+00  3.50854E+01  1.965E-01  2.000E+01  2.000E+04 -9.624E-02
   1   15   26     3     5    2.2835E+05 -2.2368E+03   2.3059E+05  0.000E+00  0.000E+00  0.000E+00  3.41976E+01  1.976E-01  2.000E+01  2.000E+04 -1.118E-01
   1   16   27     3     6    2.3059E+05 -3.2284E+03   2.3381E+05  0.000E+00  0.000E+00  0.000E+00  3.33101E+01  1.990E-01  2.000E+01  2.000E+04 -1.614E-01
   1   17   28     3     7    2.3381E+05 -4.0607E+03   2.3788E+05  0.000E+00  0.000E+00  0.000E+00  3.24231E+01  2.009E-01  2.000E+01  2.000E+04 -2.030E-01
   1   18   29     3     8    2.3788E+05 -5.7561E+03   2.4363E+05  0.000E+00  0.000E+00  0.000E+00  3.15367E+01  2.033E-01  2.000E+01  2.000E+04 -2.878E-01
   1   18   30     3     9    2.4363E+05 -4.7690E+03   2.4840E+05  0.000E+00  0.000E+00  0.000E+00  3.06504E+01  2.060E-01  2.000E+01  2.000E+04 -2.384E-01



1
              HEAD IN LAYER   1 AT END OF TIME STEP   1 IN STRESS PERIOD    3
  ---------------------------------------------------------------------------

          1      2      3      4      5      6      7      8      9     10
         11     12     13     14     15     16     17     18     19     20
         21     22     23     24     25     26     27     28     29     30
 .........................................................................
   1  ****** ****** ****** ****** ****** ****** ****** ****** ****** ******
      ****** ****** ****** ****** ****** ****** ****** ****** ****** ******
      ****** ****** ****** ****** ****** ****** ****** ****** ****** ******
   2  ****** ****** ****** ****** ****** ****** ****** ****** ****** ******
      ****** ****** ****** ****** ****** ****** ****** ****** ****** ******
      ****** ****** ****** ****** ****** ****** ****** ****** ****** ******
   3  ****** ****** ****** ****** ****** ****** ****** ****** ****** ******
      ****** ****** ****** ****** ****** ****** ****** ****** ****** ******
      ****** ****** ****** ****** ****** ****** ****** ****** ****** ******
   4  ****** ****** ****** ****** ****** ****** ****** ****** ****** ******
      ****** ****** ****** ****** ****** ****** ****** ****** ****** ******
      ****** ****** ****** ****** ****** ****** ****** ****** ****** ******
   5  ****** ****** ****** ****** ****** ****** ****** ****** ****** ******
      ****** ****** ****** ****** ****** ****** ****** ****** ****** ******
      ****** ****** ****** ****** ****** ****** ****** ****** ****** ******
   6  ****** ****** ****** ****** ****** ****** ****** ****** ****** ******
      ****** ****** ****** ****** ****** ****** ****** ****** ****** ******
      ****** ****** ****** ****** ****** ****** ****** ****** ****** ******
   7  ****** ****** ****** ****** ****** ****** ****** ****** ****** ******
      ****** ****** ****** ****** ****** ****** ****** ****** ****** ******
      ****** ****** ****** ****** ****** ****** ****** ****** ****** ******
   8  ****** ****** ****** ****** ****** ****** ****** ****** ****** ******
      ****** ****** ****** ****** ****** ****** ****** ****** ****** ******
      ****** ****** ****** ****** ****** ****** ****** ****** ****** ******
   9  ****** ****** ****** ****** ****** ****** ****** ****** ****** ******
      ****** ****** ****** ****** ****** ****** ****** ****** ****** ******
      ****** ****** ****** ****** ****** ****** ****** ****** ****** ******
  10  ****** ****** ****** ****** ****** ****** ****** ****** ****** ******
      ****** ****** ****** ****** ****** ****** ****** ****** ****** ******
      ****** ****** ****** ****** ****** ****** ****** ****** ****** ******
  11  ****** ****** ****** ****** ****** ****** ****** ****** ****** ******
      ****** ****** ****** ****** ****** ****** ****** ****** ****** ******
      ****** ****** ****** ****** ****** ****** ****** ****** ****** ******
  12  ****** ****** ****** ****** ****** ****** ****** ****** ****** ******
      ****** ****** ****** ****** ****** ****** ****** ****** ****** ******
      ****** ****** ****** ****** ****** ****** ****** ****** ****** ******
  13  ****** ****** ****** ****** ****** ****** ****** ****** ****** ******
      ****** ****** ****** ****** ****** ****** ****** ****** ****** ******
      ****** ****** ****** ****** ****** ****** ****** ****** ****** ******
  14  ****** ****** ****** ****** ****** ****** ****** ****** ****** ******
      ****** ****** ****** ****** ****** ****** ****** ****** ****** ******
      ****** ****** ****** ****** ****** ****** ****** ****** ****** ******
  15  ****** ****** ****** ****** ****** ****** ****** ****** ****** ******
      ****** ****** ****** ****** ****** ****** ****** ****** ****** ******
      ****** ****** ****** ****** ****** ****** ****** ****** ****** ******
  16  ****** ****** ****** ****** ****** ****** ****** ****** ****** ******
      ****** ****** ****** ****** ****** ****** ****** ****** ****** ******
      ****** ****** ****** ****** ****** ****** ****** ****** ****** ******
  17  ****** ****** ****** ****** ****** ****** ****** ****** ****** ******
      ****** ****** ****** ****** ****** ****** ****** ****** ****** ******
      ****** ****** ****** ****** ****** ****** ****** ****** ****** ******
  18  ****** ****** ****** ****** ****** ****** ****** ****** ****** ******
      ****** ****** ****** ****** ****** ****** ****** ****** ****** ******
      ****** ****** ****** ****** ****** ****** ****** ****** ****** ******
  19  ****** ****** ****** ****** ****** ****** ****** ****** ****** ******
      ****** ****** ****** ****** ****** ****** ****** ****** ****** ******
      ****** ****** ****** ****** ****** ****** ****** ****** ****** ******
  20  ****** ****** ****** ****** ****** ****** ****** ****** ****** ******
      ****** ****** ****** ****** ****** ****** ****** ****** ****** ******
      ****** ****** ****** ****** ****** ****** ****** ****** ****** ******
  21  ****** ****** ****** ****** ****** ****** ****** ****** ****** ******
      ****** ****** ****** ****** ****** ****** ****** ****** ****** ******
      ****** ****** ****** ****** ****** ****** ****** ****** ****** ******
  22  ****** ****** ****** ****** ****** ****** ****** ****** ****** ******
      ****** ****** ****** ****** ****** ****** ****** ****** ****** ******
      ****** ****** ****** ****** ****** ****** ****** ****** ****** ******
  23  ****** ****** ****** ****** ****** ****** ****** ****** ****** ******
      ****** ****** ****** ****** ****** ****** ****** ****** ****** ******
      ****** ****** ****** ****** ****** ****** ****** ****** ****** ******
  24  ****** ****** ****** ****** ****** ****** ****** ****** ****** ******
      ****** ****** ****** ****** ****** ****** ****** ****** ****** ******
      ****** ****** ****** ****** ****** ****** ****** ****** ****** ******
  25  ****** ****** ****** ****** ****** ****** ****** ****** ****** ******
      ****** ****** ****** ****** ****** ****** ****** ****** ****** ******
      ****** ****** ****** ****** ****** ****** ****** ****** ****** ******

 HEAD WILL BE SAVED ON UNIT   51 AT END OF TIME STEP    1, STRESS PERIOD    3
1
  VOLUMETRIC BUDGET FOR ENTIRE MODEL AT END OF TIME STEP    1, STRESS PERIOD   3
  ------------------------------------------------------------------------------

     CUMULATIVE VOLUMES      L**3       RATES FOR THIS TIME STEP      L**3/T
     ------------------                 ------------------------

           IN:                                      IN:
           ---                                      ---
             STORAGE =    25934888.5348               STORAGE =       29439.9623
       CONSTANT HEAD =    53124085.8930         CONSTANT HEAD =      221461.5309
               WELLS =           0.0000                 WELLS =           0.0000
            RECHARGE =     6292800.0000              RECHARGE =           0.0000
      STREAM LEAKAGE =     1866073.3582        STREAM LEAKAGE =        8697.8986

            TOTAL IN =    87217847.7859              TOTAL IN =      259599.3919

          OUT:                                     OUT:
          ----                                     ----
             STORAGE =           0.0000               STORAGE =           0.0000
       CONSTANT HEAD =           0.0000         CONSTANT HEAD =           0.0000
               WELLS =    41785205.5000                 WELLS =      152500.7500
            RECHARGE =           0.0000              RECHARGE =           0.0000
      STREAM LEAKAGE =    45432643.1460        STREAM LEAKAGE =      107098.6446

           TOTAL OUT =    87217848.6460             TOTAL OUT =      259599.3946

            IN - OUT =          -0.8601              IN - OUT =      -2.7536E-03

 PERCENT DISCREPANCY =          -0.00     PERCENT DISCREPANCY =          -0.00






         TIME SUMMARY AT END OF TIME STEP    1 IN STRESS PERIOD    3
                    SECONDS     MINUTES      HOURS       DAYS        YEARS
                    -----------------------------------------------------------
   TIME STEP LENGTH 7.86240E+06 1.31040E+05  2184.0      91.000     0.24914    
 STRESS PERIOD TIME 7.86240E+06 1.31040E+05  2184.0      91.000     0.24914    
         TOTAL TIME 2.36736E+07 3.94560E+05  6576.0      274.00     0.75017    
1
1
                            STRESS PERIOD NO.    4, LENGTH =   91.00000    
                            -----------------------------------------------

                              NUMBER OF TIME STEPS =     1

                               MULTIPLIER FOR DELT =     1.500

                            INITIAL TIME STEP SIZE =   91.00000    

 WELL NO.  LAYER   ROW   COL   STRESS RATE         
 --------------------------------------------------
      1      1      5     22     -0.5000E+05
      2      1      3     18     -0.5000E+05
      3      1      3     21     -0.5250E+05

      3 WELLS

                 RECHARGE =  1.000000E-03

 REUSING STREAM SEGMENT DATA FROM LAST STRESS PERIOD
 
 SOLVING FOR HEAD 


     5 CALLS TO PCG ROUTINE FOR TIME STEP   1 IN STRESS PERIOD    4
    18 TOTAL ITERATIONS

 OUTPUT CONTROL FOR STRESS PERIOD    4   TIME STEP    1
    SAVE BUDGET
    SAVE HEAD FOR ALL LAYERS
    PRINT HEAD FOR ALL LAYERS
 UBDSV2 SAVING "STREAMFLOW OUT  " ON UNIT  50 AT TIME STEP  1, STRESS PERIOD   4



 STREAM LISTING     PERIOD      4   STEP        1

 LAYER ROW COL. STREAM  RCH.  FLOW INTO     FLOW TO   FLOW OUT OF   OVRLND.     DIRECT     STREAM       STREAM     STREAM     STREAM   STREAMBED  STREAMBED
                SEG.NO.  NO.  STRM. RCH.    AQUIFER    STRM. RCH.    RUNOFF     PRECIP       ET          HEAD       DEPTH      WIDTH   CONDCTNC.   GRADIENT

   1   13    1     1     1    1.0000E+05 -2.8506E+03   1.0285E+05  0.000E+00  0.000E+00  0.000E+00  4.84072E+01  1.459E-01  2.000E+01  2.000E+04 -1.425E-01
   1   13    2     1     2    1.0285E+05 -4.7341E+03   1.0758E+05  0.000E+00  0.000E+00  0.000E+00  4.79332E+01  1.491E-01  2.000E+01  2.000E+04 -2.367E-01
   1   14    3     1     3    1.0758E+05 -3.8157E+03   1.1140E+05  0.000E+00  0.000E+00  0.000E+00  4.74596E+01  1.527E-01  2.000E+01  2.000E+04 -1.908E-01
   1   15    4     1     4    1.1140E+05 -3.7358E+03   1.1514E+05  0.000E+00  0.000E+00  0.000E+00  4.69854E+01  1.559E-01  2.000E+01  2.000E+04 -1.868E-01
   1   16    5     1     5    1.1514E+05 -4.1237E+03   1.1926E+05  0.000E+00  0.000E+00  0.000E+00  4.65114E+01  1.591E-01  2.000E+01  2.000E+04 -2.062E-01
   1   16    6     1     6    1.1926E+05 -3.2255E+03   1.2249E+05  0.000E+00  0.000E+00  0.000E+00  4.60371E+01  1.621E-01  2.000E+01  2.000E+04 -1.613E-01
   1   16    7     1     7    1.2249E+05 -3.2743E+03   1.2576E+05  0.000E+00  0.000E+00  0.000E+00  4.55624E+01  1.647E-01  2.000E+01  2.000E+04 -1.637E-01
   1   16    8     1     8    1.2576E+05 -3.2976E+03   1.2906E+05  0.000E+00  0.000E+00  0.000E+00  4.50877E+01  1.673E-01  2.000E+01  2.000E+04 -1.649E-01
   1   16    9     1     9    1.2906E+05 -3.2841E+03   1.3234E+05  0.000E+00  0.000E+00  0.000E+00  4.46130E+01  1.699E-01  2.000E+01  2.000E+04 -1.642E-01
   1   16   10     1    10    1.3234E+05 -3.2425E+03   1.3558E+05  0.000E+00  0.000E+00  0.000E+00  4.41383E+01  1.724E-01  2.000E+01  2.000E+04 -1.621E-01
   1   16   11     1    11    1.3558E+05 -3.2110E+03   1.3880E+05  0.000E+00  0.000E+00  0.000E+00  4.36635E+01  1.749E-01  2.000E+01  2.000E+04 -1.605E-01
   1   16   12     1    12    1.3880E+05 -4.3582E+03   1.4315E+05  0.000E+00  0.000E+00  0.000E+00  4.31891E+01  1.777E-01  2.000E+01  2.000E+04 -2.179E-01
   1   15   13     1    13    1.4315E+05 -3.8138E+03   1.4697E+05  0.000E+00  0.000E+00  0.000E+00  4.27149E+01  1.808E-01  2.000E+01  2.000E+04 -1.907E-01
   1   14   14     1    14    1.4697E+05 -3.6031E+03   1.5057E+05  0.000E+00  0.000E+00  0.000E+00  4.22404E+01  1.836E-01  2.000E+01  2.000E+04 -1.802E-01
   1   13   15     1    15    1.5057E+05 -3.3880E+03   1.5396E+05  0.000E+00  0.000E+00  0.000E+00  4.17657E+01  1.862E-01  2.000E+01  2.000E+04 -1.694E-01
   1   12   16     1    16    1.5396E+05 -3.1367E+03   1.5709E+05  0.000E+00  0.000E+00  0.000E+00  4.12908E+01  1.885E-01  2.000E+01  2.000E+04 -1.568E-01
   1   12   17     1    17    1.5709E+05 -1.6917E+03   1.5879E+05  0.000E+00  0.000E+00  0.000E+00  4.08153E+01  1.903E-01  2.000E+01  2.000E+04 -8.458E-02
   1   12   18     1    18    1.5879E+05 -1.2690E+03   1.6006E+05  0.000E+00  0.000E+00  0.000E+00  4.03391E+01  1.914E-01  2.000E+01  2.000E+04 -6.345E-02
   1   12   19     1    19    1.6006E+05 -8.6087E+02   1.6092E+05  0.000E+00  0.000E+00  0.000E+00  3.98626E+01  1.921E-01  2.000E+01  2.000E+04 -4.304E-02
   1   13   20     1    20    1.6092E+05 -1.3643E+03   1.6228E+05  0.000E+00  0.000E+00  0.000E+00  3.93861E+01  1.929E-01  2.000E+01  2.000E+04 -6.821E-02
   1   14   21     1    21    1.6228E+05 -1.9100E+03   1.6419E+05  0.000E+00  0.000E+00  0.000E+00  3.89100E+01  1.941E-01  2.000E+01  2.000E+04 -9.550E-02
   1   14   22     1    22    1.6419E+05  5.3524E+03   1.5884E+05  0.000E+00  0.000E+00  0.000E+00  3.84315E+01  1.929E-01  2.000E+01  2.000E+04  2.676E-01
   1    9   30     2     1    5.0000E+04 -1.7757E+03   5.1776E+04  0.000E+00  0.000E+00  0.000E+00  4.02421E+01  1.171E-01  2.000E+01  2.000E+04 -8.878E-02
   1    9   29     2     2    5.1776E+04 -1.9272E+03   5.3703E+04  0.000E+00  0.000E+00  0.000E+00  3.99946E+01  1.196E-01  2.000E+01  2.000E+04 -9.636E-02
   1    9   28     2     3    5.3703E+04 -1.8513E+03   5.5554E+04  0.000E+00  0.000E+00  0.000E+00  3.97472E+01  1.222E-01  2.000E+01  2.000E+04 -9.257E-02
   1    9   27     2     4    5.5554E+04 -2.0323E+03   5.7587E+04  0.000E+00  0.000E+00  0.000E+00  3.94998E+01  1.248E-01  2.000E+01  2.000E+04 -1.016E-01
   1   10   26     2     5    5.7587E+04 -1.3588E+02   5.7722E+04  0.000E+00  0.000E+00  0.000E+00  3.92512E+01  1.262E-01  2.000E+01  2.000E+04 -6.794E-03
   1   11   25     2     6    5.7722E+04  4.6286E+02   5.7260E+04  0.000E+00  0.000E+00  0.000E+00  3.90010E+01  1.260E-01  2.000E+01  2.000E+04  2.314E-02
   1   12   24     2     7    5.7260E+04  5.8148E+02   5.6678E+04  0.000E+00  0.000E+00  0.000E+00  3.87503E+01  1.253E-01  2.000E+01  2.000E+04  2.907E-02
   1   13   23     2     8    5.6678E+04  4.5121E+02   5.6227E+04  0.000E+00  0.000E+00  0.000E+00  3.84996E+01  1.246E-01  2.000E+01  2.000E+04  2.256E-02
   1   14   22     2     9    5.6227E+04  1.6863E+03   5.4541E+04  0.000E+00  0.000E+00  0.000E+00  3.82482E+01  1.232E-01  2.000E+01  2.000E+04  8.432E-02
   1   14   22     3     1    2.1338E+05 -8.3395E+03   2.2172E+05  0.000E+00  0.000E+00  0.000E+00  3.77469E+01  1.914E-01  2.000E+01  2.000E+04 -4.170E-01
   1   15   23     3     2    2.2172E+05 -3.1731E+03   2.2489E+05  0.000E+00  0.000E+00  0.000E+00  3.68610E+01  1.944E-01  2.000E+01  2.000E+04 -1.587E-01
   1   15   24     3     3    2.2489E+05 -2.1600E+03   2.2705E+05  0.000E+00  0.000E+00  0.000E+00  3.59735E+01  1.958E-01  2.000E+01  2.000E+04 -1.080E-01
   1   15   25     3     4    2.2705E+05 -2.0211E+03   2.2907E+05  0.000E+00  0.000E+00  0.000E+00  3.50857E+01  1.968E-01  2.000E+01  2.000E+04 -1.011E-01
   1   15   26     3     5    2.2907E+05 -2.3657E+03   2.3144E+05  0.000E+00  0.000E+00  0.000E+00  3.41980E+01  1.980E-01  2.000E+01  2.000E+04 -1.183E-01
   1   16   27     3     6    2.3144E+05 -3.3686E+03   2.3481E+05  0.000E+00  0.000E+00  0.000E+00  3.33106E+01  1.995E-01  2.000E+01  2.000E+04 -1.684E-01
   1   17   28     3     7    2.3481E+05 -4.2016E+03   2.3901E+05  0.000E+00  0.000E+00  0.000E+00  3.24236E+01  2.014E-01  2.000E+01  2.000E+04 -2.101E-01
   1   18   29     3     8    2.3901E+05 -5.8827E+03   2.4489E+05  0.000E+00  0.000E+00  0.000E+00  3.15373E+01  2.040E-01  2.000E+01  2.000E+04 -2.941E-01
   1   18   30     3     9    2.4489E+05 -4.8800E+03   2.4977E+05  0.000E+00  0.000E+00  0.000E+00  3.06511E+01  2.067E-01  2.000E+01  2.000E+04 -2.440E-01



1
              HEAD IN LAYER   1 AT END OF TIME STEP   1 IN STRESS PERIOD    4
  ---------------------------------------------------------------------------

          1      2      3      4      5      6      7      8      9     10
         11     12     13     14     15     16     17     18     19     20
         21     22     23     24     25     26     27     28     29     30
 .........................................................................
   1  ****** ****** ****** ****** ****** ****** ****** ****** ****** ******
      ****** ****** ****** ****** ****** ****** ****** ****** ****** ******
      ****** ****** ****** ****** ****** ****** ****** ****** ****** ******
   2  ****** ****** ****** ****** ****** ****** ****** ****** ****** ******
      ****** ****** ****** ****** ****** ****** ****** ****** ****** ******
      ****** ****** ****** ****** ****** ****** ****** ****** ****** ******
   3  ****** ****** ****** ****** ****** ****** ****** ****** ****** ******
      ****** ****** ****** ****** ****** ****** ****** ****** ****** ******
      ****** ****** ****** ****** ****** ****** ****** ****** ****** ******
   4  ****** ****** ****** ****** ****** ****** ****** ****** ****** ******
      ****** ****** ****** ****** ****** ****** ****** ****** ****** ******
      ****** ****** ****** ****** ****** ****** ****** ****** ****** ******
   5  ****** ****** ****** ****** ****** ****** ****** ****** ****** ******
      ****** ****** ****** ****** ****** ****** ****** ****** ****** ******
      ****** ****** ****** ****** ****** ****** ****** ****** ****** ******
   6  ****** ****** ****** ****** ****** ****** ****** ****** ****** ******
      ****** ****** ****** ****** ****** ****** ****** ****** ****** ******
      ****** ****** ****** ****** ****** ****** ****** ****** ****** ******
   7  ****** ****** ****** ****** ****** ****** ****** ****** ****** ******
      ****** ****** ****** ****** ****** ****** ****** ****** ****** ******
      ****** ****** ****** ****** ****** ****** ****** ****** ****** ******
   8  ****** ****** ****** ****** ****** ****** ****** ****** ****** ******
      ****** ****** ****** ****** ****** ****** ****** ****** ****** ******
      ****** ****** ****** ****** ****** ****** ****** ****** ****** ******
   9  ****** ****** ****** ****** ****** ****** ****** ****** ****** ******
      ****** ****** ****** ****** ****** ****** ****** ****** ****** ******
      ****** ****** ****** ****** ****** ****** ****** ****** ****** ******
  10  ****** ****** ****** ****** ****** ****** ****** ****** ****** ******
      ****** ****** ****** ****** ****** ****** ****** ****** ****** ******
      ****** ****** ****** ****** ****** ****** ****** ****** ****** ******
  11  ****** ****** ****** ****** ****** ****** ****** ****** ****** ******
      ****** ****** ****** ****** ****** ****** ****** ****** ****** ******
      ****** ****** ****** ****** ****** ****** ****** ****** ****** ******
  12  ****** ****** ****** ****** ****** ****** ****** ****** ****** ******
      ****** ****** ****** ****** ****** ****** ****** ****** ****** ******
      ****** ****** ****** ****** ****** ****** ****** ****** ****** ******
  13  ****** ****** ****** ****** ****** ****** ****** ****** ****** ******
      ****** ****** ****** ****** ****** ****** ****** ****** ****** ******
      ****** ****** ****** ****** ****** ****** ****** ****** ****** ******
  14  ****** ****** ****** ****** ****** ****** ****** ****** ****** ******
      ****** ****** ****** ****** ****** ****** ****** ****** ****** ******
      ****** ****** ****** ****** ****** ****** ****** ****** ****** ******
  15  ****** ****** ****** ****** ****** ****** ****** ****** ****** ******
      ****** ****** ****** ****** ****** ****** ****** ****** ****** ******
      ****** ****** ****** ****** ****** ****** ****** ****** ****** ******
  16  ****** ****** ****** ****** ****** ****** ****** ****** ****** ******
      ****** ****** ****** ****** ****** ****** ****** ****** ****** ******
      ****** ****** ****** ****** ****** ****** ****** ****** ****** ******
  17  ****** ****** ****** ****** ****** ****** ****** ****** ****** ******
      ****** ****** ****** ****** ****** ****** ****** ****** ****** ******
      ****** ****** ****** ****** ****** ****** ****** ****** ****** ******
  18  ****** ****** ****** ****** ****** ****** ****** ****** ****** ******
      ****** ****** ****** ****** ****** ****** ****** ****** ****** ******
      ****** ****** ****** ****** ****** ****** ****** ****** ****** ******
  19  ****** ****** ****** ****** ****** ****** ****** ****** ****** ******
      ****** ****** ****** ****** ****** ****** ****** ****** ****** ******
      ****** ****** ****** ****** ****** ****** ****** ****** ****** ******
  20  ****** ****** ****** ****** ****** ****** ****** ****** ****** ******
      ****** ****** ****** ****** ****** ****** ****** ****** ****** ******
      ****** ****** ****** ****** ****** ****** ****** ****** ****** ******
  21  ****** ****** ****** ****** ****** ****** ****** ****** ****** ******
      ****** ****** ****** ****** ****** ****** ****** ****** ****** ******
      ****** ****** ****** ****** ****** ****** ****** ****** ****** ******
  22  ****** ****** ****** ****** ****** ****** ****** ****** ****** ******
      ****** ****** ****** ****** ****** ****** ****** ****** ****** ******
      ****** ****** ****** ****** ****** ****** ****** ****** ****** ******
  23  ****** ****** ****** ****** ****** ****** ****** ****** ****** ******
      ****** ****** ****** ****** ****** ****** ****** ****** ****** ******
      ****** ****** ****** ****** ****** ****** ****** ****** ****** ******
  24  ****** ****** ****** ****** ****** ****** ****** ****** ****** ******
      ****** ****** ****** ****** ****** ****** ****** ****** ****** ******
      ****** ****** ****** ****** ****** ****** ****** ****** ****** ******
  25  ****** ****** ****** ****** ****** ****** ****** ****** ****** ******
      ****** ****** ****** ****** ****** ****** ****** ****** ****** ******
      ****** ****** ****** ****** ****** ****** ****** ****** ****** ******

 HEAD WILL BE SAVED ON UNIT   51 AT END OF TIME STEP    1, STRESS PERIOD    4
1
  VOLUMETRIC BUDGET FOR ENTIRE MODEL AT END OF TIME STEP    1, STRESS PERIOD   4
  ------------------------------------------------------------------------------

     CUMULATIVE VOLUMES      L**3       RATES FOR THIS TIME STEP      L**3/T
     ------------------                 ------------------------

           IN:                                      IN:
           ---                                      ---
             STORAGE =    26199893.0276               STORAGE =        2912.1373
       CONSTANT HEAD =    73334832.4246         CONSTANT HEAD =      222096.1157
               WELLS =           0.0000                 WELLS =           0.0000
            RECHARGE =     8804400.0000              RECHARGE =       27600.0000
      STREAM LEAKAGE =     2642687.2896        STREAM LEAKAGE =        8534.2190

            TOTAL IN =   110981812.7417              TOTAL IN =      261142.4720

          OUT:                                     OUT:
          ----                                     ----
             STORAGE =       30612.5095               STORAGE =         336.4012
       CONSTANT HEAD =           0.0000         CONSTANT HEAD =           0.0000
               WELLS =    55662773.7500                 WELLS =      152500.7500
            RECHARGE =           0.0000              RECHARGE =           0.0000
      STREAM LEAKAGE =    55288427.2563        STREAM LEAKAGE =      108305.3199

           TOTAL OUT =   110981813.5159             TOTAL OUT =      261142.4711

            IN - OUT =          -0.7742              IN - OUT =       9.4378E-04

 PERCENT DISCREPANCY =          -0.00     PERCENT DISCREPANCY =           0.00






         TIME SUMMARY AT END OF TIME STEP    1 IN STRESS PERIOD    4
                    SECONDS     MINUTES      HOURS       DAYS        YEARS
                    -----------------------------------------------------------
   TIME STEP LENGTH 7.86240E+06 1.31040E+05  2184.0      91.000     0.24914    
 STRESS PERIOD TIME 7.86240E+06 1.31040E+05  2184.0      91.000     0.24914    
         TOTAL TIME 3.15360E+07 5.25600E+05  8760.0      365.00     0.99932    
1
1
                            STRESS PERIOD NO.    5, LENGTH =   92.00000    
                            -----------------------------------------------

                              NUMBER OF TIME STEPS =     1

                               MULTIPLIER FOR DELT =     1.500

                            INITIAL TIME STEP SIZE =   92.00000    

 WELL NO.  LAYER   ROW   COL   STRESS RATE         
 --------------------------------------------------
      1      1      5     22     -0.5000E+05
      2      1      3     18     -0.5000E+05
      3      1      3     21     -0.5250E+05

      3 WELLS

                 RECHARGE =  5.000000E-04

 REUSING STREAM SEGMENT DATA FROM LAST STRESS PERIOD
 
 SOLVING FOR HEAD 


     6 CALLS TO PCG ROUTINE FOR TIME STEP   1 IN STRESS PERIOD    5
    23 TOTAL ITERATIONS

 OUTPUT CONTROL FOR STRESS PERIOD    5   TIME STEP    1
    SAVE BUDGET
    SAVE HEAD FOR ALL LAYERS
    PRINT HEAD FOR ALL LAYERS
 UBDSV2 SAVING "STREAMFLOW OUT  " ON UNIT  50 AT TIME STEP  1, STRESS PERIOD   5



 STREAM LISTING     PERIOD      5   STEP        1

 LAYER ROW COL. STREAM  RCH.  FLOW INTO     FLOW TO   FLOW OUT OF   OVRLND.     DIRECT     STREAM       STREAM     STREAM     STREAM   STREAMBED  STREAMBED
                SEG.NO.  NO.  STRM. RCH.    AQUIFER    STRM. RCH.    RUNOFF     PRECIP       ET          HEAD       DEPTH      WIDTH   CONDCTNC.   GRADIENT

   1   13    1     1     1    1.0000E+05 -2.6653E+03   1.0267E+05  0.000E+00  0.000E+00  0.000E+00  4.84072E+01  1.458E-01  2.000E+01  2.000E+04 -1.333E-01
   1   13    2     1     2    1.0267E+05 -4.4725E+03   1.0714E+05  0.000E+00  0.000E+00  0.000E+00  4.79330E+01  1.489E-01  2.000E+01  2.000E+04 -2.236E-01
   1   14    3     1     3    1.0714E+05 -3.5774E+03   1.1072E+05  0.000E+00  0.000E+00  0.000E+00  4.74591E+01  1.523E-01  2.000E+01  2.000E+04 -1.789E-01
   1   15    4     1     4    1.1072E+05 -3.5124E+03   1.1423E+05  0.000E+00  0.000E+00  0.000E+00  4.69848E+01  1.552E-01  2.000E+01  2.000E+04 -1.756E-01
   1   16    5     1     5    1.1423E+05 -3.9349E+03   1.1816E+05  0.000E+00  0.000E+00  0.000E+00  4.65106E+01  1.583E-01  2.000E+01  2.000E+04 -1.967E-01
   1   16    6     1     6    1.1816E+05 -3.0666E+03   1.2123E+05  0.000E+00  0.000E+00  0.000E+00  4.60361E+01  1.611E-01  2.000E+01  2.000E+04 -1.533E-01
   1   16    7     1     7    1.2123E+05 -3.1094E+03   1.2434E+05  0.000E+00  0.000E+00  0.000E+00  4.55613E+01  1.636E-01  2.000E+01  2.000E+04 -1.555E-01
   1   16    8     1     8    1.2434E+05 -3.1295E+03   1.2747E+05  0.000E+00  0.000E+00  0.000E+00  4.50865E+01  1.661E-01  2.000E+01  2.000E+04 -1.565E-01
   1   16    9     1     9    1.2747E+05 -3.1154E+03   1.3058E+05  0.000E+00  0.000E+00  0.000E+00  4.46117E+01  1.686E-01  2.000E+01  2.000E+04 -1.558E-01
   1   16   10     1    10    1.3058E+05 -3.0761E+03   1.3366E+05  0.000E+00  0.000E+00  0.000E+00  4.41369E+01  1.710E-01  2.000E+01  2.000E+04 -1.538E-01
   1   16   11     1    11    1.3366E+05 -3.0492E+03   1.3671E+05  0.000E+00  0.000E+00  0.000E+00  4.36620E+01  1.733E-01  2.000E+01  2.000E+04 -1.525E-01
   1   16   12     1    12    1.3671E+05 -4.1601E+03   1.4087E+05  0.000E+00  0.000E+00  0.000E+00  4.31875E+01  1.761E-01  2.000E+01  2.000E+04 -2.080E-01
   1   15   13     1    13    1.4087E+05 -3.5793E+03   1.4445E+05  0.000E+00  0.000E+00  0.000E+00  4.27131E+01  1.790E-01  2.000E+01  2.000E+04 -1.790E-01
   1   14   14     1    14    1.4445E+05 -3.3532E+03   1.4780E+05  0.000E+00  0.000E+00  0.000E+00  4.22384E+01  1.816E-01  2.000E+01  2.000E+04 -1.677E-01
   1   13   15     1    15    1.4780E+05 -3.1299E+03   1.5093E+05  0.000E+00  0.000E+00  0.000E+00  4.17636E+01  1.840E-01  2.000E+01  2.000E+04 -1.565E-01
   1   12   16     1    16    1.5093E+05 -2.8601E+03   1.5379E+05  0.000E+00  0.000E+00  0.000E+00  4.12885E+01  1.862E-01  2.000E+01  2.000E+04 -1.430E-01
   1   12   17     1    17    1.5379E+05 -1.5019E+03   1.5529E+05  0.000E+00  0.000E+00  0.000E+00  4.08128E+01  1.878E-01  2.000E+01  2.000E+04 -7.509E-02
   1   12   18     1    18    1.5529E+05 -1.0857E+03   1.5638E+05  0.000E+00  0.000E+00  0.000E+00  4.03365E+01  1.888E-01  2.000E+01  2.000E+04 -5.429E-02
   1   12   19     1    19    1.5638E+05 -6.3257E+02   1.5701E+05  0.000E+00  0.000E+00  0.000E+00  3.98598E+01  1.894E-01  2.000E+01  2.000E+04 -3.163E-02
   1   13   20     1    20    1.5701E+05 -1.1745E+03   1.5819E+05  0.000E+00  0.000E+00  0.000E+00  3.93832E+01  1.900E-01  2.000E+01  2.000E+04 -5.872E-02
   1   14   21     1    21    1.5819E+05 -1.7493E+03   1.5994E+05  0.000E+00  0.000E+00  0.000E+00  3.89070E+01  1.911E-01  2.000E+01  2.000E+04 -8.746E-02
   1   14   22     1    22    1.5994E+05  5.3814E+03   1.5455E+05  0.000E+00  0.000E+00  0.000E+00  3.84284E+01  1.898E-01  2.000E+01  2.000E+04  2.691E-01
   1    9   30     2     1    5.0000E+04 -1.6456E+03   5.1646E+04  0.000E+00  0.000E+00  0.000E+00  4.02420E+01  1.170E-01  2.000E+01  2.000E+04 -8.228E-02
   1    9   29     2     2    5.1646E+04 -1.7962E+03   5.3442E+04  0.000E+00  0.000E+00  0.000E+00  3.99944E+01  1.194E-01  2.000E+01  2.000E+04 -8.981E-02
   1    9   28     2     3    5.3442E+04 -1.7163E+03   5.5158E+04  0.000E+00  0.000E+00  0.000E+00  3.97467E+01  1.217E-01  2.000E+01  2.000E+04 -8.582E-02
   1    9   27     2     4    5.5158E+04 -1.8302E+03   5.6988E+04  0.000E+00  0.000E+00  0.000E+00  3.94991E+01  1.241E-01  2.000E+01  2.000E+04 -9.151E-02
   1   10   26     2     5    5.6988E+04  6.5437E+01   5.6923E+04  0.000E+00  0.000E+00  0.000E+00  3.92503E+01  1.253E-01  2.000E+01  2.000E+04  3.272E-03
   1   11   25     2     6    5.6923E+04  6.5527E+02   5.6268E+04  0.000E+00  0.000E+00  0.000E+00  3.89998E+01  1.248E-01  2.000E+01  2.000E+04  3.276E-02
   1   12   24     2     7    5.6268E+04  7.5102E+02   5.5517E+04  0.000E+00  0.000E+00  0.000E+00  3.87489E+01  1.239E-01  2.000E+01  2.000E+04  3.755E-02
   1   13   23     2     8    5.5517E+04  5.8105E+02   5.4936E+04  0.000E+00  0.000E+00  0.000E+00  3.84980E+01  1.230E-01  2.000E+01  2.000E+04  2.905E-02
   1   14   22     2     9    5.4936E+04  1.7414E+03   5.3194E+04  0.000E+00  0.000E+00  0.000E+00  3.82464E+01  1.214E-01  2.000E+01  2.000E+04  8.707E-02
   1   14   22     3     1    2.0775E+05 -8.3089E+03   2.1606E+05  0.000E+00  0.000E+00  0.000E+00  3.77439E+01  1.884E-01  2.000E+01  2.000E+04 -4.154E-01
   1   15   23     3     2    2.1606E+05 -3.0319E+03   2.1909E+05  0.000E+00  0.000E+00  0.000E+00  3.68580E+01  1.914E-01  2.000E+01  2.000E+04 -1.516E-01
   1   15   24     3     3    2.1909E+05 -2.0614E+03   2.2115E+05  0.000E+00  0.000E+00  0.000E+00  3.59705E+01  1.927E-01  2.000E+01  2.000E+04 -1.031E-01
   1   15   25     3     4    2.2115E+05 -1.9247E+03   2.2308E+05  0.000E+00  0.000E+00  0.000E+00  3.50826E+01  1.938E-01  2.000E+01  2.000E+04 -9.623E-02
   1   15   26     3     5    2.2308E+05 -2.2458E+03   2.2532E+05  0.000E+00  0.000E+00  0.000E+00  3.41948E+01  1.948E-01  2.000E+01  2.000E+04 -1.123E-01
   1   16   27     3     6    2.2532E+05 -3.2160E+03   2.2854E+05  0.000E+00  0.000E+00  0.000E+00  3.33074E+01  1.963E-01  2.000E+01  2.000E+04 -1.608E-01
   1   17   28     3     7    2.2854E+05 -4.0460E+03   2.3258E+05  0.000E+00  0.000E+00  0.000E+00  3.24204E+01  1.981E-01  2.000E+01  2.000E+04 -2.023E-01
   1   18   29     3     8    2.3258E+05 -5.7365E+03   2.3832E+05  0.000E+00  0.000E+00  0.000E+00  3.15340E+01  2.007E-01  2.000E+01  2.000E+04 -2.868E-01
   1   18   30     3     9    2.3832E+05 -4.7716E+03   2.4309E+05  0.000E+00  0.000E+00  0.000E+00  3.06478E+01  2.033E-01  2.000E+01  2.000E+04 -2.386E-01



1
              HEAD IN LAYER   1 AT END OF TIME STEP   1 IN STRESS PERIOD    5
  ---------------------------------------------------------------------------

          1      2      3      4      5      6      7      8      9     10
         11     12     13     14     15     16     17     18     19     20
         21     22     23     24     25     26     27     28     29     30
 .........................................................................
   1  ****** ****** ****** ****** ****** ****** ****** ****** ****** ******
      ****** ****** ****** ****** ****** ****** ****** ****** ****** ******
      ****** ****** ****** ****** ****** ****** ****** ****** ****** ******
   2  ****** ****** ****** ****** ****** ****** ****** ****** ****** ******
      ****** ****** ****** ****** ****** ****** ****** ****** ****** ******
      ****** ****** ****** ****** ****** ****** ****** ****** ****** ******
   3  ****** ****** ****** ****** ****** ****** ****** ****** ****** ******
      ****** ****** ****** ****** ****** ****** ****** ****** ****** ******
      ****** ****** ****** ****** ****** ****** ****** ****** ****** ******
   4  ****** ****** ****** ****** ****** ****** ****** ****** ****** ******
      ****** ****** ****** ****** ****** ****** ****** ****** ****** ******
      ****** ****** ****** ****** ****** ****** ****** ****** ****** ******
   5  ****** ****** ****** ****** ****** ****** ****** ****** ****** ******
      ****** ****** ****** ****** ****** ****** ****** ****** ****** ******
      ****** ****** ****** ****** ****** ****** ****** ****** ****** ******
   6  ****** ****** ****** ****** ****** ****** ****** ****** ****** ******
      ****** ****** ****** ****** ****** ****** ****** ****** ****** ******
      ****** ****** ****** ****** ****** ****** ****** ****** ****** ******
   7  ****** ****** ****** ****** ****** ****** ****** ****** ****** ******
      ****** ****** ****** ****** ****** ****** ****** ****** ****** ******
      ****** ****** ****** ****** ****** ****** ****** ****** ****** ******
   8  ****** ****** ****** ****** ****** ****** ****** ****** ****** ******
      ****** ****** ****** ****** ****** ****** ****** ****** ****** ******
      ****** ****** ****** ****** ****** ****** ****** ****** ****** ******
   9  ****** ****** ****** ****** ****** ****** ****** ****** ****** ******
      ****** ****** ****** ****** ****** ****** ****** ****** ****** ******
      ****** ****** ****** ****** ****** ****** ****** ****** ****** ******
  10  ****** ****** ****** ****** ****** ****** ****** ****** ****** ******
      ****** ****** ****** ****** ****** ****** ****** ****** ****** ******
      ****** ****** ****** ****** ****** ****** ****** ****** ****** ******
  11  ****** ****** ****** ****** ****** ****** ****** ****** ****** ******
      ****** ****** ****** ****** ****** ****** ****** ****** ****** ******
      ****** ****** ****** ****** ****** ****** ****** ****** ****** ******
  12  ****** ****** ****** ****** ****** ****** ****** ****** ****** ******
      ****** ****** ****** ****** ****** ****** ****** ****** ****** ******
      ****** ****** ****** ****** ****** ****** ****** ****** ****** ******
  13  ****** ****** ****** ****** ****** ****** ****** ****** ****** ******
      ****** ****** ****** ****** ****** ****** ****** ****** ****** ******
      ****** ****** ****** ****** ****** ****** ****** ****** ****** ******
  14  ****** ****** ****** ****** ****** ****** ****** ****** ****** ******
      ****** ****** ****** ****** ****** ****** ****** ****** ****** ******
      ****** ****** ****** ****** ****** ****** ****** ****** ****** ******
  15  ****** ****** ****** ****** ****** ****** ****** ****** ****** ******
      ****** ****** ****** ****** ****** ****** ****** ****** ****** ******
      ****** ****** ****** ****** ****** ****** ****** ****** ****** ******
  16  ****** ****** ****** ****** ****** ****** ****** ****** ****** ******
      ****** ****** ****** ****** ****** ****** ****** ****** ****** ******
      ****** ****** ****** ****** ****** ****** ****** ****** ****** ******
  17  ****** ****** ****** ****** ****** ****** ****** ****** ****** ******
      ****** ****** ****** ****** ****** ****** ****** ****** ****** ******
      ****** ****** ****** ****** ****** ****** ****** ****** ****** ******
  18  ****** ****** ****** ****** ****** ****** ****** ****** ****** ******
      ****** ****** ****** ****** ****** ****** ****** ****** ****** ******
      ****** ****** ****** ****** ****** ****** ****** ****** ****** ******
  19  ****** ****** ****** ****** ****** ****** ****** ****** ****** ******
      ****** ****** ****** ****** ****** ****** ****** ****** ****** ******
      ****** ****** ****** ****** ****** ****** ****** ****** ****** ******
  20  ****** ****** ****** ****** ****** ****** ****** ****** ****** ******
      ****** ****** ****** ****** ****** ****** ****** ****** ****** ******
      ****** ****** ****** ****** ****** ****** ****** ****** ****** ******
  21  ****** ****** ****** ****** ****** ****** ****** ****** ****** ******
      ****** ****** ****** ****** ****** ****** ****** ****** ****** ******
      ****** ****** ****** ****** ****** ****** ****** ****** ****** ******
  22  ****** ****** ****** ****** ****** ****** ****** ****** ****** ******
      ****** ****** ****** ****** ****** ****** ****** ****** ****** ******
      ****** ****** ****** ****** ****** ****** ****** ****** ****** ******
  23  ****** ****** ****** ****** ****** ****** ****** ****** ****** ******
      ****** ****** ****** ****** ****** ****** ****** ****** ****** ******
      ****** ****** ****** ****** ****** ****** ****** ****** ****** ******
  24  ****** ****** ****** ****** ****** ****** ****** ****** ****** ******
      ****** ****** ****** ****** ****** ****** ****** ****** ****** ******
      ****** ****** ****** ****** ****** ****** ****** ****** ****** ******
  25  ****** ****** ****** ****** ****** ****** ****** ****** ****** ******
      ****** ****** ****** ****** ****** ****** ****** ****** ****** ******
      ****** ****** ****** ****** ****** ****** ****** ****** ****** ******

 HEAD WILL BE SAVED ON UNIT   51 AT END OF TIME STEP    1, STRESS PERIOD    5
1
  VOLUMETRIC BUDGET FOR ENTIRE MODEL AT END OF TIME STEP    1, STRESS PERIOD   5
  ------------------------------------------------------------------------------

     CUMULATIVE VOLUMES      L**3       RATES FOR THIS TIME STEP      L**3/T
     ------------------                 ------------------------

           IN:                                      IN:
           ---                                      ---
             STORAGE =    26657887.5162               STORAGE =        4978.2010
       CONSTANT HEAD =    94201675.7476         CONSTANT HEAD =      226813.5144
               WELLS =           0.0000                 WELLS =           0.0000
            RECHARGE =    10074000.0000              RECHARGE =       13800.0000
      STREAM LEAKAGE =     3486841.0645        STREAM LEAKAGE =        9175.5845

            TOTAL IN =   134420404.3283              TOTAL IN =      254767.2999

          OUT:                                     OUT:
          ----                                     ----
             STORAGE =       30612.5095               STORAGE =           0.0000
       CONSTANT HEAD =           0.0000         CONSTANT HEAD =           0.0000
               WELLS =    69692842.7500                 WELLS =      152500.7500
            RECHARGE =           0.0000              RECHARGE =           0.0000
      STREAM LEAKAGE =    64696949.9204        STREAM LEAKAGE =      102266.5507

           TOTAL OUT =   134420405.1799             TOTAL OUT =      254767.3007

            IN - OUT =          -0.8516              IN - OUT =      -8.4174E-04

 PERCENT DISCREPANCY =          -0.00     PERCENT DISCREPANCY =          -0.00






         TIME SUMMARY AT END OF TIME STEP    1 IN STRESS PERIOD    5
                    SECONDS     MINUTES      HOURS       DAYS        YEARS
                    -----------------------------------------------------------
   TIME STEP LENGTH 7.94880E+06 1.32480E+05  2208.0      92.000     0.25188    
 STRESS PERIOD TIME 7.94880E+06 1.32480E+05  2208.0      92.000     0.25188    
         TOTAL TIME 3.94848E+07 6.58080E+05  10968.      457.00      1.2512    
1
1
                            STRESS PERIOD NO.    6, LENGTH =   91.00000    
                            -----------------------------------------------

                              NUMBER OF TIME STEPS =     1

                               MULTIPLIER FOR DELT =     1.500

                            INITIAL TIME STEP SIZE =   91.00000    

 WELL NO.  LAYER   ROW   COL   STRESS RATE         
 --------------------------------------------------
      1      1      5     22     -0.5000E+05
      2      1      3     18     -0.5000E+05
      3      1      3     21     -0.5250E+05

      3 WELLS

                 RECHARGE =  2.000000E-03

 REUSING STREAM SEGMENT DATA FROM LAST STRESS PERIOD
 
 SOLVING FOR HEAD 


     7 CALLS TO PCG ROUTINE FOR TIME STEP   1 IN STRESS PERIOD    6
    26 TOTAL ITERATIONS

 OUTPUT CONTROL FOR STRESS PERIOD    6   TIME STEP    1
    SAVE BUDGET
    SAVE HEAD FOR ALL LAYERS
    PRINT HEAD FOR ALL LAYERS
 UBDSV2 SAVING "STREAMFLOW OUT  " ON UNIT  50 AT TIME STEP  1, STRESS PERIOD   6



 STREAM LISTING     PERIOD      6   STEP        1

 LAYER ROW COL. STREAM  RCH.  FLOW INTO     FLOW TO   FLOW OUT OF   OVRLND.     DIRECT     STREAM       STREAM     STREAM     STREAM   STREAMBED  STREAMBED
                SEG.NO.  NO.  STRM. RCH.    AQUIFER    STRM. RCH.    RUNOFF     PRECIP       ET          HEAD       DEPTH      WIDTH   CONDCTNC.   GRADIENT

   1   13    1     1     1    1.0000E+05 -3.0587E+03   1.0306E+05  0.000E+00  0.000E+00  0.000E+00  4.84073E+01  1.460E-01  2.000E+01  2.000E+04 -1.529E-01
   1   13    2     1     2    1.0306E+05 -4.9874E+03   1.0805E+05  0.000E+00  0.000E+00  0.000E+00  4.79335E+01  1.494E-01  2.000E+01  2.000E+04 -2.494E-01
   1   14    3     1     3    1.0805E+05 -4.1097E+03   1.1216E+05  0.000E+00  0.000E+00  0.000E+00  4.74601E+01  1.532E-01  2.000E+01  2.000E+04 -2.055E-01
   1   15    4     1     4    1.1216E+05 -4.0440E+03   1.1620E+05  0.000E+00  0.000E+00  0.000E+00  4.69862E+01  1.566E-01  2.000E+01  2.000E+04 -2.022E-01
   1   16    5     1     5    1.1620E+05 -4.4317E+03   1.2063E+05  0.000E+00  0.000E+00  0.000E+00  4.65124E+01  1.601E-01  2.000E+01  2.000E+04 -2.216E-01
   1   16    6     1     6    1.2063E+05 -3.4554E+03   1.2409E+05  0.000E+00  0.000E+00  0.000E+00  4.60383E+01  1.633E-01  2.000E+01  2.000E+04 -1.728E-01
   1   16    7     1     7    1.2409E+05 -3.5031E+03   1.2759E+05  0.000E+00  0.000E+00  0.000E+00  4.55638E+01  1.660E-01  2.000E+01  2.000E+04 -1.752E-01
   1   16    8     1     8    1.2759E+05 -3.5261E+03   1.3112E+05  0.000E+00  0.000E+00  0.000E+00  4.50893E+01  1.688E-01  2.000E+01  2.000E+04 -1.763E-01
   1   16    9     1     9    1.3112E+05 -3.5118E+03   1.3463E+05  0.000E+00  0.000E+00  0.000E+00  4.46147E+01  1.715E-01  2.000E+01  2.000E+04 -1.756E-01
   1   16   10     1    10    1.3463E+05 -3.4693E+03   1.3810E+05  0.000E+00  0.000E+00  0.000E+00  4.41401E+01  1.742E-01  2.000E+01  2.000E+04 -1.735E-01
   1   16   11     1    11    1.3810E+05 -3.4381E+03   1.4154E+05  0.000E+00  0.000E+00  0.000E+00  4.36655E+01  1.769E-01  2.000E+01  2.000E+04 -1.719E-01
   1   16   12     1    12    1.4154E+05 -4.6642E+03   1.4620E+05  0.000E+00  0.000E+00  0.000E+00  4.31913E+01  1.799E-01  2.000E+01  2.000E+04 -2.332E-01
   1   15   13     1    13    1.4620E+05 -4.1212E+03   1.5032E+05  0.000E+00  0.000E+00  0.000E+00  4.27173E+01  1.832E-01  2.000E+01  2.000E+04 -2.061E-01
   1   14   14     1    14    1.5032E+05 -3.9016E+03   1.5422E+05  0.000E+00  0.000E+00  0.000E+00  4.22430E+01  1.862E-01  2.000E+01  2.000E+04 -1.951E-01
   1   13   15     1    15    1.5422E+05 -3.6655E+03   1.5789E+05  0.000E+00  0.000E+00  0.000E+00  4.17685E+01  1.889E-01  2.000E+01  2.000E+04 -1.833E-01
   1   12   16     1    16    1.5789E+05 -3.3636E+03   1.6125E+05  0.000E+00  0.000E+00  0.000E+00  4.12937E+01  1.915E-01  2.000E+01  2.000E+04 -1.682E-01
   1   12   17     1    17    1.6125E+05 -1.8817E+03   1.6313E+05  0.000E+00  0.000E+00  0.000E+00  4.08183E+01  1.933E-01  2.000E+01  2.000E+04 -9.408E-02
   1   12   18     1    18    1.6313E+05 -1.4600E+03   1.6459E+05  0.000E+00  0.000E+00  0.000E+00  4.03423E+01  1.945E-01  2.000E+01  2.000E+04 -7.300E-02
   1   12   19     1    19    1.6459E+05 -1.0871E+03   1.6568E+05  0.000E+00  0.000E+00  0.000E+00  3.98659E+01  1.954E-01  2.000E+01  2.000E+04 -5.435E-02
   1   13   20     1    20    1.6568E+05 -1.6276E+03   1.6731E+05  0.000E+00  0.000E+00  0.000E+00  3.93896E+01  1.964E-01  2.000E+01  2.000E+04 -8.138E-02
   1   14   21     1    21    1.6731E+05 -2.1713E+03   1.6948E+05  0.000E+00  0.000E+00  0.000E+00  3.89137E+01  1.978E-01  2.000E+01  2.000E+04 -1.086E-01
   1   14   22     1    22    1.6948E+05  5.2981E+03   1.6418E+05  0.000E+00  0.000E+00  0.000E+00  3.84353E+01  1.966E-01  2.000E+01  2.000E+04  2.649E-01
   1    9   30     2     1    5.0000E+04 -1.9982E+03   5.1998E+04  0.000E+00  0.000E+00  0.000E+00  4.02422E+01  1.172E-01  2.000E+01  2.000E+04 -9.991E-02
   1    9   29     2     2    5.1998E+04 -2.1455E+03   5.4144E+04  0.000E+00  0.000E+00  0.000E+00  3.99951E+01  1.201E-01  2.000E+01  2.000E+04 -1.073E-01
   1    9   28     2     3    5.4144E+04 -2.0625E+03   5.6206E+04  0.000E+00  0.000E+00  0.000E+00  3.97479E+01  1.229E-01  2.000E+01  2.000E+04 -1.031E-01
   1    9   27     2     4    5.6206E+04 -2.2871E+03   5.8493E+04  0.000E+00  0.000E+00  0.000E+00  3.95008E+01  1.258E-01  2.000E+01  2.000E+04 -1.144E-01
   1   10   26     2     5    5.8493E+04 -4.0958E+02   5.8903E+04  0.000E+00  0.000E+00  0.000E+00  3.92526E+01  1.276E-01  2.000E+01  2.000E+04 -2.048E-02
   1   11   25     2     6    5.8903E+04  2.0060E+02   5.8702E+04  0.000E+00  0.000E+00  0.000E+00  3.90027E+01  1.277E-01  2.000E+01  2.000E+04  1.003E-02
   1   12   24     2     7    5.8702E+04  3.4885E+02   5.8353E+04  0.000E+00  0.000E+00  0.000E+00  3.87523E+01  1.273E-01  2.000E+01  2.000E+04  1.744E-02
   1   13   23     2     8    5.8353E+04  2.6663E+02   5.8087E+04  0.000E+00  0.000E+00  0.000E+00  3.85019E+01  1.269E-01  2.000E+01  2.000E+04  1.333E-02
   1   14   22     2     9    5.8087E+04  1.6067E+03   5.6480E+04  0.000E+00  0.000E+00  0.000E+00  3.82507E+01  1.257E-01  2.000E+01  2.000E+04  8.034E-02
   1   14   22     3     1    2.2066E+05 -8.3928E+03   2.2905E+05  0.000E+00  0.000E+00  0.000E+00  3.77507E+01  1.952E-01  2.000E+01  2.000E+04 -4.196E-01
   1   15   23     3     2    2.2905E+05 -3.4285E+03   2.3248E+05  0.000E+00  0.000E+00  0.000E+00  3.68649E+01  1.982E-01  2.000E+01  2.000E+04 -1.714E-01
   1   15   24     3     3    2.3248E+05 -2.3485E+03   2.3483E+05  0.000E+00  0.000E+00  0.000E+00  3.59775E+01  1.997E-01  2.000E+01  2.000E+04 -1.174E-01
   1   15   25     3     4    2.3483E+05 -2.2126E+03   2.3704E+05  0.000E+00  0.000E+00  0.000E+00  3.50898E+01  2.009E-01  2.000E+01  2.000E+04 -1.106E-01
   1   15   26     3     5    2.3704E+05 -2.6169E+03   2.3966E+05  0.000E+00  0.000E+00  0.000E+00  3.42021E+01  2.021E-01  2.000E+01  2.000E+04 -1.308E-01
   1   16   27     3     6    2.3966E+05 -3.6817E+03   2.4334E+05  0.000E+00  0.000E+00  0.000E+00  3.33148E+01  2.037E-01  2.000E+01  2.000E+04 -1.841E-01
   1   17   28     3     7    2.4334E+05 -4.5215E+03   2.4786E+05  0.000E+00  0.000E+00  0.000E+00  3.24280E+01  2.058E-01  2.000E+01  2.000E+04 -2.261E-01
   1   18   29     3     8    2.4786E+05 -6.1828E+03   2.5405E+05  0.000E+00  0.000E+00  0.000E+00  3.15418E+01  2.085E-01  2.000E+01  2.000E+04 -3.091E-01
   1   18   30     3     9    2.5405E+05 -5.1083E+03   2.5915E+05  0.000E+00  0.000E+00  0.000E+00  3.06557E+01  2.113E-01  2.000E+01  2.000E+04 -2.554E-01



1
              HEAD IN LAYER   1 AT END OF TIME STEP   1 IN STRESS PERIOD    6
  ---------------------------------------------------------------------------

          1      2      3      4      5      6      7      8      9     10
         11     12     13     14     15     16     17     18     19     20
         21     22     23     24     25     26     27     28     29     30
 .........................................................................
   1  ****** ****** ****** ****** ****** ****** ****** ****** ****** ******
      ****** ****** ****** ****** ****** ****** ****** ****** ****** ******
      ****** ****** ****** ****** ****** ****** ****** ****** ****** ******
   2  ****** ****** ****** ****** ****** ****** ****** ****** ****** ******
      ****** ****** ****** ****** ****** ****** ****** ****** ****** ******
      ****** ****** ****** ****** ****** ****** ****** ****** ****** ******
   3  ****** ****** ****** ****** ****** ****** ****** ****** ****** ******
      ****** ****** ****** ****** ****** ****** ****** ****** ****** ******
      ****** ****** ****** ****** ****** ****** ****** ****** ****** ******
   4  ****** ****** ****** ****** ****** ****** ****** ****** ****** ******
      ****** ****** ****** ****** ****** ****** ****** ****** ****** ******
      ****** ****** ****** ****** ****** ****** ****** ****** ****** ******
   5  ****** ****** ****** ****** ****** ****** ****** ****** ****** ******
      ****** ****** ****** ****** ****** ****** ****** ****** ****** ******
      ****** ****** ****** ****** ****** ****** ****** ****** ****** ******
   6  ****** ****** ****** ****** ****** ****** ****** ****** ****** ******
      ****** ****** ****** ****** ****** ****** ****** ****** ****** ******
      ****** ****** ****** ****** ****** ****** ****** ****** ****** ******
   7  ****** ****** ****** ****** ****** ****** ****** ****** ****** ******
      ****** ****** ****** ****** ****** ****** ****** ****** ****** ******
      ****** ****** ****** ****** ****** ****** ****** ****** ****** ******
   8  ****** ****** ****** ****** ****** ****** ****** ****** ****** ******
      ****** ****** ****** ****** ****** ****** ****** ****** ****** ******
      ****** ****** ****** ****** ****** ****** ****** ****** ****** ******
   9  ****** ****** ****** ****** ****** ****** ****** ****** ****** ******
      ****** ****** ****** ****** ****** ****** ****** ****** ****** ******
      ****** ****** ****** ****** ****** ****** ****** ****** ****** ******
  10  ****** ****** ****** ****** ****** ****** ****** ****** ****** ******
      ****** ****** ****** ****** ****** ****** ****** ****** ****** ******
      ****** ****** ****** ****** ****** ****** ****** ****** ****** ******
  11  ****** ****** ****** ****** ****** ****** ****** ****** ****** ******
      ****** ****** ****** ****** ****** ****** ****** ****** ****** ******
      ****** ****** ****** ****** ****** ****** ****** ****** ****** ******
  12  ****** ****** ****** ****** ****** ****** ****** ****** ****** ******
      ****** ****** ****** ****** ****** ****** ****** ****** ****** ******
      ****** ****** ****** ****** ****** ****** ****** ****** ****** ******
  13  ****** ****** ****** ****** ****** ****** ****** ****** ****** ******
      ****** ****** ****** ****** ****** ****** ****** ****** ****** ******
      ****** ****** ****** ****** ****** ****** ****** ****** ****** ******
  14  ****** ****** ****** ****** ****** ****** ****** ****** ****** ******
      ****** ****** ****** ****** ****** ****** ****** ****** ****** ******
      ****** ****** ****** ****** ****** ****** ****** ****** ****** ******
  15  ****** ****** ****** ****** ****** ****** ****** ****** ****** ******
      ****** ****** ****** ****** ****** ****** ****** ****** ****** ******
      ****** ****** ****** ****** ****** ****** ****** ****** ****** ******
  16  ****** ****** ****** ****** ****** ****** ****** ****** ****** ******
      ****** ****** ****** ****** ****** ****** ****** ****** ****** ******
      ****** ****** ****** ****** ****** ****** ****** ****** ****** ******
  17  ****** ****** ****** ****** ****** ****** ****** ****** ****** ******
      ****** ****** ****** ****** ****** ****** ****** ****** ****** ******
      ****** ****** ****** ****** ****** ****** ****** ****** ****** ******
  18  ****** ****** ****** ****** ****** ****** ****** ****** ****** ******
      ****** ****** ****** ****** ****** ****** ****** ****** ****** ******
      ****** ****** ****** ****** ****** ****** ****** ****** ****** ******
  19  ****** ****** ****** ****** ****** ****** ****** ****** ****** ******
      ****** ****** ****** ****** ****** ****** ****** ****** ****** ******
      ****** ****** ****** ****** ****** ****** ****** ****** ****** ******
  20  ****** ****** ****** ****** ****** ****** ****** ****** ****** ******
      ****** ****** ****** ****** ****** ****** ****** ****** ****** ******
      ****** ****** ****** ****** ****** ****** ****** ****** ****** ******
  21  ****** ****** ****** ****** ****** ****** ****** ****** ****** ******
      ****** ****** ****** ****** ****** ****** ****** ****** ****** ******
      ****** ****** ****** ****** ****** ****** ****** ****** ****** ******
  22  ****** ****** ****** ****** ****** ****** ****** ****** ****** ******
      ****** ****** ****** ****** ****** ****** ****** ****** ****** ******
      ****** ****** ****** ****** ****** ****** ****** ****** ****** ******
  23  ****** ****** ****** ****** ****** ****** ****** ****** ****** ******
      ****** ****** ****** ****** ****** ****** ****** ****** ****** ******
      ****** ****** ****** ****** ****** ****** ****** ****** ****** ******
  24  ****** ****** ****** ****** ****** ****** ****** ****** ****** ******
      ****** ****** ****** ****** ****** ****** ****** ****** ****** ******
      ****** ****** ****** ****** ****** ****** ****** ****** ****** ******
  25  ****** ****** ****** ****** ****** ****** ****** ****** ****** ******
      ****** ****** ****** ****** ****** ****** ****** ****** ****** ******
      ****** ****** ****** ****** ****** ****** ****** ****** ****** ******

 HEAD WILL BE SAVED ON UNIT   51 AT END OF TIME STEP    1, STRESS PERIOD    6
1
  VOLUMETRIC BUDGET FOR ENTIRE MODEL AT END OF TIME STEP    1, STRESS PERIOD   6
  ------------------------------------------------------------------------------

     CUMULATIVE VOLUMES      L**3       RATES FOR THIS TIME STEP      L**3/T
     ------------------                 ------------------------

           IN:                                      IN:
           ---                                      ---
             STORAGE =    26657887.5162               STORAGE =           0.0000
       CONSTANT HEAD =   113888032.3440         CONSTANT HEAD =      216333.5890
               WELLS =           0.0000                 WELLS =           0.0000
            RECHARGE =    15097200.0000              RECHARGE =       55200.0000
      STREAM LEAKAGE =     4189440.4357        STREAM LEAKAGE =        7720.8722

            TOTAL IN =   159832560.2958              TOTAL IN =      279254.4612

          OUT:                                     OUT:
          ----                                     ----
             STORAGE =      929525.8599               STORAGE =        9878.1687
       CONSTANT HEAD =           0.0000         CONSTANT HEAD =           0.0000
               WELLS =    83570411.0000                 WELLS =      152500.7500
            RECHARGE =           0.0000              RECHARGE =           0.0000
      STREAM LEAKAGE =    75332624.1329        STREAM LEAKAGE =      116875.5408

           TOTAL OUT =   159832560.9928             TOTAL OUT =      279254.4595

            IN - OUT =          -0.6970              IN - OUT =       1.6990E-03

 PERCENT DISCREPANCY =          -0.00     PERCENT DISCREPANCY =           0.00






         TIME SUMMARY AT END OF TIME STEP    1 IN STRESS PERIOD    6
                    SECONDS     MINUTES      HOURS       DAYS        YEARS
                    -----------------------------------------------------------
   TIME STEP LENGTH 7.86240E+06 1.31040E+05  2184.0      91.000     0.24914    
 STRESS PERIOD TIME 7.86240E+06 1.31040E+05  2184.0      91.000     0.24914    
         TOTAL TIME 4.73472E+07 7.89120E+05  13152.      548.00      1.5003    
1
1
                            STRESS PERIOD NO.    7, LENGTH =   91.00000    
                            -----------------------------------------------

                              NUMBER OF TIME STEPS =     1

                               MULTIPLIER FOR DELT =     1.500

                            INITIAL TIME STEP SIZE =   91.00000    

 WELL NO.  LAYER   ROW   COL   STRESS RATE         
 --------------------------------------------------
      1      1      5     22     -0.1180E+05
      2      1      3     18     -0.5000E+05
      3      1      3     21     -0.5000E+05

      3 WELLS

                 RECHARGE =   0.00000    

 REUSING STREAM SEGMENT DATA FROM LAST STRESS PERIOD
 
 SOLVING FOR HEAD 


     7 CALLS TO PCG ROUTINE FOR TIME STEP   1 IN STRESS PERIOD    7
    26 TOTAL ITERATIONS

 OUTPUT CONTROL FOR STRESS PERIOD    7   TIME STEP    1
    SAVE BUDGET
    SAVE HEAD FOR ALL LAYERS
    PRINT HEAD FOR ALL LAYERS
 UBDSV2 SAVING "STREAMFLOW OUT  " ON UNIT  50 AT TIME STEP  1, STRESS PERIOD   7



 STREAM LISTING     PERIOD      7   STEP        1

 LAYER ROW COL. STREAM  RCH.  FLOW INTO     FLOW TO   FLOW OUT OF   OVRLND.     DIRECT     STREAM       STREAM     STREAM     STREAM   STREAMBED  STREAMBED
                SEG.NO.  NO.  STRM. RCH.    AQUIFER    STRM. RCH.    RUNOFF     PRECIP       ET          HEAD       DEPTH      WIDTH   CONDCTNC.   GRADIENT

   1   13    1     1     1    1.0000E+05 -2.5668E+03   1.0257E+05  0.000E+00  0.000E+00  0.000E+00  4.84071E+01  1.458E-01  2.000E+01  2.000E+04 -1.283E-01
   1   13    2     1     2    1.0257E+05 -4.3439E+03   1.0691E+05  0.000E+00  0.000E+00  0.000E+00  4.79328E+01  1.487E-01  2.000E+01  2.000E+04 -2.172E-01
   1   14    3     1     3    1.0691E+05 -3.4489E+03   1.1036E+05  0.000E+00  0.000E+00  0.000E+00  4.74588E+01  1.520E-01  2.000E+01  2.000E+04 -1.724E-01
   1   15    4     1     4    1.1036E+05 -3.3884E+03   1.1375E+05  0.000E+00  0.000E+00  0.000E+00  4.69844E+01  1.549E-01  2.000E+01  2.000E+04 -1.694E-01
   1   16    5     1     5    1.1375E+05 -3.8268E+03   1.1757E+05  0.000E+00  0.000E+00  0.000E+00  4.65101E+01  1.578E-01  2.000E+01  2.000E+04 -1.913E-01
   1   16    6     1     6    1.1757E+05 -2.9779E+03   1.2055E+05  0.000E+00  0.000E+00  0.000E+00  4.60356E+01  1.606E-01  2.000E+01  2.000E+04 -1.489E-01
   1   16    7     1     7    1.2055E+05 -3.0199E+03   1.2357E+05  0.000E+00  0.000E+00  0.000E+00  4.55608E+01  1.630E-01  2.000E+01  2.000E+04 -1.510E-01
   1   16    8     1     8    1.2357E+05 -3.0406E+03   1.2661E+05  0.000E+00  0.000E+00  0.000E+00  4.50859E+01  1.654E-01  2.000E+01  2.000E+04 -1.520E-01
   1   16    9     1     9    1.2661E+05 -3.0285E+03   1.2964E+05  0.000E+00  0.000E+00  0.000E+00  4.46110E+01  1.678E-01  2.000E+01  2.000E+04 -1.514E-01
   1   16   10     1    10    1.2964E+05 -2.9920E+03   1.3263E+05  0.000E+00  0.000E+00  0.000E+00  4.41361E+01  1.702E-01  2.000E+01  2.000E+04 -1.496E-01
   1   16   11     1    11    1.3263E+05 -2.9682E+03   1.3560E+05  0.000E+00  0.000E+00  0.000E+00  4.36611E+01  1.725E-01  2.000E+01  2.000E+04 -1.484E-01
   1   16   12     1    12    1.3560E+05 -4.0590E+03   1.3966E+05  0.000E+00  0.000E+00  0.000E+00  4.31866E+01  1.752E-01  2.000E+01  2.000E+04 -2.029E-01
   1   15   13     1    13    1.3966E+05 -3.4789E+03   1.4314E+05  0.000E+00  0.000E+00  0.000E+00  4.27122E+01  1.781E-01  2.000E+01  2.000E+04 -1.739E-01
   1   14   14     1    14    1.4314E+05 -3.2767E+03   1.4642E+05  0.000E+00  0.000E+00  0.000E+00  4.22374E+01  1.806E-01  2.000E+01  2.000E+04 -1.638E-01
   1   13   15     1    15    1.4642E+05 -3.1165E+03   1.4953E+05  0.000E+00  0.000E+00  0.000E+00  4.17625E+01  1.830E-01  2.000E+01  2.000E+04 -1.558E-01
   1   12   16     1    16    1.4953E+05 -3.0630E+03   1.5260E+05  0.000E+00  0.000E+00  0.000E+00  4.12875E+01  1.853E-01  2.000E+01  2.000E+04 -1.532E-01
   1   12   17     1    17    1.5260E+05 -1.7374E+03   1.5433E+05  0.000E+00  0.000E+00  0.000E+00  4.08120E+01  1.870E-01  2.000E+01  2.000E+04 -8.687E-02
   1   12   18     1    18    1.5433E+05 -1.4239E+03   1.5576E+05  0.000E+00  0.000E+00  0.000E+00  4.03359E+01  1.882E-01  2.000E+01  2.000E+04 -7.120E-02
   1   12   19     1    19    1.5576E+05 -1.3311E+03   1.5709E+05  0.000E+00  0.000E+00  0.000E+00  3.98596E+01  1.892E-01  2.000E+01  2.000E+04 -6.656E-02
   1   13   20     1    20    1.5709E+05 -1.4899E+03   1.5858E+05  0.000E+00  0.000E+00  0.000E+00  3.93834E+01  1.902E-01  2.000E+01  2.000E+04 -7.450E-02
   1   14   21     1    21    1.5858E+05 -1.7984E+03   1.6038E+05  0.000E+00  0.000E+00  0.000E+00  3.89073E+01  1.914E-01  2.000E+01  2.000E+04 -8.992E-02
   1   14   22     1    22    1.6038E+05  5.3033E+03   1.5507E+05  0.000E+00  0.000E+00  0.000E+00  3.84288E+01  1.901E-01  2.000E+01  2.000E+04  2.652E-01
   1    9   30     2     1    5.0000E+04 -1.8133E+03   5.1813E+04  0.000E+00  0.000E+00  0.000E+00  4.02421E+01  1.171E-01  2.000E+01  2.000E+04 -9.066E-02
   1    9   29     2     2    5.1813E+04 -2.0213E+03   5.3835E+04  0.000E+00  0.000E+00  0.000E+00  3.99947E+01  1.197E-01  2.000E+01  2.000E+04 -1.011E-01
   1    9   28     2     3    5.3835E+04 -2.0865E+03   5.5921E+04  0.000E+00  0.000E+00  0.000E+00  3.97475E+01  1.225E-01  2.000E+01  2.000E+04 -1.043E-01
   1    9   27     2     4    5.5921E+04 -2.9557E+03   5.8877E+04  0.000E+00  0.000E+00  0.000E+00  3.95009E+01  1.259E-01  2.000E+01  2.000E+04 -1.478E-01
   1   10   26     2     5    5.8877E+04 -9.1607E+02   5.9793E+04  0.000E+00  0.000E+00  0.000E+00  3.92534E+01  1.284E-01  2.000E+01  2.000E+04 -4.580E-02
   1   11   25     2     6    5.9793E+04 -1.6290E+02   5.9956E+04  0.000E+00  0.000E+00  0.000E+00  3.90041E+01  1.291E-01  2.000E+01  2.000E+04 -8.145E-03
   1   12   24     2     7    5.9956E+04  1.6946E+02   5.9786E+04  0.000E+00  0.000E+00  0.000E+00  3.87541E+01  1.291E-01  2.000E+01  2.000E+04  8.473E-03
   1   13   23     2     8    5.9786E+04  2.5763E+02   5.9529E+04  0.000E+00  0.000E+00  0.000E+00  3.85038E+01  1.288E-01  2.000E+01  2.000E+04  1.288E-02
   1   14   22     2     9    5.9529E+04  1.7778E+03   5.7751E+04  0.000E+00  0.000E+00  0.000E+00  3.82525E+01  1.275E-01  2.000E+01  2.000E+04  8.889E-02
   1   14   22     3     1    2.1282E+05 -8.3398E+03   2.2116E+05  0.000E+00  0.000E+00  0.000E+00  3.77466E+01  1.911E-01  2.000E+01  2.000E+04 -4.170E-01
   1   15   23     3     2    2.2116E+05 -2.9487E+03   2.2411E+05  0.000E+00  0.000E+00  0.000E+00  3.68607E+01  1.940E-01  2.000E+01  2.000E+04 -1.474E-01
   1   15   24     3     3    2.2411E+05 -1.9965E+03   2.2611E+05  0.000E+00  0.000E+00  0.000E+00  3.59731E+01  1.953E-01  2.000E+01  2.000E+04 -9.983E-02
   1   15   25     3     4    2.2611E+05 -1.8571E+03   2.2797E+05  0.000E+00  0.000E+00  0.000E+00  3.50852E+01  1.963E-01  2.000E+01  2.000E+04 -9.286E-02
   1   15   26     3     5    2.2797E+05 -2.1573E+03   2.3012E+05  0.000E+00  0.000E+00  0.000E+00  3.41974E+01  1.974E-01  2.000E+01  2.000E+04 -1.079E-01
   1   16   27     3     6    2.3012E+05 -3.1058E+03   2.3323E+05  0.000E+00  0.000E+00  0.000E+00  3.33098E+01  1.987E-01  2.000E+01  2.000E+04 -1.553E-01
   1   17   28     3     7    2.3323E+05 -3.9336E+03   2.3716E+05  0.000E+00  0.000E+00  0.000E+00  3.24227E+01  2.005E-01  2.000E+01  2.000E+04 -1.967E-01
   1   18   29     3     8    2.3716E+05 -5.6335E+03   2.4280E+05  0.000E+00  0.000E+00  0.000E+00  3.15363E+01  2.030E-01  2.000E+01  2.000E+04 -2.817E-01
   1   18   30     3     9    2.4280E+05 -4.6902E+03   2.4749E+05  0.000E+00  0.000E+00  0.000E+00  3.06500E+01  2.056E-01  2.000E+01  2.000E+04 -2.345E-01



1
              HEAD IN LAYER   1 AT END OF TIME STEP   1 IN STRESS PERIOD    7
  ---------------------------------------------------------------------------

          1      2      3      4      5      6      7      8      9     10
         11     12     13     14     15     16     17     18     19     20
         21     22     23     24     25     26     27     28     29     30
 .........................................................................
   1  ****** ****** ****** ****** ****** ****** ****** ****** ****** ******
      ****** ****** ****** ****** ****** ****** ****** ****** ****** ******
      ****** ****** ****** ****** ****** ****** ****** ****** ****** ******
   2  ****** ****** ****** ****** ****** ****** ****** ****** ****** ******
      ****** ****** ****** ****** ****** ****** ****** ****** ****** ******
      ****** ****** ****** ****** ****** ****** ****** ****** ****** ******
   3  ****** ****** ****** ****** ****** ****** ****** ****** ****** ******
      ****** ****** ****** ****** ****** ****** ****** ****** ****** ******
      ****** ****** ****** ****** ****** ****** ****** ****** ****** ******
   4  ****** ****** ****** ****** ****** ****** ****** ****** ****** ******
      ****** ****** ****** ****** ****** ****** ****** ****** ****** ******
      ****** ****** ****** ****** ****** ****** ****** ****** ****** ******
   5  ****** ****** ****** ****** ****** ****** ****** ****** ****** ******
      ****** ****** ****** ****** ****** ****** ****** ****** ****** ******
      ****** ****** ****** ****** ****** ****** ****** ****** ****** ******
   6  ****** ****** ****** ****** ****** ****** ****** ****** ****** ******
      ****** ****** ****** ****** ****** ****** ****** ****** ****** ******
      ****** ****** ****** ****** ****** ****** ****** ****** ****** ******
   7  ****** ****** ****** ****** ****** ****** ****** ****** ****** ******
      ****** ****** ****** ****** ****** ****** ****** ****** ****** ******
      ****** ****** ****** ****** ****** ****** ****** ****** ****** ******
   8  ****** ****** ****** ****** ****** ****** ****** ****** ****** ******
      ****** ****** ****** ****** ****** ****** ****** ****** ****** ******
      ****** ****** ****** ****** ****** ****** ****** ****** ****** ******
   9  ****** ****** ****** ****** ****** ****** ****** ****** ****** ******
      ****** ****** ****** ****** ****** ****** ****** ****** ****** ******
      ****** ****** ****** ****** ****** ****** ****** ****** ****** ******
  10  ****** ****** ****** ****** ****** ****** ****** ****** ****** ******
      ****** ****** ****** ****** ****** ****** ****** ****** ****** ******
      ****** ****** ****** ****** ****** ****** ****** ****** ****** ******
  11  ****** ****** ****** ****** ****** ****** ****** ****** ****** ******
      ****** ****** ****** ****** ****** ****** ****** ****** ****** ******
      ****** ****** ****** ****** ****** ****** ****** ****** ****** ******
  12  ****** ****** ****** ****** ****** ****** ****** ****** ****** ******
      ****** ****** ****** ****** ****** ****** ****** ****** ****** ******
      ****** ****** ****** ****** ****** ****** ****** ****** ****** ******
  13  ****** ****** ****** ****** ****** ****** ****** ****** ****** ******
      ****** ****** ****** ****** ****** ****** ****** ****** ****** ******
      ****** ****** ****** ****** ****** ****** ****** ****** ****** ******
  14  ****** ****** ****** ****** ****** ****** ****** ****** ****** ******
      ****** ****** ****** ****** ****** ****** ****** ****** ****** ******
      ****** ****** ****** ****** ****** ****** ****** ****** ****** ******
  15  ****** ****** ****** ****** ****** ****** ****** ****** ****** ******
      ****** ****** ****** ****** ****** ****** ****** ****** ****** ******
      ****** ****** ****** ****** ****** ****** ****** ****** ****** ******
  16  ****** ****** ****** ****** ****** ****** ****** ****** ****** ******
      ****** ****** ****** ****** ****** ****** ****** ****** ****** ******
      ****** ****** ****** ****** ****** ****** ****** ****** ****** ******
  17  ****** ****** ****** ****** ****** ****** ****** ****** ****** ******
      ****** ****** ****** ****** ****** ****** ****** ****** ****** ******
      ****** ****** ****** ****** ****** ****** ****** ****** ****** ******
  18  ****** ****** ****** ****** ****** ****** ****** ****** ****** ******
      ****** ****** ****** ****** ****** ****** ****** ****** ****** ******
      ****** ****** ****** ****** ****** ****** ****** ****** ****** ******
  19  ****** ****** ****** ****** ****** ****** ****** ****** ****** ******
      ****** ****** ****** ****** ****** ****** ****** ****** ****** ******
      ****** ****** ****** ****** ****** ****** ****** ****** ****** ******
  20  ****** ****** ****** ****** ****** ****** ****** ****** ****** ******
      ****** ****** ****** ****** ****** ****** ****** ****** ****** ******
      ****** ****** ****** ****** ****** ****** ****** ****** ****** ******
  21  ****** ****** ****** ****** ****** ****** ****** ****** ****** ******
      ****** ****** ****** ****** ****** ****** ****** ****** ****** ******
      ****** ****** ****** ****** ****** ****** ****** ****** ****** ******
  22  ****** ****** ****** ****** ****** ****** ****** ****** ****** ******
      ****** ****** ****** ****** ****** ****** ****** ****** ****** ******
      ****** ****** ****** ****** ****** ****** ****** ****** ****** ******
  23  ****** ****** ****** ****** ****** ****** ****** ****** ****** ******
      ****** ****** ****** ****** ****** ****** ****** ****** ****** ******
      ****** ****** ****** ****** ****** ****** ****** ****** ****** ******
  24  ****** ****** ****** ****** ****** ****** ****** ****** ****** ******
      ****** ****** ****** ****** ****** ****** ****** ****** ****** ******
      ****** ****** ****** ****** ****** ****** ****** ****** ****** ******
  25  ****** ****** ****** ****** ****** ****** ****** ****** ****** ******
      ****** ****** ****** ****** ****** ****** ****** ****** ****** ******
      ****** ****** ****** ****** ****** ****** ****** ****** ****** ******

 HEAD WILL BE SAVED ON UNIT   51 AT END OF TIME STEP    1, STRESS PERIOD    7
1
  VOLUMETRIC BUDGET FOR ENTIRE MODEL AT END OF TIME STEP    1, STRESS PERIOD   7
  ------------------------------------------------------------------------------

     CUMULATIVE VOLUMES      L**3       RATES FOR THIS TIME STEP      L**3/T
     ------------------                 ------------------------

           IN:                                      IN:
           ---                                      ---
             STORAGE =    27445704.1526               STORAGE =        8657.3257
       CONSTANT HEAD =   133198800.6481         CONSTANT HEAD =      212206.2451
               WELLS =           0.0000                 WELLS =           0.0000
            RECHARGE =    15097200.0000              RECHARGE =           0.0000
      STREAM LEAKAGE =     4872683.8519        STREAM LEAKAGE =        7508.1694

            TOTAL IN =   180614388.6525              TOTAL IN =      228371.7402

          OUT:                                     OUT:
          ----                                     ----
             STORAGE =     1982657.7296               STORAGE =       11572.8777
       CONSTANT HEAD =           0.0000         CONSTANT HEAD =           0.0000
               WELLS =    93744571.8232                 WELLS =      111803.9651
            RECHARGE =           0.0000              RECHARGE =           0.0000
      STREAM LEAKAGE =    84887159.9545        STREAM LEAKAGE =      104994.8991

           TOTAL OUT =   180614389.5074             TOTAL OUT =      228371.7419

            IN - OUT =          -0.8549              IN - OUT =      -1.7350E-03

 PERCENT DISCREPANCY =          -0.00     PERCENT DISCREPANCY =          -0.00






         TIME SUMMARY AT END OF TIME STEP    1 IN STRESS PERIOD    7
                    SECONDS     MINUTES      HOURS       DAYS        YEARS
                    -----------------------------------------------------------
   TIME STEP LENGTH 7.86240E+06 1.31040E+05  2184.0      91.000     0.24914    
 STRESS PERIOD TIME 7.86240E+06 1.31040E+05  2184.0      91.000     0.24914    
         TOTAL TIME 5.52096E+07 9.20160E+05  15336.      639.00      1.7495    
1
1
                            STRESS PERIOD NO.    8, LENGTH =   91.00000    
                            -----------------------------------------------

                              NUMBER OF TIME STEPS =     1

                               MULTIPLIER FOR DELT =     1.500

                            INITIAL TIME STEP SIZE =   91.00000    

 WELL NO.  LAYER   ROW   COL   STRESS RATE         
 --------------------------------------------------
      1      1      5     22     -0.1180E+05
      2      1      3     18     -0.5000E+05
      3      1      3     21     -0.5000E+05

      3 WELLS

                 RECHARGE =  1.000000E-03

 REUSING STREAM SEGMENT DATA FROM LAST STRESS PERIOD
 
 SOLVING FOR HEAD 


     6 CALLS TO PCG ROUTINE FOR TIME STEP   1 IN STRESS PERIOD    8
    23 TOTAL ITERATIONS

 OUTPUT CONTROL FOR STRESS PERIOD    8   TIME STEP    1
    SAVE BUDGET
    SAVE HEAD FOR ALL LAYERS
    PRINT HEAD FOR ALL LAYERS
 UBDSV2 SAVING "STREAMFLOW OUT  " ON UNIT  50 AT TIME STEP  1, STRESS PERIOD   8



 STREAM LISTING     PERIOD      8   STEP        1

 LAYER ROW COL. STREAM  RCH.  FLOW INTO     FLOW TO   FLOW OUT OF   OVRLND.     DIRECT     STREAM       STREAM     STREAM     STREAM   STREAMBED  STREAMBED
                SEG.NO.  NO.  STRM. RCH.    AQUIFER    STRM. RCH.    RUNOFF     PRECIP       ET          HEAD       DEPTH      WIDTH   CONDCTNC.   GRADIENT

   1   13    1     1     1    1.0000E+05 -2.7430E+03   1.0274E+05  0.000E+00  0.000E+00  0.000E+00  4.84072E+01  1.458E-01  2.000E+01  2.000E+04 -1.371E-01
   1   13    2     1     2    1.0274E+05 -4.5688E+03   1.0731E+05  0.000E+00  0.000E+00  0.000E+00  4.79331E+01  1.490E-01  2.000E+01  2.000E+04 -2.284E-01
   1   14    3     1     3    1.0731E+05 -3.6944E+03   1.1101E+05  0.000E+00  0.000E+00  0.000E+00  4.74593E+01  1.525E-01  2.000E+01  2.000E+04 -1.847E-01
   1   15    4     1     4    1.1101E+05 -3.6355E+03   1.1464E+05  0.000E+00  0.000E+00  0.000E+00  4.69851E+01  1.555E-01  2.000E+01  2.000E+04 -1.818E-01
   1   16    5     1     5    1.1464E+05 -4.0518E+03   1.1869E+05  0.000E+00  0.000E+00  0.000E+00  4.65109E+01  1.587E-01  2.000E+01  2.000E+04 -2.026E-01
   1   16    6     1     6    1.1869E+05 -3.1599E+03   1.2185E+05  0.000E+00  0.000E+00  0.000E+00  4.60366E+01  1.616E-01  2.000E+01  2.000E+04 -1.580E-01
   1   16    7     1     7    1.2185E+05 -3.2058E+03   1.2506E+05  0.000E+00  0.000E+00  0.000E+00  4.55619E+01  1.641E-01  2.000E+01  2.000E+04 -1.603E-01
   1   16    8     1     8    1.2506E+05 -3.2296E+03   1.2829E+05  0.000E+00  0.000E+00  0.000E+00  4.50872E+01  1.667E-01  2.000E+01  2.000E+04 -1.615E-01
   1   16    9     1     9    1.2829E+05 -3.2194E+03   1.3151E+05  0.000E+00  0.000E+00  0.000E+00  4.46124E+01  1.692E-01  2.000E+01  2.000E+04 -1.610E-01
   1   16   10     1    10    1.3151E+05 -3.1831E+03   1.3469E+05  0.000E+00  0.000E+00  0.000E+00  4.41376E+01  1.717E-01  2.000E+01  2.000E+04 -1.592E-01
   1   16   11     1    11    1.3469E+05 -3.1576E+03   1.3785E+05  0.000E+00  0.000E+00  0.000E+00  4.36628E+01  1.742E-01  2.000E+01  2.000E+04 -1.579E-01
   1   16   12     1    12    1.3785E+05 -4.2918E+03   1.4214E+05  0.000E+00  0.000E+00  0.000E+00  4.31884E+01  1.770E-01  2.000E+01  2.000E+04 -2.146E-01
   1   15   13     1    13    1.4214E+05 -3.7511E+03   1.4589E+05  0.000E+00  0.000E+00  0.000E+00  4.27141E+01  1.800E-01  2.000E+01  2.000E+04 -1.876E-01
   1   14   14     1    14    1.4589E+05 -3.5752E+03   1.4947E+05  0.000E+00  0.000E+00  0.000E+00  4.22396E+01  1.828E-01  2.000E+01  2.000E+04 -1.788E-01
   1   13   15     1    15    1.4947E+05 -3.4541E+03   1.5292E+05  0.000E+00  0.000E+00  0.000E+00  4.17649E+01  1.854E-01  2.000E+01  2.000E+04 -1.727E-01
   1   12   16     1    16    1.5292E+05 -3.5101E+03   1.5643E+05  0.000E+00  0.000E+00  0.000E+00  4.12902E+01  1.879E-01  2.000E+01  2.000E+04 -1.755E-01
   1   12   17     1    17    1.5643E+05 -2.1106E+03   1.5854E+05  0.000E+00  0.000E+00  0.000E+00  4.08150E+01  1.900E-01  2.000E+01  2.000E+04 -1.055E-01
   1   12   18     1    18    1.5854E+05 -1.8370E+03   1.6038E+05  0.000E+00  0.000E+00  0.000E+00  4.03391E+01  1.914E-01  2.000E+01  2.000E+04 -9.185E-02
   1   12   19     1    19    1.6038E+05 -1.9632E+03   1.6234E+05  0.000E+00  0.000E+00  0.000E+00  3.98632E+01  1.928E-01  2.000E+01  2.000E+04 -9.816E-02
   1   13   20     1    20    1.6234E+05 -1.9276E+03   1.6427E+05  0.000E+00  0.000E+00  0.000E+00  3.93873E+01  1.941E-01  2.000E+01  2.000E+04 -9.638E-02
   1   14   21     1    21    1.6427E+05 -2.0698E+03   1.6634E+05  0.000E+00  0.000E+00  0.000E+00  3.89115E+01  1.956E-01  2.000E+01  2.000E+04 -1.035E-01
   1   14   22     1    22    1.6634E+05  5.2126E+03   1.6113E+05  0.000E+00  0.000E+00  0.000E+00  3.84331E+01  1.944E-01  2.000E+01  2.000E+04  2.606E-01
   1    9   30     2     1    5.0000E+04 -2.1437E+03   5.2144E+04  0.000E+00  0.000E+00  0.000E+00  4.02423E+01  1.173E-01  2.000E+01  2.000E+04 -1.072E-01
   1    9   29     2     2    5.2144E+04 -2.3721E+03   5.4516E+04  0.000E+00  0.000E+00  0.000E+00  3.99954E+01  1.204E-01  2.000E+01  2.000E+04 -1.186E-01
   1    9   28     2     3    5.4516E+04 -2.4903E+03   5.7006E+04  0.000E+00  0.000E+00  0.000E+00  3.97487E+01  1.237E-01  2.000E+01  2.000E+04 -1.245E-01
   1    9   27     2     4    5.7006E+04 -3.7223E+03   6.0728E+04  0.000E+00  0.000E+00  0.000E+00  3.95028E+01  1.278E-01  2.000E+01  2.000E+04 -1.861E-01
   1   10   26     2     5    6.0728E+04 -1.6264E+03   6.2355E+04  0.000E+00  0.000E+00  0.000E+00  3.92562E+01  1.312E-01  2.000E+01  2.000E+04 -8.132E-02
   1   11   25     2     6    6.2355E+04 -8.0746E+02   6.3162E+04  0.000E+00  0.000E+00  0.000E+00  3.90078E+01  1.328E-01  2.000E+01  2.000E+04 -4.037E-02
   1   12   24     2     7    6.3162E+04 -3.6204E+02   6.3524E+04  0.000E+00  0.000E+00  0.000E+00  3.87585E+01  1.335E-01  2.000E+01  2.000E+04 -1.810E-02
   1   13   23     2     8    6.3524E+04 -1.1597E+02   6.3640E+04  0.000E+00  0.000E+00  0.000E+00  3.85088E+01  1.338E-01  2.000E+01  2.000E+04 -5.798E-03
   1   14   22     2     9    6.3640E+04  1.7075E+03   6.1933E+04  0.000E+00  0.000E+00  0.000E+00  3.82578E+01  1.328E-01  2.000E+01  2.000E+04  8.538E-02
   1   14   22     3     1    2.2306E+05 -8.4093E+03   2.3147E+05  0.000E+00  0.000E+00  0.000E+00  3.77520E+01  1.964E-01  2.000E+01  2.000E+04 -4.205E-01
   1   15   23     3     2    2.3147E+05 -3.1355E+03   2.3460E+05  0.000E+00  0.000E+00  0.000E+00  3.68661E+01  1.994E-01  2.000E+01  2.000E+04 -1.568E-01
   1   15   24     3     3    2.3460E+05 -2.1433E+03   2.3675E+05  0.000E+00  0.000E+00  0.000E+00  3.59785E+01  2.008E-01  2.000E+01  2.000E+04 -1.072E-01
   1   15   25     3     4    2.3675E+05 -2.0088E+03   2.3876E+05  0.000E+00  0.000E+00  0.000E+00  3.50907E+01  2.018E-01  2.000E+01  2.000E+04 -1.004E-01
   1   15   26     3     5    2.3876E+05 -2.3560E+03   2.4111E+05  0.000E+00  0.000E+00  0.000E+00  3.42029E+01  2.029E-01  2.000E+01  2.000E+04 -1.178E-01
   1   16   27     3     6    2.4111E+05 -3.3418E+03   2.4445E+05  0.000E+00  0.000E+00  0.000E+00  3.33155E+01  2.044E-01  2.000E+01  2.000E+04 -1.671E-01
   1   17   28     3     7    2.4445E+05 -4.1713E+03   2.4863E+05  0.000E+00  0.000E+00  0.000E+00  3.24285E+01  2.063E-01  2.000E+01  2.000E+04 -2.086E-01
   1   18   29     3     8    2.4863E+05 -5.8500E+03   2.5448E+05  0.000E+00  0.000E+00  0.000E+00  3.15421E+01  2.088E-01  2.000E+01  2.000E+04 -2.925E-01
   1   18   30     3     9    2.5448E+05 -4.8612E+03   2.5934E+05  0.000E+00  0.000E+00  0.000E+00  3.06559E+01  2.114E-01  2.000E+01  2.000E+04 -2.431E-01



1
              HEAD IN LAYER   1 AT END OF TIME STEP   1 IN STRESS PERIOD    8
  ---------------------------------------------------------------------------

          1      2      3      4      5      6      7      8      9     10
         11     12     13     14     15     16     17     18     19     20
         21     22     23     24     25     26     27     28     29     30
 .........................................................................
   1  ****** ****** ****** ****** ****** ****** ****** ****** ****** ******
      ****** ****** ****** ****** ****** ****** ****** ****** ****** ******
      ****** ****** ****** ****** ****** ****** ****** ****** ****** ******
   2  ****** ****** ****** ****** ****** ****** ****** ****** ****** ******
      ****** ****** ****** ****** ****** ****** ****** ****** ****** ******
      ****** ****** ****** ****** ****** ****** ****** ****** ****** ******
   3  ****** ****** ****** ****** ****** ****** ****** ****** ****** ******
      ****** ****** ****** ****** ****** ****** ****** ****** ****** ******
      ****** ****** ****** ****** ****** ****** ****** ****** ****** ******
   4  ****** ****** ****** ****** ****** ****** ****** ****** ****** ******
      ****** ****** ****** ****** ****** ****** ****** ****** ****** ******
      ****** ****** ****** ****** ****** ****** ****** ****** ****** ******
   5  ****** ****** ****** ****** ****** ****** ****** ****** ****** ******
      ****** ****** ****** ****** ****** ****** ****** ****** ****** ******
      ****** ****** ****** ****** ****** ****** ****** ****** ****** ******
   6  ****** ****** ****** ****** ****** ****** ****** ****** ****** ******
      ****** ****** ****** ****** ****** ****** ****** ****** ****** ******
      ****** ****** ****** ****** ****** ****** ****** ****** ****** ******
   7  ****** ****** ****** ****** ****** ****** ****** ****** ****** ******
      ****** ****** ****** ****** ****** ****** ****** ****** ****** ******
      ****** ****** ****** ****** ****** ****** ****** ****** ****** ******
   8  ****** ****** ****** ****** ****** ****** ****** ****** ****** ******
      ****** ****** ****** ****** ****** ****** ****** ****** ****** ******
      ****** ****** ****** ****** ****** ****** ****** ****** ****** ******
   9  ****** ****** ****** ****** ****** ****** ****** ****** ****** ******
      ****** ****** ****** ****** ****** ****** ****** ****** ****** ******
      ****** ****** ****** ****** ****** ****** ****** ****** ****** ******
  10  ****** ****** ****** ****** ****** ****** ****** ****** ****** ******
      ****** ****** ****** ****** ****** ****** ****** ****** ****** ******
      ****** ****** ****** ****** ****** ****** ****** ****** ****** ******
  11  ****** ****** ****** ****** ****** ****** ****** ****** ****** ******
      ****** ****** ****** ****** ****** ****** ****** ****** ****** ******
      ****** ****** ****** ****** ****** ****** ****** ****** ****** ******
  12  ****** ****** ****** ****** ****** ****** ****** ****** ****** ******
      ****** ****** ****** ****** ****** ****** ****** ****** ****** ******
      ****** ****** ****** ****** ****** ****** ****** ****** ****** ******
  13  ****** ****** ****** ****** ****** ****** ****** ****** ****** ******
      ****** ****** ****** ****** ****** ****** ****** ****** ****** ******
      ****** ****** ****** ****** ****** ****** ****** ****** ****** ******
  14  ****** ****** ****** ****** ****** ****** ****** ****** ****** ******
      ****** ****** ****** ****** ****** ****** ****** ****** ****** ******
      ****** ****** ****** ****** ****** ****** ****** ****** ****** ******
  15  ****** ****** ****** ****** ****** ****** ****** ****** ****** ******
      ****** ****** ****** ****** ****** ****** ****** ****** ****** ******
      ****** ****** ****** ****** ****** ****** ****** ****** ****** ******
  16  ****** ****** ****** ****** ****** ****** ****** ****** ****** ******
      ****** ****** ****** ****** ****** ****** ****** ****** ****** ******
      ****** ****** ****** ****** ****** ****** ****** ****** ****** ******
  17  ****** ****** ****** ****** ****** ****** ****** ****** ****** ******
      ****** ****** ****** ****** ****** ****** ****** ****** ****** ******
      ****** ****** ****** ****** ****** ****** ****** ****** ****** ******
  18  ****** ****** ****** ****** ****** ****** ****** ****** ****** ******
      ****** ****** ****** ****** ****** ****** ****** ****** ****** ******
      ****** ****** ****** ****** ****** ****** ****** ****** ****** ******
  19  ****** ****** ****** ****** ****** ****** ****** ****** ****** ******
      ****** ****** ****** ****** ****** ****** ****** ****** ****** ******
      ****** ****** ****** ****** ****** ****** ****** ****** ****** ******
  20  ****** ****** ****** ****** ****** ****** ****** ****** ****** ******
      ****** ****** ****** ****** ****** ****** ****** ****** ****** ******
      ****** ****** ****** ****** ****** ****** ****** ****** ****** ******
  21  ****** ****** ****** ****** ****** ****** ****** ****** ****** ******
      ****** ****** ****** ****** ****** ****** ****** ****** ****** ******
      ****** ****** ****** ****** ****** ****** ****** ****** ****** ******
  22  ****** ****** ****** ****** ****** ****** ****** ****** ****** ******
      ****** ****** ****** ****** ****** ****** ****** ****** ****** ******
      ****** ****** ****** ****** ****** ****** ****** ****** ****** ******
  23  ****** ****** ****** ****** ****** ****** ****** ****** ****** ******
      ****** ****** ****** ****** ****** ****** ****** ****** ****** ******
      ****** ****** ****** ****** ****** ****** ****** ****** ****** ******
  24  ****** ****** ****** ****** ****** ****** ****** ****** ****** ******
      ****** ****** ****** ****** ****** ****** ****** ****** ****** ******
      ****** ****** ****** ****** ****** ****** ****** ****** ****** ******
  25  ****** ****** ****** ****** ****** ****** ****** ****** ****** ******
      ****** ****** ****** ****** ****** ****** ****** ****** ****** ******
      ****** ****** ****** ****** ****** ****** ****** ****** ****** ******

 HEAD WILL BE SAVED ON UNIT   51 AT END OF TIME STEP    1, STRESS PERIOD    8
1
  VOLUMETRIC BUDGET FOR ENTIRE MODEL AT END OF TIME STEP    1, STRESS PERIOD   8
  ------------------------------------------------------------------------------

     CUMULATIVE VOLUMES      L**3       RATES FOR THIS TIME STEP      L**3/T
     ------------------                 ------------------------

           IN:                                      IN:
           ---                                      ---
             STORAGE =    27445704.1526               STORAGE =           0.0000
       CONSTANT HEAD =   151605458.7240         CONSTANT HEAD =      202270.9679
               WELLS =           0.0000                 WELLS =           0.0000
            RECHARGE =    17608800.0000              RECHARGE =       27600.0000
      STREAM LEAKAGE =     5502416.6032        STREAM LEAKAGE =        6920.1401

            TOTAL IN =   202162379.4797              TOTAL IN =      236791.1080

          OUT:                                     OUT:
          ----                                     ----
             STORAGE =     2777104.4730               STORAGE =        8730.1840
       CONSTANT HEAD =           0.0000         CONSTANT HEAD =           0.0000
               WELLS =   103918732.6465                 WELLS =      111803.9651
            RECHARGE =           0.0000              RECHARGE =           0.0000
      STREAM LEAKAGE =    95466543.1195        STREAM LEAKAGE =      116256.9579

           TOTAL OUT =   202162380.2389             TOTAL OUT =      236791.1069

            IN - OUT =          -0.7592              IN - OUT =       1.0511E-03

 PERCENT DISCREPANCY =          -0.00     PERCENT DISCREPANCY =           0.00






         TIME SUMMARY AT END OF TIME STEP    1 IN STRESS PERIOD    8
                    SECONDS     MINUTES      HOURS       DAYS        YEARS
                    -----------------------------------------------------------
   TIME STEP LENGTH 7.86240E+06 1.31040E+05  2184.0      91.000     0.24914    
 STRESS PERIOD TIME 7.86240E+06 1.31040E+05  2184.0      91.000     0.24914    
         TOTAL TIME 6.30720E+07 1.05120E+06  17520.      730.00      1.9986    
1
1
                            STRESS PERIOD NO.    9, LENGTH =   92.00000    
                            -----------------------------------------------

                              NUMBER OF TIME STEPS =     1

                               MULTIPLIER FOR DELT =     1.500

                            INITIAL TIME STEP SIZE =   92.00000    

 WELL NO.  LAYER   ROW   COL   STRESS RATE         
 --------------------------------------------------
      1      1      5     22     -0.1180E+05
      2      1      3     18     -0.5000E+05
      3      1      3     21     -0.5000E+05

      3 WELLS

                 RECHARGE =  5.000000E-04

 REUSING STREAM SEGMENT DATA FROM LAST STRESS PERIOD
 
 SOLVING FOR HEAD 


     6 CALLS TO PCG ROUTINE FOR TIME STEP   1 IN STRESS PERIOD    9
    22 TOTAL ITERATIONS

 OUTPUT CONTROL FOR STRESS PERIOD    9   TIME STEP    1
    SAVE BUDGET
    SAVE HEAD FOR ALL LAYERS
    PRINT HEAD FOR ALL LAYERS
 UBDSV2 SAVING "STREAMFLOW OUT  " ON UNIT  50 AT TIME STEP  1, STRESS PERIOD   9



 STREAM LISTING     PERIOD      9   STEP        1

 LAYER ROW COL. STREAM  RCH.  FLOW INTO     FLOW TO   FLOW OUT OF   OVRLND.     DIRECT     STREAM       STREAM     STREAM     STREAM   STREAMBED  STREAMBED
                SEG.NO.  NO.  STRM. RCH.    AQUIFER    STRM. RCH.    RUNOFF     PRECIP       ET          HEAD       DEPTH      WIDTH   CONDCTNC.   GRADIENT

   1   13    1     1     1    1.0000E+05 -2.6345E+03   1.0263E+05  0.000E+00  0.000E+00  0.000E+00  4.84072E+01  1.458E-01  2.000E+01  2.000E+04 -1.317E-01
   1   13    2     1     2    1.0263E+05 -4.4299E+03   1.0706E+05  0.000E+00  0.000E+00  0.000E+00  4.79329E+01  1.488E-01  2.000E+01  2.000E+04 -2.215E-01
   1   14    3     1     3    1.0706E+05 -3.5503E+03   1.1061E+05  0.000E+00  0.000E+00  0.000E+00  4.74590E+01  1.522E-01  2.000E+01  2.000E+04 -1.775E-01
   1   15    4     1     4    1.1061E+05 -3.4922E+03   1.1411E+05  0.000E+00  0.000E+00  0.000E+00  4.69847E+01  1.551E-01  2.000E+01  2.000E+04 -1.746E-01
   1   16    5     1     5    1.1411E+05 -3.9183E+03   1.1803E+05  0.000E+00  0.000E+00  0.000E+00  4.65105E+01  1.582E-01  2.000E+01  2.000E+04 -1.959E-01
   1   16    6     1     6    1.1803E+05 -3.0555E+03   1.2108E+05  0.000E+00  0.000E+00  0.000E+00  4.60360E+01  1.610E-01  2.000E+01  2.000E+04 -1.528E-01
   1   16    7     1     7    1.2108E+05 -3.1012E+03   1.2418E+05  0.000E+00  0.000E+00  0.000E+00  4.55612E+01  1.635E-01  2.000E+01  2.000E+04 -1.551E-01
   1   16    8     1     8    1.2418E+05 -3.1254E+03   1.2731E+05  0.000E+00  0.000E+00  0.000E+00  4.50864E+01  1.660E-01  2.000E+01  2.000E+04 -1.563E-01
   1   16    9     1     9    1.2731E+05 -3.1162E+03   1.3042E+05  0.000E+00  0.000E+00  0.000E+00  4.46116E+01  1.684E-01  2.000E+01  2.000E+04 -1.558E-01
   1   16   10     1    10    1.3042E+05 -3.0817E+03   1.3351E+05  0.000E+00  0.000E+00  0.000E+00  4.41368E+01  1.708E-01  2.000E+01  2.000E+04 -1.541E-01
   1   16   11     1    11    1.3351E+05 -3.0574E+03   1.3656E+05  0.000E+00  0.000E+00  0.000E+00  4.36619E+01  1.732E-01  2.000E+01  2.000E+04 -1.529E-01
   1   16   12     1    12    1.3656E+05 -4.1606E+03   1.4072E+05  0.000E+00  0.000E+00  0.000E+00  4.31873E+01  1.760E-01  2.000E+01  2.000E+04 -2.080E-01
   1   15   13     1    13    1.4072E+05 -3.6175E+03   1.4434E+05  0.000E+00  0.000E+00  0.000E+00  4.27130E+01  1.789E-01  2.000E+01  2.000E+04 -1.809E-01
   1   14   14     1    14    1.4434E+05 -3.4507E+03   1.4779E+05  0.000E+00  0.000E+00  0.000E+00  4.22384E+01  1.816E-01  2.000E+01  2.000E+04 -1.725E-01
   1   13   15     1    15    1.4779E+05 -3.3516E+03   1.5114E+05  0.000E+00  0.000E+00  0.000E+00  4.17636E+01  1.841E-01  2.000E+01  2.000E+04 -1.676E-01
   1   12   16     1    16    1.5114E+05 -3.4686E+03   1.5461E+05  0.000E+00  0.000E+00  0.000E+00  4.12889E+01  1.866E-01  2.000E+01  2.000E+04 -1.734E-01
   1   12   17     1    17    1.5461E+05 -2.0832E+03   1.5669E+05  0.000E+00  0.000E+00  0.000E+00  4.08136E+01  1.886E-01  2.000E+01  2.000E+04 -1.042E-01
   1   12   18     1    18    1.5669E+05 -1.8218E+03   1.5852E+05  0.000E+00  0.000E+00  0.000E+00  4.03378E+01  1.900E-01  2.000E+01  2.000E+04 -9.109E-02
   1   12   19     1    19    1.5852E+05 -1.9853E+03   1.6050E+05  0.000E+00  0.000E+00  0.000E+00  3.98619E+01  1.914E-01  2.000E+01  2.000E+04 -9.926E-02
   1   13   20     1    20    1.6050E+05 -1.8766E+03   1.6238E+05  0.000E+00  0.000E+00  0.000E+00  3.93860E+01  1.928E-01  2.000E+01  2.000E+04 -9.383E-02
   1   14   21     1    21    1.6238E+05 -1.9793E+03   1.6436E+05  0.000E+00  0.000E+00  0.000E+00  3.89101E+01  1.942E-01  2.000E+01  2.000E+04 -9.896E-02
   1   14   22     1    22    1.6436E+05  5.2219E+03   1.5914E+05  0.000E+00  0.000E+00  0.000E+00  3.84317E+01  1.930E-01  2.000E+01  2.000E+04  2.611E-01
   1    9   30     2     1    5.0000E+04 -2.1023E+03   5.2102E+04  0.000E+00  0.000E+00  0.000E+00  4.02423E+01  1.173E-01  2.000E+01  2.000E+04 -1.051E-01
   1    9   29     2     2    5.2102E+04 -2.3375E+03   5.4440E+04  0.000E+00  0.000E+00  0.000E+00  3.99954E+01  1.204E-01  2.000E+01  2.000E+04 -1.169E-01
   1    9   28     2     3    5.4440E+04 -2.4718E+03   5.6912E+04  0.000E+00  0.000E+00  0.000E+00  3.97486E+01  1.236E-01  2.000E+01  2.000E+04 -1.236E-01
   1    9   27     2     4    5.6912E+04 -3.7695E+03   6.0681E+04  0.000E+00  0.000E+00  0.000E+00  3.95027E+01  1.277E-01  2.000E+01  2.000E+04 -1.885E-01
   1   10   26     2     5    6.0681E+04 -1.6405E+03   6.2322E+04  0.000E+00  0.000E+00  0.000E+00  3.92562E+01  1.312E-01  2.000E+01  2.000E+04 -8.203E-02
   1   11   25     2     6    6.2322E+04 -8.0986E+02   6.3132E+04  0.000E+00  0.000E+00  0.000E+00  3.90078E+01  1.328E-01  2.000E+01  2.000E+04 -4.049E-02
   1   12   24     2     7    6.3132E+04 -3.5175E+02   6.3483E+04  0.000E+00  0.000E+00  0.000E+00  3.87585E+01  1.335E-01  2.000E+01  2.000E+04 -1.759E-02
   1   13   23     2     8    6.3483E+04 -9.2192E+01   6.3576E+04  0.000E+00  0.000E+00  0.000E+00  3.85088E+01  1.338E-01  2.000E+01  2.000E+04 -4.610E-03
   1   14   22     2     9    6.3576E+04  1.7430E+03   6.1833E+04  0.000E+00  0.000E+00  0.000E+00  3.82577E+01  1.327E-01  2.000E+01  2.000E+04  8.715E-02
   1   14   22     3     1    2.2097E+05 -8.3935E+03   2.2936E+05  0.000E+00  0.000E+00  0.000E+00  3.77509E+01  1.953E-01  2.000E+01  2.000E+04 -4.197E-01
   1   15   23     3     2    2.2936E+05 -3.0271E+03   2.3239E+05  0.000E+00  0.000E+00  0.000E+00  3.68650E+01  1.983E-01  2.000E+01  2.000E+04 -1.514E-01
   1   15   24     3     3    2.3239E+05 -2.0627E+03   2.3445E+05  0.000E+00  0.000E+00  0.000E+00  3.59774E+01  1.996E-01  2.000E+01  2.000E+04 -1.031E-01
   1   15   25     3     4    2.3445E+05 -1.9275E+03   2.3638E+05  0.000E+00  0.000E+00  0.000E+00  3.50895E+01  2.006E-01  2.000E+01  2.000E+04 -9.638E-02
   1   15   26     3     5    2.3638E+05 -2.2522E+03   2.3863E+05  0.000E+00  0.000E+00  0.000E+00  3.42017E+01  2.017E-01  2.000E+01  2.000E+04 -1.126E-01
   1   16   27     3     6    2.3863E+05 -3.2128E+03   2.4184E+05  0.000E+00  0.000E+00  0.000E+00  3.33142E+01  2.031E-01  2.000E+01  2.000E+04 -1.606E-01
   1   17   28     3     7    2.4184E+05 -4.0398E+03   2.4588E+05  0.000E+00  0.000E+00  0.000E+00  3.24271E+01  2.049E-01  2.000E+01  2.000E+04 -2.020E-01
   1   18   29     3     8    2.4588E+05 -5.7274E+03   2.5161E+05  0.000E+00  0.000E+00  0.000E+00  3.15407E+01  2.074E-01  2.000E+01  2.000E+04 -2.864E-01
   1   18   30     3     9    2.5161E+05 -4.7674E+03   2.5638E+05  0.000E+00  0.000E+00  0.000E+00  3.06544E+01  2.100E-01  2.000E+01  2.000E+04 -2.384E-01



1
              HEAD IN LAYER   1 AT END OF TIME STEP   1 IN STRESS PERIOD    9
  ---------------------------------------------------------------------------

          1      2      3      4      5      6      7      8      9     10
         11     12     13     14     15     16     17     18     19     20
         21     22     23     24     25     26     27     28     29     30
 .........................................................................
   1  ****** ****** ****** ****** ****** ****** ****** ****** ****** ******
      ****** ****** ****** ****** ****** ****** ****** ****** ****** ******
      ****** ****** ****** ****** ****** ****** ****** ****** ****** ******
   2  ****** ****** ****** ****** ****** ****** ****** ****** ****** ******
      ****** ****** ****** ****** ****** ****** ****** ****** ****** ******
      ****** ****** ****** ****** ****** ****** ****** ****** ****** ******
   3  ****** ****** ****** ****** ****** ****** ****** ****** ****** ******
      ****** ****** ****** ****** ****** ****** ****** ****** ****** ******
      ****** ****** ****** ****** ****** ****** ****** ****** ****** ******
   4  ****** ****** ****** ****** ****** ****** ****** ****** ****** ******
      ****** ****** ****** ****** ****** ****** ****** ****** ****** ******
      ****** ****** ****** ****** ****** ****** ****** ****** ****** ******
   5  ****** ****** ****** ****** ****** ****** ****** ****** ****** ******
      ****** ****** ****** ****** ****** ****** ****** ****** ****** ******
      ****** ****** ****** ****** ****** ****** ****** ****** ****** ******
   6  ****** ****** ****** ****** ****** ****** ****** ****** ****** ******
      ****** ****** ****** ****** ****** ****** ****** ****** ****** ******
      ****** ****** ****** ****** ****** ****** ****** ****** ****** ******
   7  ****** ****** ****** ****** ****** ****** ****** ****** ****** ******
      ****** ****** ****** ****** ****** ****** ****** ****** ****** ******
      ****** ****** ****** ****** ****** ****** ****** ****** ****** ******
   8  ****** ****** ****** ****** ****** ****** ****** ****** ****** ******
      ****** ****** ****** ****** ****** ****** ****** ****** ****** ******
      ****** ****** ****** ****** ****** ****** ****** ****** ****** ******
   9  ****** ****** ****** ****** ****** ****** ****** ****** ****** ******
      ****** ****** ****** ****** ****** ****** ****** ****** ****** ******
      ****** ****** ****** ****** ****** ****** ****** ****** ****** ******
  10  ****** ****** ****** ****** ****** ****** ****** ****** ****** ******
      ****** ****** ****** ****** ****** ****** ****** ****** ****** ******
      ****** ****** ****** ****** ****** ****** ****** ****** ****** ******
  11  ****** ****** ****** ****** ****** ****** ****** ****** ****** ******
      ****** ****** ****** ****** ****** ****** ****** ****** ****** ******
      ****** ****** ****** ****** ****** ****** ****** ****** ****** ******
  12  ****** ****** ****** ****** ****** ****** ****** ****** ****** ******
      ****** ****** ****** ****** ****** ****** ****** ****** ****** ******
      ****** ****** ****** ****** ****** ****** ****** ****** ****** ******
  13  ****** ****** ****** ****** ****** ****** ****** ****** ****** ******
      ****** ****** ****** ****** ****** ****** ****** ****** ****** ******
      ****** ****** ****** ****** ****** ****** ****** ****** ****** ******
  14  ****** ****** ****** ****** ****** ****** ****** ****** ****** ******
      ****** ****** ****** ****** ****** ****** ****** ****** ****** ******
      ****** ****** ****** ****** ****** ****** ****** ****** ****** ******
  15  ****** ****** ****** ****** ****** ****** ****** ****** ****** ******
      ****** ****** ****** ****** ****** ****** ****** ****** ****** ******
      ****** ****** ****** ****** ****** ****** ****** ****** ****** ******
  16  ****** ****** ****** ****** ****** ****** ****** ****** ****** ******
      ****** ****** ****** ****** ****** ****** ****** ****** ****** ******
      ****** ****** ****** ****** ****** ****** ****** ****** ****** ******
  17  ****** ****** ****** ****** ****** ****** ****** ****** ****** ******
      ****** ****** ****** ****** ****** ****** ****** ****** ****** ******
      ****** ****** ****** ****** ****** ****** ****** ****** ****** ******
  18  ****** ****** ****** ****** ****** ****** ****** ****** ****** ******
      ****** ****** ****** ****** ****** ****** ****** ****** ****** ******
      ****** ****** ****** ****** ****** ****** ****** ****** ****** ******
  19  ****** ****** ****** ****** ****** ****** ****** ****** ****** ******
      ****** ****** ****** ****** ****** ****** ****** ****** ****** ******
      ****** ****** ****** ****** ****** ****** ****** ****** ****** ******
  20  ****** ****** ****** ****** ****** ****** ****** ****** ****** ******
      ****** ****** ****** ****** ****** ****** ****** ****** ****** ******
      ****** ****** ****** ****** ****** ****** ****** ****** ****** ******
  21  ****** ****** ****** ****** ****** ****** ****** ****** ****** ******
      ****** ****** ****** ****** ****** ****** ****** ****** ****** ******
      ****** ****** ****** ****** ****** ****** ****** ****** ****** ******
  22  ****** ****** ****** ****** ****** ****** ****** ****** ****** ******
      ****** ****** ****** ****** ****** ****** ****** ****** ****** ******
      ****** ****** ****** ****** ****** ****** ****** ****** ****** ******
  23  ****** ****** ****** ****** ****** ****** ****** ****** ****** ******
      ****** ****** ****** ****** ****** ****** ****** ****** ****** ******
      ****** ****** ****** ****** ****** ****** ****** ****** ****** ******
  24  ****** ****** ****** ****** ****** ****** ****** ****** ****** ******
      ****** ****** ****** ****** ****** ****** ****** ****** ****** ******
      ****** ****** ****** ****** ****** ****** ****** ****** ****** ******
  25  ****** ****** ****** ****** ****** ****** ****** ****** ****** ******
      ****** ****** ****** ****** ****** ****** ****** ****** ****** ******
      ****** ****** ****** ****** ****** ****** ****** ****** ****** ******

 HEAD WILL BE SAVED ON UNIT   51 AT END OF TIME STEP    1, STRESS PERIOD    9
1
  VOLUMETRIC BUDGET FOR ENTIRE MODEL AT END OF TIME STEP    1, STRESS PERIOD   9
  ------------------------------------------------------------------------------

     CUMULATIVE VOLUMES      L**3       RATES FOR THIS TIME STEP      L**3/T
     ------------------                 ------------------------

           IN:                                      IN:
           ---                                      ---
             STORAGE =    27601407.0753               STORAGE =        1692.4231
       CONSTANT HEAD =   170321514.5646         CONSTANT HEAD =      203435.3896
               WELLS =           0.0000                 WELLS =           0.0000
            RECHARGE =    18878400.0000              RECHARGE =       13800.0000
      STREAM LEAKAGE =     6143186.8926        STREAM LEAKAGE =        6964.8945

            TOTAL IN =   222944508.5324              TOTAL IN =      225892.7071

          OUT:                                     OUT:
          ----                                     ----
             STORAGE =     2845634.5702               STORAGE =         744.8924
       CONSTANT HEAD =           0.0000         CONSTANT HEAD =           0.0000
               WELLS =   114204697.4348                 WELLS =      111803.9651
            RECHARGE =           0.0000              RECHARGE =           0.0000
      STREAM LEAKAGE =   105894177.5086        STREAM LEAKAGE =      113343.8521

           TOTAL OUT =   222944509.5136             TOTAL OUT =      225892.7095

            IN - OUT =          -0.9812              IN - OUT =      -2.4128E-03

 PERCENT DISCREPANCY =          -0.00     PERCENT DISCREPANCY =          -0.00






         TIME SUMMARY AT END OF TIME STEP    1 IN STRESS PERIOD    9
                    SECONDS     MINUTES      HOURS       DAYS        YEARS
                    -----------------------------------------------------------
   TIME STEP LENGTH 7.94880E+06 1.32480E+05  2208.0      92.000     0.25188    
 STRESS PERIOD TIME 7.94880E+06 1.32480E+05  2208.0      92.000     0.25188    
         TOTAL TIME 7.10208E+07 1.18368E+06  19728.      822.00      2.2505    
1
1
                            STRESS PERIOD NO.   10, LENGTH =   91.00000    
                            -----------------------------------------------

                              NUMBER OF TIME STEPS =     1

                               MULTIPLIER FOR DELT =     1.500

                            INITIAL TIME STEP SIZE =   91.00000    

 WELL NO.  LAYER   ROW   COL   STRESS RATE         
 --------------------------------------------------
      1      1      5     22     -0.1180E+05
      2      1      3     18     -0.5000E+05
      3      1      3     21     -0.5000E+05

      3 WELLS

                 RECHARGE =  2.000000E-03

 REUSING STREAM SEGMENT DATA FROM LAST STRESS PERIOD
 
 SOLVING FOR HEAD 


     7 CALLS TO PCG ROUTINE FOR TIME STEP   1 IN STRESS PERIOD   10
    26 TOTAL ITERATIONS

 OUTPUT CONTROL FOR STRESS PERIOD   10   TIME STEP    1
    SAVE BUDGET
    SAVE HEAD FOR ALL LAYERS
    PRINT HEAD FOR ALL LAYERS
 UBDSV2 SAVING "STREAMFLOW OUT  " ON UNIT  50 AT TIME STEP  1, STRESS PERIOD  10



 STREAM LISTING     PERIOD     10   STEP        1

 LAYER ROW COL. STREAM  RCH.  FLOW INTO     FLOW TO   FLOW OUT OF   OVRLND.     DIRECT     STREAM       STREAM     STREAM     STREAM   STREAMBED  STREAMBED
                SEG.NO.  NO.  STRM. RCH.    AQUIFER    STRM. RCH.    RUNOFF     PRECIP       ET          HEAD       DEPTH      WIDTH   CONDCTNC.   GRADIENT

   1   13    1     1     1    1.0000E+05 -3.0628E+03   1.0306E+05  0.000E+00  0.000E+00  0.000E+00  4.84073E+01  1.460E-01  2.000E+01  2.000E+04 -1.531E-01
   1   13    2     1     2    1.0306E+05 -5.0012E+03   1.0806E+05  0.000E+00  0.000E+00  0.000E+00  4.79335E+01  1.494E-01  2.000E+01  2.000E+04 -2.501E-01
   1   14    3     1     3    1.0806E+05 -4.1238E+03   1.1219E+05  0.000E+00  0.000E+00  0.000E+00  4.74601E+01  1.533E-01  2.000E+01  2.000E+04 -2.062E-01
   1   15    4     1     4    1.1219E+05 -4.0574E+03   1.1625E+05  0.000E+00  0.000E+00  0.000E+00  4.69862E+01  1.567E-01  2.000E+01  2.000E+04 -2.029E-01
   1   16    5     1     5    1.1625E+05 -4.4360E+03   1.2068E+05  0.000E+00  0.000E+00  0.000E+00  4.65124E+01  1.601E-01  2.000E+01  2.000E+04 -2.218E-01
   1   16    6     1     6    1.2068E+05 -3.4667E+03   1.2415E+05  0.000E+00  0.000E+00  0.000E+00  4.60383E+01  1.633E-01  2.000E+01  2.000E+04 -1.733E-01
   1   16    7     1     7    1.2415E+05 -3.5200E+03   1.2767E+05  0.000E+00  0.000E+00  0.000E+00  4.55638E+01  1.661E-01  2.000E+01  2.000E+04 -1.760E-01
   1   16    8     1     8    1.2767E+05 -3.5487E+03   1.3122E+05  0.000E+00  0.000E+00  0.000E+00  4.50893E+01  1.689E-01  2.000E+01  2.000E+04 -1.774E-01
   1   16    9     1     9    1.3122E+05 -3.5399E+03   1.3476E+05  0.000E+00  0.000E+00  0.000E+00  4.46148E+01  1.716E-01  2.000E+01  2.000E+04 -1.770E-01
   1   16   10     1    10    1.3476E+05 -3.5016E+03   1.3826E+05  0.000E+00  0.000E+00  0.000E+00  4.41403E+01  1.743E-01  2.000E+01  2.000E+04 -1.751E-01
   1   16   11     1    11    1.3826E+05 -3.4711E+03   1.4173E+05  0.000E+00  0.000E+00  0.000E+00  4.36656E+01  1.770E-01  2.000E+01  2.000E+04 -1.736E-01
   1   16   12     1    12    1.4173E+05 -4.6896E+03   1.4642E+05  0.000E+00  0.000E+00  0.000E+00  4.31914E+01  1.801E-01  2.000E+01  2.000E+04 -2.345E-01
   1   15   13     1    13    1.4642E+05 -4.1999E+03   1.5062E+05  0.000E+00  0.000E+00  0.000E+00  4.27175E+01  1.834E-01  2.000E+01  2.000E+04 -2.100E-01
   1   14   14     1    14    1.5062E+05 -4.0497E+03   1.5467E+05  0.000E+00  0.000E+00  0.000E+00  4.22433E+01  1.864E-01  2.000E+01  2.000E+04 -2.025E-01
   1   13   15     1    15    1.5467E+05 -3.9493E+03   1.5862E+05  0.000E+00  0.000E+00  0.000E+00  4.17689E+01  1.894E-01  2.000E+01  2.000E+04 -1.975E-01
   1   12   16     1    16    1.5862E+05 -4.0626E+03   1.6268E+05  0.000E+00  0.000E+00  0.000E+00  4.12945E+01  1.922E-01  2.000E+01  2.000E+04 -2.031E-01
   1   12   17     1    17    1.6268E+05 -2.5213E+03   1.6520E+05  0.000E+00  0.000E+00  0.000E+00  4.08196E+01  1.946E-01  2.000E+01  2.000E+04 -1.261E-01
   1   12   18     1    18    1.6520E+05 -2.2540E+03   1.6746E+05  0.000E+00  0.000E+00  0.000E+00  4.03440E+01  1.963E-01  2.000E+01  2.000E+04 -1.127E-01
   1   12   19     1    19    1.6746E+05 -2.5227E+03   1.6998E+05  0.000E+00  0.000E+00  0.000E+00  3.98684E+01  1.980E-01  2.000E+01  2.000E+04 -1.261E-01
   1   13   20     1    20    1.6998E+05 -2.3743E+03   1.7235E+05  0.000E+00  0.000E+00  0.000E+00  3.93929E+01  1.997E-01  2.000E+01  2.000E+04 -1.187E-01
   1   14   21     1    21    1.7235E+05 -2.4234E+03   1.7478E+05  0.000E+00  0.000E+00  0.000E+00  3.89173E+01  2.014E-01  2.000E+01  2.000E+04 -1.212E-01
   1   14   22     1    22    1.7478E+05  5.1353E+03   1.6964E+05  0.000E+00  0.000E+00  0.000E+00  3.84391E+01  2.004E-01  2.000E+01  2.000E+04  2.568E-01
   1    9   30     2     1    5.0000E+04 -2.4824E+03   5.2482E+04  0.000E+00  0.000E+00  0.000E+00  4.02426E+01  1.176E-01  2.000E+01  2.000E+04 -1.241E-01
   1    9   29     2     2    5.2482E+04 -2.7166E+03   5.5199E+04  0.000E+00  0.000E+00  0.000E+00  3.99961E+01  1.211E-01  2.000E+01  2.000E+04 -1.358E-01
   1    9   28     2     3    5.5199E+04 -2.8535E+03   5.8052E+04  0.000E+00  0.000E+00  0.000E+00  3.97498E+01  1.248E-01  2.000E+01  2.000E+04 -1.427E-01
   1    9   27     2     4    5.8052E+04 -4.3013E+03   6.2354E+04  0.000E+00  0.000E+00  0.000E+00  3.95045E+01  1.295E-01  2.000E+01  2.000E+04 -2.151E-01
   1   10   26     2     5    6.2354E+04 -2.1798E+03   6.4534E+04  0.000E+00  0.000E+00  0.000E+00  3.92587E+01  1.337E-01  2.000E+01  2.000E+04 -1.090E-01
   1   11   25     2     6    6.4534E+04 -1.3234E+03   6.5857E+04  0.000E+00  0.000E+00  0.000E+00  3.90109E+01  1.359E-01  2.000E+01  2.000E+04 -6.617E-02
   1   12   24     2     7    6.5857E+04 -8.0307E+02   6.6660E+04  0.000E+00  0.000E+00  0.000E+00  3.87622E+01  1.372E-01  2.000E+01  2.000E+04 -4.015E-02
   1   13   23     2     8    6.6660E+04 -4.4009E+02   6.7100E+04  0.000E+00  0.000E+00  0.000E+00  3.85130E+01  1.380E-01  2.000E+01  2.000E+04 -2.200E-02
   1   14   22     2     9    6.7100E+04  1.5988E+03   6.5501E+04  0.000E+00  0.000E+00  0.000E+00  3.82622E+01  1.372E-01  2.000E+01  2.000E+04  7.994E-02
   1   14   22     3     1    2.3514E+05 -8.4818E+03   2.4362E+05  0.000E+00  0.000E+00  0.000E+00  3.77582E+01  2.027E-01  2.000E+01  2.000E+04 -4.241E-01
   1   15   23     3     2    2.4362E+05 -3.4339E+03   2.4706E+05  0.000E+00  0.000E+00  0.000E+00  3.68723E+01  2.057E-01  2.000E+01  2.000E+04 -1.717E-01
   1   15   24     3     3    2.4706E+05 -2.3553E+03   2.4941E+05  0.000E+00  0.000E+00  0.000E+00  3.59849E+01  2.071E-01  2.000E+01  2.000E+04 -1.178E-01
   1   15   25     3     4    2.4941E+05 -2.2198E+03   2.5163E+05  0.000E+00  0.000E+00  0.000E+00  3.50972E+01  2.083E-01  2.000E+01  2.000E+04 -1.110E-01
   1   15   26     3     5    2.5163E+05 -2.6275E+03   2.5426E+05  0.000E+00  0.000E+00  0.000E+00  3.42095E+01  2.095E-01  2.000E+01  2.000E+04 -1.314E-01
   1   16   27     3     6    2.5426E+05 -3.6849E+03   2.5794E+05  0.000E+00  0.000E+00  0.000E+00  3.33221E+01  2.110E-01  2.000E+01  2.000E+04 -1.842E-01
   1   17   28     3     7    2.5794E+05 -4.5219E+03   2.6247E+05  0.000E+00  0.000E+00  0.000E+00  3.24353E+01  2.131E-01  2.000E+01  2.000E+04 -2.261E-01
   1   18   29     3     8    2.6247E+05 -6.1805E+03   2.6865E+05  0.000E+00  0.000E+00  0.000E+00  3.15490E+01  2.157E-01  2.000E+01  2.000E+04 -3.090E-01
   1   18   30     3     9    2.6865E+05 -5.1080E+03   2.7376E+05  0.000E+00  0.000E+00  0.000E+00  3.06629E+01  2.184E-01  2.000E+01  2.000E+04 -2.554E-01



1
              HEAD IN LAYER   1 AT END OF TIME STEP   1 IN STRESS PERIOD   10
  ---------------------------------------------------------------------------

          1      2      3      4      5      6      7      8      9     10
         11     12     13     14     15     16     17     18     19     20
         21     22     23     24     25     26     27     28     29     30
 .........................................................................
   1  ****** ****** ****** ****** ****** ****** ****** ****** ****** ******
      ****** ****** ****** ****** ****** ****** ****** ****** ****** ******
      ****** ****** ****** ****** ****** ****** ****** ****** ****** ******
   2  ****** ****** ****** ****** ****** ****** ****** ****** ****** ******
      ****** ****** ****** ****** ****** ****** ****** ****** ****** ******
      ****** ****** ****** ****** ****** ****** ****** ****** ****** ******
   3  ****** ****** ****** ****** ****** ****** ****** ****** ****** ******
      ****** ****** ****** ****** ****** ****** ****** ****** ****** ******
      ****** ****** ****** ****** ****** ****** ****** ****** ****** ******
   4  ****** ****** ****** ****** ****** ****** ****** ****** ****** ******
      ****** ****** ****** ****** ****** ****** ****** ****** ****** ******
      ****** ****** ****** ****** ****** ****** ****** ****** ****** ******
   5  ****** ****** ****** ****** ****** ****** ****** ****** ****** ******
      ****** ****** ****** ****** ****** ****** ****** ****** ****** ******
      ****** ****** ****** ****** ****** ****** ****** ****** ****** ******
   6  ****** ****** ****** ****** ****** ****** ****** ****** ****** ******
      ****** ****** ****** ****** ****** ****** ****** ****** ****** ******
      ****** ****** ****** ****** ****** ****** ****** ****** ****** ******
   7  ****** ****** ****** ****** ****** ****** ****** ****** ****** ******
      ****** ****** ****** ****** ****** ****** ****** ****** ****** ******
      ****** ****** ****** ****** ****** ****** ****** ****** ****** ******
   8  ****** ****** ****** ****** ****** ****** ****** ****** ****** ******
      ****** ****** ****** ****** ****** ****** ****** ****** ****** ******
      ****** ****** ****** ****** ****** ****** ****** ****** ****** ******
   9  ****** ****** ****** ****** ****** ****** ****** ****** ****** ******
      ****** ****** ****** ****** ****** ****** ****** ****** ****** ******
      ****** ****** ****** ****** ****** ****** ****** ****** ****** ******
  10  ****** ****** ****** ****** ****** ****** ****** ****** ****** ******
      ****** ****** ****** ****** ****** ****** ****** ****** ****** ******
      ****** ****** ****** ****** ****** ****** ****** ****** ****** ******
  11  ****** ****** ****** ****** ****** ****** ****** ****** ****** ******
      ****** ****** ****** ****** ****** ****** ****** ****** ****** ******
      ****** ****** ****** ****** ****** ****** ****** ****** ****** ******
  12  ****** ****** ****** ****** ****** ****** ****** ****** ****** ******
      ****** ****** ****** ****** ****** ****** ****** ****** ****** ******
      ****** ****** ****** ****** ****** ****** ****** ****** ****** ******
  13  ****** ****** ****** ****** ****** ****** ****** ****** ****** ******
      ****** ****** ****** ****** ****** ****** ****** ****** ****** ******
      ****** ****** ****** ****** ****** ****** ****** ****** ****** ******
  14  ****** ****** ****** ****** ****** ****** ****** ****** ****** ******
      ****** ****** ****** ****** ****** ****** ****** ****** ****** ******
      ****** ****** ****** ****** ****** ****** ****** ****** ****** ******
  15  ****** ****** ****** ****** ****** ****** ****** ****** ****** ******
      ****** ****** ****** ****** ****** ****** ****** ****** ****** ******
      ****** ****** ****** ****** ****** ****** ****** ****** ****** ******
  16  ****** ****** ****** ****** ****** ****** ****** ****** ****** ******
      ****** ****** ****** ****** ****** ****** ****** ****** ****** ******
      ****** ****** ****** ****** ****** ****** ****** ****** ****** ******
  17  ****** ****** ****** ****** ****** ****** ****** ****** ****** ******
      ****** ****** ****** ****** ****** ****** ****** ****** ****** ******
      ****** ****** ****** ****** ****** ****** ****** ****** ****** ******
  18  ****** ****** ****** ****** ****** ****** ****** ****** ****** ******
      ****** ****** ****** ****** ****** ****** ****** ****** ****** ******
      ****** ****** ****** ****** ****** ****** ****** ****** ****** ******
  19  ****** ****** ****** ****** ****** ****** ****** ****** ****** ******
      ****** ****** ****** ****** ****** ****** ****** ****** ****** ******
      ****** ****** ****** ****** ****** ****** ****** ****** ****** ******
  20  ****** ****** ****** ****** ****** ****** ****** ****** ****** ******
      ****** ****** ****** ****** ****** ****** ****** ****** ****** ******
      ****** ****** ****** ****** ****** ****** ****** ****** ****** ******
  21  ****** ****** ****** ****** ****** ****** ****** ****** ****** ******
      ****** ****** ****** ****** ****** ****** ****** ****** ****** ******
      ****** ****** ****** ****** ****** ****** ****** ****** ****** ******
  22  ****** ****** ****** ****** ****** ****** ****** ****** ****** ******
      ****** ****** ****** ****** ****** ****** ****** ****** ****** ******
      ****** ****** ****** ****** ****** ****** ****** ****** ****** ******
  23  ****** ****** ****** ****** ****** ****** ****** ****** ****** ******
      ****** ****** ****** ****** ****** ****** ****** ****** ****** ******
      ****** ****** ****** ****** ****** ****** ****** ****** ****** ******
  24  ****** ****** ****** ****** ****** ****** ****** ****** ****** ******
      ****** ****** ****** ****** ****** ****** ****** ****** ****** ******
      ****** ****** ****** ****** ****** ****** ****** ****** ****** ******
  25  ****** ****** ****** ****** ****** ****** ****** ****** ****** ******
      ****** ****** ****** ****** ****** ****** ****** ****** ****** ******
      ****** ****** ****** ****** ****** ****** ****** ****** ****** ******

 HEAD WILL BE SAVED ON UNIT   51 AT END OF TIME STEP    1, STRESS PERIOD   10
1
  VOLUMETRIC BUDGET FOR ENTIRE MODEL AT END OF TIME STEP    1, STRESS PERIOD  10
  ------------------------------------------------------------------------------

     CUMULATIVE VOLUMES      L**3       RATES FOR THIS TIME STEP      L**3/T
     ------------------                 ------------------------

           IN:                                      IN:
           ---                                      ---
             STORAGE =    27601407.0753               STORAGE =           0.0000
       CONSTANT HEAD =   187768901.1568         CONSTANT HEAD =      191729.5230
               WELLS =           0.0000                 WELLS =           0.0000
            RECHARGE =    23901600.0000              RECHARGE =       55200.0000
      STREAM LEAKAGE =     6755989.4975        STREAM LEAKAGE =        6734.0946

            TOTAL IN =   246027897.7296              TOTAL IN =      253663.6176

          OUT:                                     OUT:
          ----                                     ----
             STORAGE =     3880323.3025               STORAGE =       11370.2058
       CONSTANT HEAD =           0.0000         CONSTANT HEAD =           0.0000
               WELLS =   124378858.2581                 WELLS =      111803.9651
            RECHARGE =           0.0000              RECHARGE =           0.0000
      STREAM LEAKAGE =   117768716.9900        STREAM LEAKAGE =      130489.4449

           TOTAL OUT =   246027898.5506             TOTAL OUT =      253663.6158

            IN - OUT =          -0.8210              IN - OUT =       1.7604E-03

 PERCENT DISCREPANCY =          -0.00     PERCENT DISCREPANCY =           0.00






         TIME SUMMARY AT END OF TIME STEP    1 IN STRESS PERIOD   10
                    SECONDS     MINUTES      HOURS       DAYS        YEARS
                    -----------------------------------------------------------
   TIME STEP LENGTH 7.86240E+06 1.31040E+05  2184.0      91.000     0.24914    
 STRESS PERIOD TIME 7.86240E+06 1.31040E+05  2184.0      91.000     0.24914    
         TOTAL TIME 7.88832E+07 1.31472E+06  21912.      913.00      2.4997    
1
1
                            STRESS PERIOD NO.   11, LENGTH =   91.00000    
                            -----------------------------------------------

                              NUMBER OF TIME STEPS =     1

                               MULTIPLIER FOR DELT =     1.500

                            INITIAL TIME STEP SIZE =   91.00000    

 WELL NO.  LAYER   ROW   COL   STRESS RATE         
 --------------------------------------------------
      1      1      5     22     -0.1180E+05
      2      1      3     18     -0.5000E+05
      3      1      3     21     -0.5000E+05

      3 WELLS

                 RECHARGE =   0.00000    

 REUSING STREAM SEGMENT DATA FROM LAST STRESS PERIOD
 
 SOLVING FOR HEAD 


     7 CALLS TO PCG ROUTINE FOR TIME STEP   1 IN STRESS PERIOD   11
    26 TOTAL ITERATIONS

 OUTPUT CONTROL FOR STRESS PERIOD   11   TIME STEP    1
    SAVE BUDGET
    SAVE HEAD FOR ALL LAYERS
    PRINT HEAD FOR ALL LAYERS
 UBDSV2 SAVING "STREAMFLOW OUT  " ON UNIT  50 AT TIME STEP  1, STRESS PERIOD  11



 STREAM LISTING     PERIOD     11   STEP        1

 LAYER ROW COL. STREAM  RCH.  FLOW INTO     FLOW TO   FLOW OUT OF   OVRLND.     DIRECT     STREAM       STREAM     STREAM     STREAM   STREAMBED  STREAMBED
                SEG.NO.  NO.  STRM. RCH.    AQUIFER    STRM. RCH.    RUNOFF     PRECIP       ET          HEAD       DEPTH      WIDTH   CONDCTNC.   GRADIENT

   1   13    1     1     1    1.0000E+05 -2.5816E+03   1.0258E+05  0.000E+00  0.000E+00  0.000E+00  4.84071E+01  1.458E-01  2.000E+01  2.000E+04 -1.291E-01
   1   13    2     1     2    1.0258E+05 -4.3735E+03   1.0696E+05  0.000E+00  0.000E+00  0.000E+00  4.79328E+01  1.488E-01  2.000E+01  2.000E+04 -2.187E-01
   1   14    3     1     3    1.0696E+05 -3.4728E+03   1.1043E+05  0.000E+00  0.000E+00  0.000E+00  4.74589E+01  1.521E-01  2.000E+01  2.000E+04 -1.736E-01
   1   15    4     1     4    1.1043E+05 -3.4088E+03   1.1384E+05  0.000E+00  0.000E+00  0.000E+00  4.69845E+01  1.549E-01  2.000E+01  2.000E+04 -1.704E-01
   1   16    5     1     5    1.1384E+05 -3.8357E+03   1.1767E+05  0.000E+00  0.000E+00  0.000E+00  4.65102E+01  1.579E-01  2.000E+01  2.000E+04 -1.918E-01
   1   16    6     1     6    1.1767E+05 -2.9929E+03   1.2067E+05  0.000E+00  0.000E+00  0.000E+00  4.60357E+01  1.607E-01  2.000E+01  2.000E+04 -1.496E-01
   1   16    7     1     7    1.2067E+05 -3.0397E+03   1.2371E+05  0.000E+00  0.000E+00  0.000E+00  4.55609E+01  1.631E-01  2.000E+01  2.000E+04 -1.520E-01
   1   16    8     1     8    1.2371E+05 -3.0647E+03   1.2677E+05  0.000E+00  0.000E+00  0.000E+00  4.50860E+01  1.656E-01  2.000E+01  2.000E+04 -1.532E-01
   1   16    9     1     9    1.2677E+05 -3.0562E+03   1.2983E+05  0.000E+00  0.000E+00  0.000E+00  4.46112E+01  1.680E-01  2.000E+01  2.000E+04 -1.528E-01
   1   16   10     1    10    1.2983E+05 -3.0220E+03   1.3285E+05  0.000E+00  0.000E+00  0.000E+00  4.41363E+01  1.704E-01  2.000E+01  2.000E+04 -1.511E-01
   1   16   11     1    11    1.3285E+05 -2.9975E+03   1.3585E+05  0.000E+00  0.000E+00  0.000E+00  4.36613E+01  1.727E-01  2.000E+01  2.000E+04 -1.499E-01
   1   16   12     1    12    1.3585E+05 -4.0820E+03   1.3993E+05  0.000E+00  0.000E+00  0.000E+00  4.31868E+01  1.754E-01  2.000E+01  2.000E+04 -2.041E-01
   1   15   13     1    13    1.3993E+05 -3.5408E+03   1.4347E+05  0.000E+00  0.000E+00  0.000E+00  4.27124E+01  1.783E-01  2.000E+01  2.000E+04 -1.770E-01
   1   14   14     1    14    1.4347E+05 -3.3816E+03   1.4685E+05  0.000E+00  0.000E+00  0.000E+00  4.22377E+01  1.809E-01  2.000E+01  2.000E+04 -1.691E-01
   1   13   15     1    15    1.4685E+05 -3.2957E+03   1.5015E+05  0.000E+00  0.000E+00  0.000E+00  4.17629E+01  1.834E-01  2.000E+01  2.000E+04 -1.648E-01
   1   12   16     1    16    1.5015E+05 -3.4508E+03   1.5360E+05  0.000E+00  0.000E+00  0.000E+00  4.12881E+01  1.859E-01  2.000E+01  2.000E+04 -1.725E-01
   1   12   17     1    17    1.5360E+05 -2.0584E+03   1.5565E+05  0.000E+00  0.000E+00  0.000E+00  4.08129E+01  1.879E-01  2.000E+01  2.000E+04 -1.029E-01
   1   12   18     1    18    1.5565E+05 -1.7978E+03   1.5745E+05  0.000E+00  0.000E+00  0.000E+00  4.03370E+01  1.893E-01  2.000E+01  2.000E+04 -8.989E-02
   1   12   19     1    19    1.5745E+05 -1.9695E+03   1.5942E+05  0.000E+00  0.000E+00  0.000E+00  3.98611E+01  1.907E-01  2.000E+01  2.000E+04 -9.848E-02
   1   13   20     1    20    1.5942E+05 -1.8192E+03   1.6124E+05  0.000E+00  0.000E+00  0.000E+00  3.93852E+01  1.920E-01  2.000E+01  2.000E+04 -9.096E-02
   1   14   21     1    21    1.6124E+05 -1.9107E+03   1.6315E+05  0.000E+00  0.000E+00  0.000E+00  3.89093E+01  1.934E-01  2.000E+01  2.000E+04 -9.554E-02
   1   14   22     1    22    1.6315E+05  5.2377E+03   1.5791E+05  0.000E+00  0.000E+00  0.000E+00  3.84308E+01  1.922E-01  2.000E+01  2.000E+04  2.619E-01
   1    9   30     2     1    5.0000E+04 -2.0468E+03   5.2047E+04  0.000E+00  0.000E+00  0.000E+00  4.02423E+01  1.173E-01  2.000E+01  2.000E+04 -1.023E-01
   1    9   29     2     2    5.2047E+04 -2.2851E+03   5.4332E+04  0.000E+00  0.000E+00  0.000E+00  3.99952E+01  1.202E-01  2.000E+01  2.000E+04 -1.143E-01
   1    9   28     2     3    5.4332E+04 -2.4267E+03   5.6759E+04  0.000E+00  0.000E+00  0.000E+00  3.97484E+01  1.234E-01  2.000E+01  2.000E+04 -1.213E-01
   1    9   27     2     4    5.6759E+04 -3.7450E+03   6.0504E+04  0.000E+00  0.000E+00  0.000E+00  3.95025E+01  1.275E-01  2.000E+01  2.000E+04 -1.873E-01
   1   10   26     2     5    6.0504E+04 -1.5952E+03   6.2099E+04  0.000E+00  0.000E+00  0.000E+00  3.92559E+01  1.309E-01  2.000E+01  2.000E+04 -7.976E-02
   1   11   25     2     6    6.2099E+04 -7.6093E+02   6.2860E+04  0.000E+00  0.000E+00  0.000E+00  3.90074E+01  1.324E-01  2.000E+01  2.000E+04 -3.805E-02
   1   12   24     2     7    6.2860E+04 -3.0182E+02   6.3161E+04  0.000E+00  0.000E+00  0.000E+00  3.87581E+01  1.331E-01  2.000E+01  2.000E+04 -1.509E-02
   1   13   23     2     8    6.3161E+04 -4.4067E+01   6.3206E+04  0.000E+00  0.000E+00  0.000E+00  3.85083E+01  1.333E-01  2.000E+01  2.000E+04 -2.203E-03
   1   14   22     2     9    6.3206E+04  1.7665E+03   6.1439E+04  0.000E+00  0.000E+00  0.000E+00  3.82572E+01  1.322E-01  2.000E+01  2.000E+04  8.833E-02
   1   14   22     3     1    2.1935E+05 -8.3772E+03   2.2773E+05  0.000E+00  0.000E+00  0.000E+00  3.77501E+01  1.945E-01  2.000E+01  2.000E+04 -4.189E-01
   1   15   23     3     2    2.2773E+05 -2.9524E+03   2.3068E+05  0.000E+00  0.000E+00  0.000E+00  3.68641E+01  1.974E-01  2.000E+01  2.000E+04 -1.476E-01
   1   15   24     3     3    2.3068E+05 -2.0003E+03   2.3268E+05  0.000E+00  0.000E+00  0.000E+00  3.59765E+01  1.987E-01  2.000E+01  2.000E+04 -1.000E-01
   1   15   25     3     4    2.3268E+05 -1.8612E+03   2.3454E+05  0.000E+00  0.000E+00  0.000E+00  3.50886E+01  1.997E-01  2.000E+01  2.000E+04 -9.306E-02
   1   15   26     3     5    2.3454E+05 -2.1634E+03   2.3671E+05  0.000E+00  0.000E+00  0.000E+00  3.42007E+01  2.007E-01  2.000E+01  2.000E+04 -1.082E-01
   1   16   27     3     6    2.3671E+05 -3.1088E+03   2.3982E+05  0.000E+00  0.000E+00  0.000E+00  3.33132E+01  2.021E-01  2.000E+01  2.000E+04 -1.554E-01
   1   17   28     3     7    2.3982E+05 -3.9353E+03   2.4375E+05  0.000E+00  0.000E+00  0.000E+00  3.24261E+01  2.039E-01  2.000E+01  2.000E+04 -1.968E-01
   1   18   29     3     8    2.4375E+05 -5.6336E+03   2.4939E+05  0.000E+00  0.000E+00  0.000E+00  3.15396E+01  2.063E-01  2.000E+01  2.000E+04 -2.817E-01
   1   18   30     3     9    2.4939E+05 -4.6909E+03   2.5408E+05  0.000E+00  0.000E+00  0.000E+00  3.06533E+01  2.089E-01  2.000E+01  2.000E+04 -2.345E-01



1
              HEAD IN LAYER   1 AT END OF TIME STEP   1 IN STRESS PERIOD   11
  ---------------------------------------------------------------------------

          1      2      3      4      5      6      7      8      9     10
         11     12     13     14     15     16     17     18     19     20
         21     22     23     24     25     26     27     28     29     30
 .........................................................................
   1  ****** ****** ****** ****** ****** ****** ****** ****** ****** ******
      ****** ****** ****** ****** ****** ****** ****** ****** ****** ******
      ****** ****** ****** ****** ****** ****** ****** ****** ****** ******
   2  ****** ****** ****** ****** ****** ****** ****** ****** ****** ******
      ****** ****** ****** ****** ****** ****** ****** ****** ****** ******
      ****** ****** ****** ****** ****** ****** ****** ****** ****** ******
   3  ****** ****** ****** ****** ****** ****** ****** ****** ****** ******
      ****** ****** ****** ****** ****** ****** ****** ****** ****** ******
      ****** ****** ****** ****** ****** ****** ****** ****** ****** ******
   4  ****** ****** ****** ****** ****** ****** ****** ****** ****** ******
      ****** ****** ****** ****** ****** ****** ****** ****** ****** ******
      ****** ****** ****** ****** ****** ****** ****** ****** ****** ******
   5  ****** ****** ****** ****** ****** ****** ****** ****** ****** ******
      ****** ****** ****** ****** ****** ****** ****** ****** ****** ******
      ****** ****** ****** ****** ****** ****** ****** ****** ****** ******
   6  ****** ****** ****** ****** ****** ****** ****** ****** ****** ******
      ****** ****** ****** ****** ****** ****** ****** ****** ****** ******
      ****** ****** ****** ****** ****** ****** ****** ****** ****** ******
   7  ****** ****** ****** ****** ****** ****** ****** ****** ****** ******
      ****** ****** ****** ****** ****** ****** ****** ****** ****** ******
      ****** ****** ****** ****** ****** ****** ****** ****** ****** ******
   8  ****** ****** ****** ****** ****** ****** ****** ****** ****** ******
      ****** ****** ****** ****** ****** ****** ****** ****** ****** ******
      ****** ****** ****** ****** ****** ****** ****** ****** ****** ******
   9  ****** ****** ****** ****** ****** ****** ****** ****** ****** ******
      ****** ****** ****** ****** ****** ****** ****** ****** ****** ******
      ****** ****** ****** ****** ****** ****** ****** ****** ****** ******
  10  ****** ****** ****** ****** ****** ****** ****** ****** ****** ******
      ****** ****** ****** ****** ****** ****** ****** ****** ****** ******
      ****** ****** ****** ****** ****** ****** ****** ****** ****** ******
  11  ****** ****** ****** ****** ****** ****** ****** ****** ****** ******
      ****** ****** ****** ****** ****** ****** ****** ****** ****** ******
      ****** ****** ****** ****** ****** ****** ****** ****** ****** ******
  12  ****** ****** ****** ****** ****** ****** ****** ****** ****** ******
      ****** ****** ****** ****** ****** ****** ****** ****** ****** ******
      ****** ****** ****** ****** ****** ****** ****** ****** ****** ******
  13  ****** ****** ****** ****** ****** ****** ****** ****** ****** ******
      ****** ****** ****** ****** ****** ****** ****** ****** ****** ******
      ****** ****** ****** ****** ****** ****** ****** ****** ****** ******
  14  ****** ****** ****** ****** ****** ****** ****** ****** ****** ******
      ****** ****** ****** ****** ****** ****** ****** ****** ****** ******
      ****** ****** ****** ****** ****** ****** ****** ****** ****** ******
  15  ****** ****** ****** ****** ****** ****** ****** ****** ****** ******
      ****** ****** ****** ****** ****** ****** ****** ****** ****** ******
      ****** ****** ****** ****** ****** ****** ****** ****** ****** ******
  16  ****** ****** ****** ****** ****** ****** ****** ****** ****** ******
      ****** ****** ****** ****** ****** ****** ****** ****** ****** ******
      ****** ****** ****** ****** ****** ****** ****** ****** ****** ******
  17  ****** ****** ****** ****** ****** ****** ****** ****** ****** ******
      ****** ****** ****** ****** ****** ****** ****** ****** ****** ******
      ****** ****** ****** ****** ****** ****** ****** ****** ****** ******
  18  ****** ****** ****** ****** ****** ****** ****** ****** ****** ******
      ****** ****** ****** ****** ****** ****** ****** ****** ****** ******
      ****** ****** ****** ****** ****** ****** ****** ****** ****** ******
  19  ****** ****** ****** ****** ****** ****** ****** ****** ****** ******
      ****** ****** ****** ****** ****** ****** ****** ****** ****** ******
      ****** ****** ****** ****** ****** ****** ****** ****** ****** ******
  20  ****** ****** ****** ****** ****** ****** ****** ****** ****** ******
      ****** ****** ****** ****** ****** ****** ****** ****** ****** ******
      ****** ****** ****** ****** ****** ****** ****** ****** ****** ******
  21  ****** ****** ****** ****** ****** ****** ****** ****** ****** ******
      ****** ****** ****** ****** ****** ****** ****** ****** ****** ******
      ****** ****** ****** ****** ****** ****** ****** ****** ****** ******
  22  ****** ****** ****** ****** ****** ****** ****** ****** ****** ******
      ****** ****** ****** ****** ****** ****** ****** ****** ****** ******
      ****** ****** ****** ****** ****** ****** ****** ****** ****** ******
  23  ****** ****** ****** ****** ****** ****** ****** ****** ****** ******
      ****** ****** ****** ****** ****** ****** ****** ****** ****** ******
      ****** ****** ****** ****** ****** ****** ****** ****** ****** ******
  24  ****** ****** ****** ****** ****** ****** ****** ****** ****** ******
      ****** ****** ****** ****** ****** ****** ****** ****** ****** ******
      ****** ****** ****** ****** ****** ****** ****** ****** ****** ******
  25  ****** ****** ****** ****** ****** ****** ****** ****** ****** ******
      ****** ****** ****** ****** ****** ****** ****** ****** ****** ******
      ****** ****** ****** ****** ****** ****** ****** ****** ****** ******

 HEAD WILL BE SAVED ON UNIT   51 AT END OF TIME STEP    1, STRESS PERIOD   11
1
  VOLUMETRIC BUDGET FOR ENTIRE MODEL AT END OF TIME STEP    1, STRESS PERIOD  11
  ------------------------------------------------------------------------------

     CUMULATIVE VOLUMES      L**3       RATES FOR THIS TIME STEP      L**3/T
     ------------------                 ------------------------

           IN:                                      IN:
           ---                                      ---
             STORAGE =    28659419.3484               STORAGE =       11626.5085
       CONSTANT HEAD =   206356000.0355         CONSTANT HEAD =      204253.8338
               WELLS =           0.0000                 WELLS =           0.0000
            RECHARGE =    23901600.0000              RECHARGE =           0.0000
      STREAM LEAKAGE =     7393373.1803        STREAM LEAKAGE =        7004.2163

            TOTAL IN =   266310392.5642              TOTAL IN =      222884.5586

          OUT:                                     OUT:
          ----                                     ----
             STORAGE =     3880323.3025               STORAGE =           0.0000
       CONSTANT HEAD =           0.0000         CONSTANT HEAD =           0.0000
               WELLS =   134553019.0813                 WELLS =      111803.9651
            RECHARGE =           0.0000              RECHARGE =           0.0000
      STREAM LEAKAGE =   127877051.1935        STREAM LEAKAGE =      111080.5956

           TOTAL OUT =   266310393.5774             TOTAL OUT =      222884.5607

            IN - OUT =          -1.0132              IN - OUT =      -2.1116E-03

 PERCENT DISCREPANCY =          -0.00     PERCENT DISCREPANCY =          -0.00






         TIME SUMMARY AT END OF TIME STEP    1 IN STRESS PERIOD   11
                    SECONDS     MINUTES      HOURS       DAYS        YEARS
                    -----------------------------------------------------------
   TIME STEP LENGTH 7.86240E+06 1.31040E+05  2184.0      91.000     0.24914    
 STRESS PERIOD TIME 7.86240E+06 1.31040E+05  2184.0      91.000     0.24914    
         TOTAL TIME 8.67456E+07 1.44576E+06  24096.      1004.0      2.7488    
1
1
                            STRESS PERIOD NO.   12, LENGTH =   91.00000    
                            -----------------------------------------------

                              NUMBER OF TIME STEPS =     1

                               MULTIPLIER FOR DELT =     1.500

                            INITIAL TIME STEP SIZE =   91.00000    

 WELL NO.  LAYER   ROW   COL   STRESS RATE         
 --------------------------------------------------
      1      1      5     22     -0.1180E+05
      2      1      3     18     -0.5000E+05
      3      1      3     21     -0.5000E+05

      3 WELLS

                 RECHARGE =  1.000000E-03

 REUSING STREAM SEGMENT DATA FROM LAST STRESS PERIOD
 
 SOLVING FOR HEAD 


     6 CALLS TO PCG ROUTINE FOR TIME STEP   1 IN STRESS PERIOD   12
    23 TOTAL ITERATIONS

 OUTPUT CONTROL FOR STRESS PERIOD   12   TIME STEP    1
    SAVE BUDGET
    SAVE HEAD FOR ALL LAYERS
    PRINT HEAD FOR ALL LAYERS
 UBDSV2 SAVING "STREAMFLOW OUT  " ON UNIT  50 AT TIME STEP  1, STRESS PERIOD  12



 STREAM LISTING     PERIOD     12   STEP        1

 LAYER ROW COL. STREAM  RCH.  FLOW INTO     FLOW TO   FLOW OUT OF   OVRLND.     DIRECT     STREAM       STREAM     STREAM     STREAM   STREAMBED  STREAMBED
                SEG.NO.  NO.  STRM. RCH.    AQUIFER    STRM. RCH.    RUNOFF     PRECIP       ET          HEAD       DEPTH      WIDTH   CONDCTNC.   GRADIENT

   1   13    1     1     1    1.0000E+05 -2.7568E+03   1.0276E+05  0.000E+00  0.000E+00  0.000E+00  4.84072E+01  1.458E-01  2.000E+01  2.000E+04 -1.378E-01
   1   13    2     1     2    1.0276E+05 -4.5944E+03   1.0735E+05  0.000E+00  0.000E+00  0.000E+00  4.79331E+01  1.490E-01  2.000E+01  2.000E+04 -2.297E-01
   1   14    3     1     3    1.0735E+05 -3.7139E+03   1.1107E+05  0.000E+00  0.000E+00  0.000E+00  4.74593E+01  1.525E-01  2.000E+01  2.000E+04 -1.857E-01
   1   15    4     1     4    1.1107E+05 -3.6514E+03   1.1472E+05  0.000E+00  0.000E+00  0.000E+00  4.69851E+01  1.556E-01  2.000E+01  2.000E+04 -1.826E-01
   1   16    5     1     5    1.1472E+05 -4.0590E+03   1.1878E+05  0.000E+00  0.000E+00  0.000E+00  4.65110E+01  1.587E-01  2.000E+01  2.000E+04 -2.029E-01
   1   16    6     1     6    1.1878E+05 -3.1710E+03   1.2195E+05  0.000E+00  0.000E+00  0.000E+00  4.60367E+01  1.617E-01  2.000E+01  2.000E+04 -1.586E-01
   1   16    7     1     7    1.2195E+05 -3.2199E+03   1.2517E+05  0.000E+00  0.000E+00  0.000E+00  4.55620E+01  1.642E-01  2.000E+01  2.000E+04 -1.610E-01
   1   16    8     1     8    1.2517E+05 -3.2461E+03   1.2841E+05  0.000E+00  0.000E+00  0.000E+00  4.50872E+01  1.668E-01  2.000E+01  2.000E+04 -1.623E-01
   1   16    9     1     9    1.2841E+05 -3.2376E+03   1.3165E+05  0.000E+00  0.000E+00  0.000E+00  4.46125E+01  1.693E-01  2.000E+01  2.000E+04 -1.619E-01
   1   16   10     1    10    1.3165E+05 -3.2022E+03   1.3485E+05  0.000E+00  0.000E+00  0.000E+00  4.41378E+01  1.718E-01  2.000E+01  2.000E+04 -1.601E-01
   1   16   11     1    11    1.3485E+05 -3.1756E+03   1.3803E+05  0.000E+00  0.000E+00  0.000E+00  4.36629E+01  1.743E-01  2.000E+01  2.000E+04 -1.588E-01
   1   16   12     1    12    1.3803E+05 -4.3058E+03   1.4233E+05  0.000E+00  0.000E+00  0.000E+00  4.31885E+01  1.771E-01  2.000E+01  2.000E+04 -2.153E-01
   1   15   13     1    13    1.4233E+05 -3.7863E+03   1.4612E+05  0.000E+00  0.000E+00  0.000E+00  4.27143E+01  1.802E-01  2.000E+01  2.000E+04 -1.893E-01
   1   14   14     1    14    1.4612E+05 -3.6304E+03   1.4975E+05  0.000E+00  0.000E+00  0.000E+00  4.22398E+01  1.830E-01  2.000E+01  2.000E+04 -1.815E-01
   1   13   15     1    15    1.4975E+05 -3.5401E+03   1.5329E+05  0.000E+00  0.000E+00  0.000E+00  4.17652E+01  1.856E-01  2.000E+01  2.000E+04 -1.770E-01
   1   12   16     1    16    1.5329E+05 -3.6762E+03   1.5697E+05  0.000E+00  0.000E+00  0.000E+00  4.12905E+01  1.883E-01  2.000E+01  2.000E+04 -1.838E-01
   1   12   17     1    17    1.5697E+05 -2.2358E+03   1.5920E+05  0.000E+00  0.000E+00  0.000E+00  4.08154E+01  1.904E-01  2.000E+01  2.000E+04 -1.118E-01
   1   12   18     1    18    1.5920E+05 -1.9747E+03   1.6118E+05  0.000E+00  0.000E+00  0.000E+00  4.03396E+01  1.919E-01  2.000E+01  2.000E+04 -9.874E-02
   1   12   19     1    19    1.6118E+05 -2.1861E+03   1.6336E+05  0.000E+00  0.000E+00  0.000E+00  3.98639E+01  1.934E-01  2.000E+01  2.000E+04 -1.093E-01
   1   13   20     1    20    1.6336E+05 -2.0405E+03   1.6540E+05  0.000E+00  0.000E+00  0.000E+00  3.93881E+01  1.949E-01  2.000E+01  2.000E+04 -1.020E-01
   1   14   21     1    21    1.6540E+05 -2.1085E+03   1.6751E+05  0.000E+00  0.000E+00  0.000E+00  3.89123E+01  1.964E-01  2.000E+01  2.000E+04 -1.054E-01
   1   14   22     1    22    1.6751E+05  5.1926E+03   1.6232E+05  0.000E+00  0.000E+00  0.000E+00  3.84339E+01  1.953E-01  2.000E+01  2.000E+04  2.596E-01
   1    9   30     2     1    5.0000E+04 -2.2279E+03   5.2228E+04  0.000E+00  0.000E+00  0.000E+00  4.02424E+01  1.174E-01  2.000E+01  2.000E+04 -1.114E-01
   1    9   29     2     2    5.2228E+04 -2.4646E+03   5.4693E+04  0.000E+00  0.000E+00  0.000E+00  3.99956E+01  1.206E-01  2.000E+01  2.000E+04 -1.232E-01
   1    9   28     2     3    5.4693E+04 -2.6040E+03   5.7297E+04  0.000E+00  0.000E+00  0.000E+00  3.97490E+01  1.240E-01  2.000E+01  2.000E+04 -1.302E-01
   1    9   27     2     4    5.7297E+04 -3.9703E+03   6.1267E+04  0.000E+00  0.000E+00  0.000E+00  3.95033E+01  1.283E-01  2.000E+01  2.000E+04 -1.985E-01
   1   10   26     2     5    6.1267E+04 -1.8366E+03   6.3103E+04  0.000E+00  0.000E+00  0.000E+00  3.92571E+01  1.321E-01  2.000E+01  2.000E+04 -9.183E-02
   1   11   25     2     6    6.3103E+04 -9.9559E+02   6.4099E+04  0.000E+00  0.000E+00  0.000E+00  3.90089E+01  1.339E-01  2.000E+01  2.000E+04 -4.978E-02
   1   12   24     2     7    6.4099E+04 -5.1463E+02   6.4614E+04  0.000E+00  0.000E+00  0.000E+00  3.87598E+01  1.348E-01  2.000E+01  2.000E+04 -2.573E-02
   1   13   23     2     8    6.4614E+04 -2.1649E+02   6.4830E+04  0.000E+00  0.000E+00  0.000E+00  3.85103E+01  1.353E-01  2.000E+01  2.000E+04 -1.082E-02
   1   14   22     2     9    6.4830E+04  1.7008E+03   6.3129E+04  0.000E+00  0.000E+00  0.000E+00  3.82593E+01  1.343E-01  2.000E+01  2.000E+04  8.504E-02
   1   14   22     3     1    2.2545E+05 -8.4214E+03   2.3387E+05  0.000E+00  0.000E+00  0.000E+00  3.77532E+01  1.977E-01  2.000E+01  2.000E+04 -4.211E-01
   1   15   23     3     2    2.3387E+05 -3.1371E+03   2.3701E+05  0.000E+00  0.000E+00  0.000E+00  3.68673E+01  2.006E-01  2.000E+01  2.000E+04 -1.569E-01
   1   15   24     3     3    2.3701E+05 -2.1448E+03   2.3915E+05  0.000E+00  0.000E+00  0.000E+00  3.59798E+01  2.020E-01  2.000E+01  2.000E+04 -1.072E-01
   1   15   25     3     4    2.3915E+05 -2.0104E+03   2.4116E+05  0.000E+00  0.000E+00  0.000E+00  3.50919E+01  2.030E-01  2.000E+01  2.000E+04 -1.005E-01
   1   15   26     3     5    2.4116E+05 -2.3585E+03   2.4352E+05  0.000E+00  0.000E+00  0.000E+00  3.42042E+01  2.042E-01  2.000E+01  2.000E+04 -1.179E-01
   1   16   27     3     6    2.4352E+05 -3.3434E+03   2.4686E+05  0.000E+00  0.000E+00  0.000E+00  3.33167E+01  2.056E-01  2.000E+01  2.000E+04 -1.672E-01
   1   17   28     3     7    2.4686E+05 -4.1723E+03   2.5104E+05  0.000E+00  0.000E+00  0.000E+00  3.24297E+01  2.075E-01  2.000E+01  2.000E+04 -2.086E-01
   1   18   29     3     8    2.5104E+05 -5.8503E+03   2.5689E+05  0.000E+00  0.000E+00  0.000E+00  3.15433E+01  2.100E-01  2.000E+01  2.000E+04 -2.925E-01
   1   18   30     3     9    2.5689E+05 -4.8617E+03   2.6175E+05  0.000E+00  0.000E+00  0.000E+00  3.06571E+01  2.126E-01  2.000E+01  2.000E+04 -2.431E-01



1
              HEAD IN LAYER   1 AT END OF TIME STEP   1 IN STRESS PERIOD   12
  ---------------------------------------------------------------------------

          1      2      3      4      5      6      7      8      9     10
         11     12     13     14     15     16     17     18     19     20
         21     22     23     24     25     26     27     28     29     30
 .........................................................................
   1  ****** ****** ****** ****** ****** ****** ****** ****** ****** ******
      ****** ****** ****** ****** ****** ****** ****** ****** ****** ******
      ****** ****** ****** ****** ****** ****** ****** ****** ****** ******
   2  ****** ****** ****** ****** ****** ****** ****** ****** ****** ******
      ****** ****** ****** ****** ****** ****** ****** ****** ****** ******
      ****** ****** ****** ****** ****** ****** ****** ****** ****** ******
   3  ****** ****** ****** ****** ****** ****** ****** ****** ****** ******
      ****** ****** ****** ****** ****** ****** ****** ****** ****** ******
      ****** ****** ****** ****** ****** ****** ****** ****** ****** ******
   4  ****** ****** ****** ****** ****** ****** ****** ****** ****** ******
      ****** ****** ****** ****** ****** ****** ****** ****** ****** ******
      ****** ****** ****** ****** ****** ****** ****** ****** ****** ******
   5  ****** ****** ****** ****** ****** ****** ****** ****** ****** ******
      ****** ****** ****** ****** ****** ****** ****** ****** ****** ******
      ****** ****** ****** ****** ****** ****** ****** ****** ****** ******
   6  ****** ****** ****** ****** ****** ****** ****** ****** ****** ******
      ****** ****** ****** ****** ****** ****** ****** ****** ****** ******
      ****** ****** ****** ****** ****** ****** ****** ****** ****** ******
   7  ****** ****** ****** ****** ****** ****** ****** ****** ****** ******
      ****** ****** ****** ****** ****** ****** ****** ****** ****** ******
      ****** ****** ****** ****** ****** ****** ****** ****** ****** ******
   8  ****** ****** ****** ****** ****** ****** ****** ****** ****** ******
      ****** ****** ****** ****** ****** ****** ****** ****** ****** ******
      ****** ****** ****** ****** ****** ****** ****** ****** ****** ******
   9  ****** ****** ****** ****** ****** ****** ****** ****** ****** ******
      ****** ****** ****** ****** ****** ****** ****** ****** ****** ******
      ****** ****** ****** ****** ****** ****** ****** ****** ****** ******
  10  ****** ****** ****** ****** ****** ****** ****** ****** ****** ******
      ****** ****** ****** ****** ****** ****** ****** ****** ****** ******
      ****** ****** ****** ****** ****** ****** ****** ****** ****** ******
  11  ****** ****** ****** ****** ****** ****** ****** ****** ****** ******
      ****** ****** ****** ****** ****** ****** ****** ****** ****** ******
      ****** ****** ****** ****** ****** ****** ****** ****** ****** ******
  12  ****** ****** ****** ****** ****** ****** ****** ****** ****** ******
      ****** ****** ****** ****** ****** ****** ****** ****** ****** ******
      ****** ****** ****** ****** ****** ****** ****** ****** ****** ******
  13  ****** ****** ****** ****** ****** ****** ****** ****** ****** ******
      ****** ****** ****** ****** ****** ****** ****** ****** ****** ******
      ****** ****** ****** ****** ****** ****** ****** ****** ****** ******
  14  ****** ****** ****** ****** ****** ****** ****** ****** ****** ******
      ****** ****** ****** ****** ****** ****** ****** ****** ****** ******
      ****** ****** ****** ****** ****** ****** ****** ****** ****** ******
  15  ****** ****** ****** ****** ****** ****** ****** ****** ****** ******
      ****** ****** ****** ****** ****** ****** ****** ****** ****** ******
      ****** ****** ****** ****** ****** ****** ****** ****** ****** ******
  16  ****** ****** ****** ****** ****** ****** ****** ****** ****** ******
      ****** ****** ****** ****** ****** ****** ****** ****** ****** ******
      ****** ****** ****** ****** ****** ****** ****** ****** ****** ******
  17  ****** ****** ****** ****** ****** ****** ****** ****** ****** ******
      ****** ****** ****** ****** ****** ****** ****** ****** ****** ******
      ****** ****** ****** ****** ****** ****** ****** ****** ****** ******
  18  ****** ****** ****** ****** ****** ****** ****** ****** ****** ******
      ****** ****** ****** ****** ****** ****** ****** ****** ****** ******
      ****** ****** ****** ****** ****** ****** ****** ****** ****** ******
  19  ****** ****** ****** ****** ****** ****** ****** ****** ****** ******
      ****** ****** ****** ****** ****** ****** ****** ****** ****** ******
      ****** ****** ****** ****** ****** ****** ****** ****** ****** ******
  20  ****** ****** ****** ****** ****** ****** ****** ****** ****** ******
      ****** ****** ****** ****** ****** ****** ****** ****** ****** ******
      ****** ****** ****** ****** ****** ****** ****** ****** ****** ******
  21  ****** ****** ****** ****** ****** ****** ****** ****** ****** ******
      ****** ****** ****** ****** ****** ****** ****** ****** ****** ******
      ****** ****** ****** ****** ****** ****** ****** ****** ****** ******
  22  ****** ****** ****** ****** ****** ****** ****** ****** ****** ******
      ****** ****** ****** ****** ****** ****** ****** ****** ****** ******
      ****** ****** ****** ****** ****** ****** ****** ****** ****** ******
  23  ****** ****** ****** ****** ****** ****** ****** ****** ****** ******
      ****** ****** ****** ****** ****** ****** ****** ****** ****** ******
      ****** ****** ****** ****** ****** ****** ****** ****** ****** ******
  24  ****** ****** ****** ****** ****** ****** ****** ****** ****** ******
      ****** ****** ****** ****** ****** ****** ****** ****** ****** ******
      ****** ****** ****** ****** ****** ****** ****** ****** ****** ******
  25  ****** ****** ****** ****** ****** ****** ****** ****** ****** ******
      ****** ****** ****** ****** ****** ****** ****** ****** ****** ******
      ****** ****** ****** ****** ****** ****** ****** ****** ****** ******

 HEAD WILL BE SAVED ON UNIT   51 AT END OF TIME STEP    1, STRESS PERIOD   12
1
  VOLUMETRIC BUDGET FOR ENTIRE MODEL AT END OF TIME STEP    1, STRESS PERIOD  12
  ------------------------------------------------------------------------------

     CUMULATIVE VOLUMES      L**3       RATES FOR THIS TIME STEP      L**3/T
     ------------------                 ------------------------

           IN:                                      IN:
           ---                                      ---
             STORAGE =    28659419.3484               STORAGE =           0.0000
       CONSTANT HEAD =   224535091.4078         CONSTANT HEAD =      199770.2349
               WELLS =           0.0000                 WELLS =           0.0000
            RECHARGE =    26413200.0000              RECHARGE =       27600.0000
      STREAM LEAKAGE =     8020670.9445        STREAM LEAKAGE =        6893.3820

            TOTAL IN =   287628381.7008              TOTAL IN =      234263.6169

          OUT:                                     OUT:
          ----                                     ----
             STORAGE =     4227720.3489               STORAGE =        3817.5500
       CONSTANT HEAD =           0.0000         CONSTANT HEAD =           0.0000
               WELLS =   144727179.9046                 WELLS =      111803.9651
            RECHARGE =           0.0000              RECHARGE =           0.0000
      STREAM LEAKAGE =   138673482.3838        STREAM LEAKAGE =      118642.1010

           TOTAL OUT =   287628382.6373             TOTAL OUT =      234263.6160

            IN - OUT =          -0.9366              IN - OUT =       8.4169E-04

 PERCENT DISCREPANCY =          -0.00     PERCENT DISCREPANCY =           0.00






         TIME SUMMARY AT END OF TIME STEP    1 IN STRESS PERIOD   12
                    SECONDS     MINUTES      HOURS       DAYS        YEARS
                    -----------------------------------------------------------
   TIME STEP LENGTH 7.86240E+06 1.31040E+05  2184.0      91.000     0.24914    
 STRESS PERIOD TIME 7.86240E+06 1.31040E+05  2184.0      91.000     0.24914    
         TOTAL TIME 9.46080E+07 1.57680E+06  26280.      1095.0      2.9979    
1

 Run end date and time (yyyy/mm/dd hh:mm:ss): 2018/10/08 20:32:27
 Elapsed run time:  0.094 Seconds

