                                  MODFLOW-2005     
      U.S. GEOLOGICAL SURVEY MODULAR FINITE-DIFFERENCE GROUND-WATER FLOW MODEL
                            VERSION 1.11.00 8/8/2013

 LIST FILE: supply2.lst
                         UNIT   10

 OPENING ..\data\supply.dis
 FILE TYPE:DIS   UNIT   11   STATUS:OLD    
 FORMAT:FORMATTED              ACCESS:SEQUENTIAL          

 OPENING ..\data\supply.ba6
 FILE TYPE:BAS6   UNIT   12   STATUS:OLD    
 FORMAT:FORMATTED              ACCESS:SEQUENTIAL          

 OPENING ..\data\supply.bc6
 FILE TYPE:BCF6   UNIT   13   STATUS:OLD    
 FORMAT:FORMATTED              ACCESS:SEQUENTIAL          

 OPENING ..\data\supply.rch
 FILE TYPE:RCH   UNIT   15   STATUS:OLD    
 FORMAT:FORMATTED              ACCESS:SEQUENTIAL          

 OPENING ..\data\supply2.sfr
 FILE TYPE:SFR   UNIT   16   STATUS:OLD    
 FORMAT:FORMATTED              ACCESS:SEQUENTIAL          

 OPENING ..\data\supply.oc
 FILE TYPE:OC   UNIT   17   STATUS:OLD    
 FORMAT:FORMATTED              ACCESS:SEQUENTIAL          

 OPENING ..\data\supply.pcg
 FILE TYPE:PCG   UNIT   18   STATUS:OLD    
 FORMAT:FORMATTED              ACCESS:SEQUENTIAL          

 OPENING supply2.wel
 FILE TYPE:WEL   UNIT   19   STATUS:OLD    
 FORMAT:FORMATTED              ACCESS:SEQUENTIAL          

 OPENING supply2sf.cbc
 FILE TYPE:DATA(BINARY)   UNIT   50   STATUS:UNKNOWN
 FORMAT:BINARY                 ACCESS:SEQUENTIAL          

 OPENING supply2hd.bhd
 FILE TYPE:DATA(BINARY)   UNIT   51   STATUS:UNKNOWN
 FORMAT:BINARY                 ACCESS:SEQUENTIAL          

 BAS -- BASIC PACKAGE, VERSION 7, 5/2/2005 INPUT READ FROM UNIT   12
 
 MODFLOW was compiled using uniform precision
 Precision of REAL and DOUBLE PRECISION variables:          15

 DISCRETIZATION INPUT DATA READ FROM UNIT   11
    1 LAYERS        25 ROWS        30 COLUMNS
   12 STRESS PERIOD(S) IN SIMULATION
 MODEL TIME UNIT IS DAYS
 MODEL LENGTH UNIT IS UNDEFINED
  Confining bed flag for each layer:
   0

                     DELR =   200.000    

                     DELC =   200.000    

 TOP ELEVATION OF LAYER 1 =  100.0000    

   MODEL LAYER BOTTOM EL. =   0.00000     FOR LAYER   1


 STRESS PERIOD     LENGTH       TIME STEPS     MULTIPLIER FOR DELT    SS FLAG
 ----------------------------------------------------------------------------
        1         92.00000          1                    1.500         TR
        2         91.00000          1                    1.500         TR
        3         91.00000          1                    1.500         TR
        4         91.00000          1                    1.500         TR
        5         92.00000          1                    1.500         TR
        6         91.00000          1                    1.500         TR
        7         91.00000          1                    1.500         TR
        8         91.00000          1                    1.500         TR
        9         92.00000          1                    1.500         TR
       10         91.00000          1                    1.500         TR
       11         91.00000          1                    1.500         TR
       12         91.00000          1                    1.500         TR

 TRANSIENT SIMULATION



 
 #MODOFC transient water supply sample problem                                   
 #                                                                               
 THE FREE FORMAT OPTION HAS BEEN SELECTED



                     BOUNDARY ARRAY FOR LAYER   1
 READING ON UNIT   12 WITH FORMAT: (20I4)              

 AQUIFER HEAD WILL BE SET TO   0.0000     AT ALL NO-FLOW NODES (IBOUND=0).



                       INITIAL HEAD FOR LAYER   1
 READING ON UNIT   12 WITH FORMAT: (10F13.0)           

 OUTPUT CONTROL IS SPECIFIED ONLY AT TIME STEPS FOR WHICH OUTPUT IS DESIRED
 COMPACT CELL-BY-CELL BUDGET FILES WILL BE WRITTEN
 HEAD PRINT FORMAT CODE IS  18    DRAWDOWN PRINT FORMAT CODE IS   0
 HEADS WILL BE SAVED ON UNIT   51    DRAWDOWNS WILL BE SAVED ON UNIT    0

 BCF -- BLOCK-CENTERED FLOW PACKAGE, VERSION 7, 5/2/2005
         INPUT READ FROM UNIT 13
 TRANSIENT SIMULATION
 HEAD AT CELLS THAT CONVERT TO DRY=   0.0000    
 WETTING CAPABILITY IS NOT ACTIVE
      LAYER  LAYER-TYPE CODE     INTERBLOCK T
      --------------------------------------------
         1            0          0 -- HARMONIC    

 COLUMN TO ROW ANISOTROPY =  1.000000    

     PRIMARY STORAGE COEF =  5.000000E-02 FOR LAYER   1

     TRANSMIS. ALONG ROWS =   500.000     FOR LAYER   1

 WEL -- WELL PACKAGE, VERSION 7, 5/2/2005 INPUT READ FROM UNIT   19
 # Well package input file written by MMProc
 No named parameters
 MAXIMUM OF      6 ACTIVE WELLS AT ONE TIME


     0 Well parameters

 RCH -- RECHARGE PACKAGE, VERSION 7, 5/2/2005 INPUT READ FROM UNIT   15
 No named parameters
 OPTION 1 -- RECHARGE TO TOP LAYER


     0 Recharge parameters

 SFR7 -- STREAMFLOW ROUTING PACKAGE, VERSION 1.0.7, 2013-01-15
         INPUT READ FROM UNIT  16
 #  Supply2 test problem for GWM-VI
 #  The eighth entry in the first data line is ISTCB2 -
 #    Setting this to a negative number indicates that
 #    streamflows out of the reach will be saved to a
 #    binary file.  The absolute value of ISTCB2 is the
 #    unit to which unformatted flows will be written.
 #
 No named parameters
 Segment information will not be 
 read by reach
 No named parameters
 No specifed inflow files


 NUMBER OF STREAM REACHES IS   40

 NUMBER OF STREAM SEGMENTS IS    3

 NUMBER OF STREAM PARAMETERS IS    0

 NUMBER OF STREAM SEGMENTS DEFINED USING PARAMETERS IS              0

 MAXIMUM ERROR FOR STREAM LEAKAGE RATES IS  1.00E-04

 CONSTANT FOR MANNINGS EQUATION IS  1.2839E+05





   STREAM NETWORK DESCRIPTION: 

   LAYER    ROW    COL   SEGMENT   REACH     LENGTH
                          NUMBER   NUMBER    IN CELL        
   --------------------------------------------------
      1     13      1       1        1    2.0000E+02
      1     13      2       1        2    2.0000E+02
      1     14      3       1        3    2.0000E+02
      1     15      4       1        4    2.0000E+02
      1     16      5       1        5    2.0000E+02
      1     16      6       1        6    2.0000E+02
      1     16      7       1        7    2.0000E+02
      1     16      8       1        8    2.0000E+02
      1     16      9       1        9    2.0000E+02
      1     16     10       1       10    2.0000E+02
      1     16     11       1       11    2.0000E+02
      1     16     12       1       12    2.0000E+02
      1     15     13       1       13    2.0000E+02
      1     14     14       1       14    2.0000E+02
      1     13     15       1       15    2.0000E+02
      1     12     16       1       16    2.0000E+02
      1     12     17       1       17    2.0000E+02
      1     12     18       1       18    2.0000E+02
      1     12     19       1       19    2.0000E+02
      1     13     20       1       20    2.0000E+02
      1     14     21       1       21    2.0000E+02
      1     14     22       1       22    2.0000E+02
      1      9     30       2        1    2.0000E+02
      1      9     29       2        2    2.0000E+02
      1      9     28       2        3    2.0000E+02
      1      9     27       2        4    2.0000E+02
      1     10     26       2        5    2.0000E+02
      1     11     25       2        6    2.0000E+02
      1     12     24       2        7    2.0000E+02
      1     13     23       2        8    2.0000E+02
      1     14     22       2        9    2.0000E+02
      1     14     22       3        1    2.0000E+02
      1     15     23       3        2    2.0000E+02
      1     15     24       3        3    2.0000E+02
      1     15     25       3        4    2.0000E+02
      1     15     26       3        5    2.0000E+02
      1     16     27       3        6    2.0000E+02
      1     17     28       3        7    2.0000E+02
      1     18     29       3        8    2.0000E+02
      1     18     30       3        9    2.0000E+02




 PCG -- CONJUGATE-GRADIENT SOLUTION PACKAGE, VERSION 7, 5/2/2005
 MAXIMUM OF    500 CALLS OF SOLUTION ROUTINE
 MAXIMUM OF      5 INTERNAL ITERATIONS PER CALL TO SOLUTION ROUTINE
 MATRIX PRECONDITIONING TYPE :    1



                                    SOLUTION BY THE CONJUGATE-GRADIENT METHOD
                                   -------------------------------------------
                    MAXIMUM NUMBER OF CALLS TO PCG ROUTINE =      500
                        MAXIMUM ITERATIONS PER CALL TO PCG =        5
                               MATRIX PRECONDITIONING TYPE =        1
        RELAXATION FACTOR (ONLY USED WITH PRECOND. TYPE 1) =    0.10000E+01
 PARAMETER OF POLYNOMIAL PRECOND. = 2 (2) OR IS CALCULATED :        0
                         HEAD CHANGE CRITERION FOR CLOSURE =    0.10000E-05
                     RESIDUAL CHANGE CRITERION FOR CLOSURE =    0.10000E+01
            PCG HEAD AND RESIDUAL CHANGE PRINTOUT INTERVAL =        1
     PRINTING FROM SOLVER IS LIMITED(1) OR SUPPRESSED (>1) =        1
                            STEADY-STATE DAMPING PARAMETER =    0.10000E+01
                               TRANSIENT DAMPING PARAMETER =    0.10000E+01
1
                            STRESS PERIOD NO.    1, LENGTH =   92.00000    
                            -----------------------------------------------

                              NUMBER OF TIME STEPS =     1

                               MULTIPLIER FOR DELT =     1.500

                            INITIAL TIME STEP SIZE =   92.00000    

 WELL NO.  LAYER   ROW   COL   STRESS RATE         
 --------------------------------------------------
      1      1     18     11     -0.3279E+05
      2      1     23     22     -0.3365E+05
      3      1     23     15     -0.3752E+05

      3 WELLS

                 RECHARGE =  5.000000E-04



 CLASSIFICATION & COUNT OF STREAM SEGMENTS BASED ON SOURCE OF INFLOW:

                HEADWATER     DIVERSION     RECEIVES TRIBUTARY FLOW
                ---------     ---------     -----------------------
                     2              0               1



                    INPUT DATA FOR EACH STREAM SEGMENT
 ---------------------------------------------------------------------------------------------

 SEGMENT    SEG.     INFLOW   OVERLAND   STREAM    STREAM   ICALC  OUTFLOW  DIVERSION PRIORITY
    NO.    LENGTH     RATE     RUNOFF      ET       PPT.    METH.  TO SEG.  FROM SEG.    NO.

      1  4.400E+03 1.000E+05 0.000E+00 0.000E+00 0.000E+00    1        3        0        0
      2  1.800E+03 5.000E+04 0.000E+00 0.000E+00 0.000E+00    1        3        0        0
      3  1.800E+03 0.000E+00 0.000E+00 0.000E+00 0.000E+00    1        0        0        0


         STREAMBED PROPERTIES AND STREAM DIMENSIONS

 SEGMENT     BED HYD. COND.      BED THICKNESS     ELEV.-TOP OF BED     WIDTH OF STREAM     DEPTH OF STREAM    STREAM ROUGHNESS
    No.     UPPER     LOWER     UPPER     LOWER     UPPER     LOWER     UPPER     LOWER     UPPER     LOWER   CHANNEL      BANK

     1  5.000E+00 5.000E+00 1.000E+00 1.000E+00 4.850E+01 3.800E+01 2.000E+01 2.000E+01                     5.000E-02
     2  5.000E+00 5.000E+00 1.000E+00 1.000E+00 4.025E+01 3.800E+01 2.000E+01 2.000E+01                     5.000E-02
     3  5.000E+00 5.000E+00 1.000E+00 1.000E+00 3.800E+01 3.000E+01 2.000E+01 2.000E+01                     5.000E-02



 
 SOLVING FOR HEAD 


     9 CALLS TO PCG ROUTINE FOR TIME STEP   1 IN STRESS PERIOD    1
    36 TOTAL ITERATIONS

 OUTPUT CONTROL FOR STRESS PERIOD    1   TIME STEP    1
    SAVE BUDGET
    SAVE HEAD FOR ALL LAYERS
    PRINT HEAD FOR ALL LAYERS
 UBDSV2 SAVING "STREAMFLOW OUT  " ON UNIT  50 AT TIME STEP  1, STRESS PERIOD   1



 STREAM LISTING     PERIOD      1   STEP        1

 LAYER ROW COL. STREAM  RCH.  FLOW INTO     FLOW TO   FLOW OUT OF   OVRLND.     DIRECT     STREAM       STREAM     STREAM     STREAM   STREAMBED  STREAMBED
                SEG.NO.  NO.  STRM. RCH.    AQUIFER    STRM. RCH.    RUNOFF     PRECIP       ET          HEAD       DEPTH      WIDTH   CONDCTNC.   GRADIENT

   1   13    1     1     1    1.0000E+05 -5.7281E+03   1.0573E+05  0.000E+00  0.000E+00  0.000E+00  4.84085E+01  1.471E-01  2.000E+01  2.000E+04 -2.864E-01
   1   13    2     1     2    1.0573E+05 -8.5803E+03   1.1431E+05  0.000E+00  0.000E+00  0.000E+00  4.79373E+01  1.532E-01  2.000E+01  2.000E+04 -4.290E-01
   1   14    3     1     3    1.1431E+05 -7.8175E+03   1.2213E+05  0.000E+00  0.000E+00  0.000E+00  4.74667E+01  1.599E-01  2.000E+01  2.000E+04 -3.909E-01
   1   15    4     1     4    1.2213E+05 -7.5824E+03   1.2971E+05  0.000E+00  0.000E+00  0.000E+00  4.69956E+01  1.661E-01  2.000E+01  2.000E+04 -3.791E-01
   1   16    5     1     5    1.2971E+05 -7.1296E+03   1.3684E+05  0.000E+00  0.000E+00  0.000E+00  4.65241E+01  1.719E-01  2.000E+01  2.000E+04 -3.565E-01
   1   16    6     1     6    1.3684E+05 -5.5575E+03   1.4240E+05  0.000E+00  0.000E+00  0.000E+00  4.60517E+01  1.767E-01  2.000E+01  2.000E+04 -2.779E-01
   1   16    7     1     7    1.4240E+05 -5.4232E+03   1.4782E+05  0.000E+00  0.000E+00  0.000E+00  4.55786E+01  1.809E-01  2.000E+01  2.000E+04 -2.712E-01
   1   16    8     1     8    1.4782E+05 -5.0198E+03   1.5284E+05  0.000E+00  0.000E+00  0.000E+00  4.51052E+01  1.847E-01  2.000E+01  2.000E+04 -2.510E-01
   1   16    9     1     9    1.5284E+05 -4.1648E+03   1.5700E+05  0.000E+00  0.000E+00  0.000E+00  4.46313E+01  1.881E-01  2.000E+01  2.000E+04 -2.082E-01
   1   16   10     1    10    1.5700E+05 -2.6449E+03   1.5965E+05  0.000E+00  0.000E+00  0.000E+00  4.41565E+01  1.906E-01  2.000E+01  2.000E+04 -1.322E-01
   1   16   11     1    11    1.5965E+05 -7.1696E+02   1.6037E+05  0.000E+00  0.000E+00  0.000E+00  4.36804E+01  1.918E-01  2.000E+01  2.000E+04 -3.585E-02
   1   16   12     1    12    1.6037E+05 -3.0279E+03   1.6339E+05  0.000E+00  0.000E+00  0.000E+00  4.32045E+01  1.931E-01  2.000E+01  2.000E+04 -1.514E-01
   1   15   13     1    13    1.6339E+05 -6.5888E+03   1.6998E+05  0.000E+00  0.000E+00  0.000E+00  4.27306E+01  1.965E-01  2.000E+01  2.000E+04 -3.294E-01
   1   14   14     1    14    1.6998E+05 -7.6397E+03   1.7762E+05  0.000E+00  0.000E+00  0.000E+00  4.22584E+01  2.015E-01  2.000E+01  2.000E+04 -3.820E-01
   1   13   15     1    15    1.7762E+05 -8.2379E+03   1.8586E+05  0.000E+00  0.000E+00  0.000E+00  4.17866E+01  2.070E-01  2.000E+01  2.000E+04 -4.119E-01
   1   12   16     1    16    1.8586E+05 -9.2997E+03   1.9516E+05  0.000E+00  0.000E+00  0.000E+00  4.13152E+01  2.129E-01  2.000E+01  2.000E+04 -4.650E-01
   1   12   17     1    17    1.9516E+05 -6.4761E+03   2.0164E+05  0.000E+00  0.000E+00  0.000E+00  4.08432E+01  2.182E-01  2.000E+01  2.000E+04 -3.238E-01
   1   12   18     1    18    2.0164E+05 -6.3115E+03   2.0795E+05  0.000E+00  0.000E+00  0.000E+00  4.03701E+01  2.224E-01  2.000E+01  2.000E+04 -3.156E-01
   1   12   19     1    19    2.0795E+05 -8.0409E+03   2.1599E+05  0.000E+00  0.000E+00  0.000E+00  3.98975E+01  2.270E-01  2.000E+01  2.000E+04 -4.020E-01
   1   13   20     1    20    2.1599E+05 -6.4138E+03   2.2240E+05  0.000E+00  0.000E+00  0.000E+00  3.94248E+01  2.316E-01  2.000E+01  2.000E+04 -3.207E-01
   1   14   21     1    21    2.2240E+05 -5.0798E+03   2.2748E+05  0.000E+00  0.000E+00  0.000E+00  3.89512E+01  2.353E-01  2.000E+01  2.000E+04 -2.540E-01
   1   14   22     1    22    2.2748E+05  4.3237E+03   2.2316E+05  0.000E+00  0.000E+00  0.000E+00  3.84741E+01  2.355E-01  2.000E+01  2.000E+04  2.162E-01
   1    9   30     2     1    5.0000E+04 -5.5707E+03   5.5571E+04  0.000E+00  0.000E+00  0.000E+00  4.02447E+01  1.197E-01  2.000E+01  2.000E+04 -2.785E-01
   1    9   29     2     2    5.5571E+04 -5.8698E+03   6.1440E+04  0.000E+00  0.000E+00  0.000E+00  4.00023E+01  1.273E-01  2.000E+01  2.000E+04 -2.935E-01
   1    9   28     2     3    6.1440E+04 -6.1940E+03   6.7634E+04  0.000E+00  0.000E+00  0.000E+00  3.97600E+01  1.350E-01  2.000E+01  2.000E+04 -3.097E-01
   1    9   27     2     4    6.7634E+04 -9.5871E+03   7.7222E+04  0.000E+00  0.000E+00  0.000E+00  3.95197E+01  1.447E-01  2.000E+01  2.000E+04 -4.794E-01
   1   10   26     2     5    7.7222E+04 -7.7172E+03   8.4939E+04  0.000E+00  0.000E+00  0.000E+00  3.92799E+01  1.549E-01  2.000E+01  2.000E+04 -3.859E-01
   1   11   25     2     6    8.4939E+04 -6.5907E+03   9.1529E+04  0.000E+00  0.000E+00  0.000E+00  3.90379E+01  1.629E-01  2.000E+01  2.000E+04 -3.295E-01
   1   12   24     2     7    9.1529E+04 -5.3300E+03   9.6860E+04  0.000E+00  0.000E+00  0.000E+00  3.87944E+01  1.694E-01  2.000E+01  2.000E+04 -2.665E-01
   1   13   23     2     8    9.6860E+04 -3.7790E+03   1.0064E+05  0.000E+00  0.000E+00  0.000E+00  3.85493E+01  1.743E-01  2.000E+01  2.000E+04 -1.889E-01
   1   14   22     2     9    1.0064E+05  8.5767E+02   9.9781E+04  0.000E+00  0.000E+00  0.000E+00  3.83008E+01  1.758E-01  2.000E+01  2.000E+04  4.288E-02
   1   14   22     3     1    3.2294E+05 -9.1562E+03   3.3209E+05  0.000E+00  0.000E+00  0.000E+00  3.78001E+01  2.446E-01  2.000E+01  2.000E+04 -4.578E-01
   1   15   23     3     2    3.3209E+05 -5.3316E+03   3.3743E+05  0.000E+00  0.000E+00  0.000E+00  3.69145E+01  2.478E-01  2.000E+01  2.000E+04 -2.666E-01
   1   15   24     3     3    3.3743E+05 -3.9970E+03   3.4142E+05  0.000E+00  0.000E+00  0.000E+00  3.60277E+01  2.499E-01  2.000E+01  2.000E+04 -1.998E-01
   1   15   25     3     4    3.4142E+05 -4.0887E+03   3.4551E+05  0.000E+00  0.000E+00  0.000E+00  3.51406E+01  2.517E-01  2.000E+01  2.000E+04 -2.044E-01
   1   15   26     3     5    3.4551E+05 -5.5078E+03   3.5102E+05  0.000E+00  0.000E+00  0.000E+00  3.42538E+01  2.538E-01  2.000E+01  2.000E+04 -2.754E-01
   1   16   27     3     6    3.5102E+05 -6.9382E+03   3.5796E+05  0.000E+00  0.000E+00  0.000E+00  3.33676E+01  2.565E-01  2.000E+01  2.000E+04 -3.469E-01
   1   17   28     3     7    3.5796E+05 -7.6853E+03   3.6564E+05  0.000E+00  0.000E+00  0.000E+00  3.24819E+01  2.596E-01  2.000E+01  2.000E+04 -3.843E-01
   1   18   29     3     8    3.6564E+05 -8.7094E+03   3.7435E+05  0.000E+00  0.000E+00  0.000E+00  3.15965E+01  2.632E-01  2.000E+01  2.000E+04 -4.355E-01
   1   18   30     3     9    3.7435E+05 -7.3614E+03   3.8171E+05  0.000E+00  0.000E+00  0.000E+00  3.07110E+01  2.666E-01  2.000E+01  2.000E+04 -3.681E-01



1
              HEAD IN LAYER   1 AT END OF TIME STEP   1 IN STRESS PERIOD    1
  ---------------------------------------------------------------------------

          1      2      3      4      5      6      7      8      9     10
         11     12     13     14     15     16     17     18     19     20
         21     22     23     24     25     26     27     28     29     30
 .........................................................................
   1  ****** ****** ****** ****** ****** ****** ****** ****** ****** ******
      ****** ****** ****** ****** ****** ****** ****** ****** ****** ******
      ****** ****** ****** ****** ****** ****** ****** ****** ****** ******
   2  ****** ****** ****** ****** ****** ****** ****** ****** ****** ******
      ****** ****** ****** ****** ****** ****** ****** ****** ****** ******
      ****** ****** ****** ****** ****** ****** ****** ****** ****** ******
   3  ****** ****** ****** ****** ****** ****** ****** ****** ****** ******
      ****** ****** ****** ****** ****** ****** ****** ****** ****** ******
      ****** ****** ****** ****** ****** ****** ****** ****** ****** ******
   4  ****** ****** ****** ****** ****** ****** ****** ****** ****** ******
      ****** ****** ****** ****** ****** ****** ****** ****** ****** ******
      ****** ****** ****** ****** ****** ****** ****** ****** ****** ******
   5  ****** ****** ****** ****** ****** ****** ****** ****** ****** ******
      ****** ****** ****** ****** ****** ****** ****** ****** ****** ******
      ****** ****** ****** ****** ****** ****** ****** ****** ****** ******
   6  ****** ****** ****** ****** ****** ****** ****** ****** ****** ******
      ****** ****** ****** ****** ****** ****** ****** ****** ****** ******
      ****** ****** ****** ****** ****** ****** ****** ****** ****** ******
   7  ****** ****** ****** ****** ****** ****** ****** ****** ****** ******
      ****** ****** ****** ****** ****** ****** ****** ****** ****** ******
      ****** ****** ****** ****** ****** ****** ****** ****** ****** ******
   8  ****** ****** ****** ****** ****** ****** ****** ****** ****** ******
      ****** ****** ****** ****** ****** ****** ****** ****** ****** ******
      ****** ****** ****** ****** ****** ****** ****** ****** ****** ******
   9  ****** ****** ****** ****** ****** ****** ****** ****** ****** ******
      ****** ****** ****** ****** ****** ****** ****** ****** ****** ******
      ****** ****** ****** ****** ****** ****** ****** ****** ****** ******
  10  ****** ****** ****** ****** ****** ****** ****** ****** ****** ******
      ****** ****** ****** ****** ****** ****** ****** ****** ****** ******
      ****** ****** ****** ****** ****** ****** ****** ****** ****** ******
  11  ****** ****** ****** ****** ****** ****** ****** ****** ****** ******
      ****** ****** ****** ****** ****** ****** ****** ****** ****** ******
      ****** ****** ****** ****** ****** ****** ****** ****** ****** ******
  12  ****** ****** ****** ****** ****** ****** ****** ****** ****** ******
      ****** ****** ****** ****** ****** ****** ****** ****** ****** ******
      ****** ****** ****** ****** ****** ****** ****** ****** ****** ******
  13  ****** ****** ****** ****** ****** ****** ****** ****** ****** ******
      ****** ****** ****** ****** ****** ****** ****** ****** ****** ******
      ****** ****** ****** ****** ****** ****** ****** ****** ****** ******
  14  ****** ****** ****** ****** ****** ****** ****** ****** ****** ******
      ****** ****** ****** ****** ****** ****** ****** ****** ****** ******
      ****** ****** ****** ****** ****** ****** ****** ****** ****** ******
  15  ****** ****** ****** ****** ****** ****** ****** ****** ****** ******
      ****** ****** ****** ****** ****** ****** ****** ****** ****** ******
      ****** ****** ****** ****** ****** ****** ****** ****** ****** ******
  16  ****** ****** ****** ****** ****** ****** ****** ****** ****** ******
      ****** ****** ****** ****** ****** ****** ****** ****** ****** ******
      ****** ****** ****** ****** ****** ****** ****** ****** ****** ******
  17  ****** ****** ****** ****** ****** ****** ****** ****** ****** ******
      ****** ****** ****** ****** ****** ****** ****** ****** ****** ******
      ****** ****** ****** ****** ****** ****** ****** ****** ****** ******
  18  ****** ****** ****** ****** ****** ****** ****** ****** ****** ******
      ****** ****** ****** ****** ****** ****** ****** ****** ****** ******
      ****** ****** ****** ****** ****** ****** ****** ****** ****** ******
  19  ****** ****** ****** ****** ****** ****** ****** ****** ****** ******
      ****** ****** ****** ****** ****** ****** ****** ****** ****** ******
      ****** ****** ****** ****** ****** ****** ****** ****** ****** ******
  20  ****** ****** ****** ****** ****** ****** ****** ****** ****** ******
      ****** ****** ****** ****** ****** ****** ****** ****** ****** ******
      ****** ****** ****** ****** ****** ****** ****** ****** ****** ******
  21  ****** ****** ****** ****** ****** ****** ****** ****** ****** ******
      ****** ****** ****** ****** ****** ****** ****** ****** ****** ******
      ****** ****** ****** ****** ****** ****** ****** ****** ****** ******
  22  ****** ****** ****** ****** ****** ****** ****** ****** ****** ******
      ****** ****** ****** ****** ****** ****** ****** ****** ****** ******
      ****** ****** ****** ****** ****** ****** ****** ****** ****** ******
  23  ****** ****** ****** ****** ****** ****** ****** ****** ****** ******
      ****** ****** ****** ****** ****** ****** ****** ****** ****** ******
      ****** ****** ****** ****** ****** ****** ****** ****** ****** ******
  24  ****** ****** ****** ****** ****** ****** ****** ****** ****** ******
      ****** ****** ****** ****** ****** ****** ****** ****** ****** ******
      ****** ****** ****** ****** ****** ****** ****** ****** ****** ******
  25  ****** ****** ****** ****** ****** ****** ****** ****** ****** ******
      ****** ****** ****** ****** ****** ****** ****** ****** ****** ******
      ****** ****** ****** ****** ****** ****** ****** ****** ****** ******

 HEAD WILL BE SAVED ON UNIT   51 AT END OF TIME STEP    1, STRESS PERIOD    1
1
  VOLUMETRIC BUDGET FOR ENTIRE MODEL AT END OF TIME STEP    1, STRESS PERIOD   1
  ------------------------------------------------------------------------------

     CUMULATIVE VOLUMES      L**3       RATES FOR THIS TIME STEP      L**3/T
     ------------------                 ------------------------

           IN:                                      IN:
           ---                                      ---
             STORAGE =    17682948.3960               STORAGE =      192205.9608
       CONSTANT HEAD =    11930212.2749         CONSTANT HEAD =      129676.2204
               WELLS =           0.0000                 WELLS =           0.0000
            RECHARGE =     1269600.0000              RECHARGE =       13800.0000
      STREAM LEAKAGE =      476688.4419        STREAM LEAKAGE =        5181.3961

            TOTAL IN =    31359449.1128              TOTAL IN =      340863.5773

          OUT:                                     OUT:
          ----                                     ----
             STORAGE =           0.0000               STORAGE =           0.0000
       CONSTANT HEAD =           0.0000         CONSTANT HEAD =           0.0000
               WELLS =     9565062.7473                 WELLS =      103968.0733
            RECHARGE =           0.0000              RECHARGE =           0.0000
      STREAM LEAKAGE =    21794386.5247        STREAM LEAKAGE =      236895.5057

           TOTAL OUT =    31359449.2720             TOTAL OUT =      340863.5790

            IN - OUT =          -0.1592              IN - OUT =      -1.7300E-03

 PERCENT DISCREPANCY =          -0.00     PERCENT DISCREPANCY =          -0.00






         TIME SUMMARY AT END OF TIME STEP    1 IN STRESS PERIOD    1
                    SECONDS     MINUTES      HOURS       DAYS        YEARS
                    -----------------------------------------------------------
   TIME STEP LENGTH 7.94880E+06 1.32480E+05  2208.0      92.000     0.25188    
 STRESS PERIOD TIME 7.94880E+06 1.32480E+05  2208.0      92.000     0.25188    
         TOTAL TIME 7.94880E+06 1.32480E+05  2208.0      92.000     0.25188    
1
1
                            STRESS PERIOD NO.    2, LENGTH =   91.00000    
                            -----------------------------------------------

                              NUMBER OF TIME STEPS =     1

                               MULTIPLIER FOR DELT =     1.500

                            INITIAL TIME STEP SIZE =   91.00000    

 WELL NO.  LAYER   ROW   COL   STRESS RATE         
 --------------------------------------------------
      1      1     18     11     -0.3279E+05
      2      1     23     22     -0.3365E+05
      3      1     23     15     -0.3752E+05

      3 WELLS

                 RECHARGE =  2.000000E-03

 REUSING STREAM SEGMENT DATA FROM LAST STRESS PERIOD
 
 SOLVING FOR HEAD 


     7 CALLS TO PCG ROUTINE FOR TIME STEP   1 IN STRESS PERIOD    2
    27 TOTAL ITERATIONS

 OUTPUT CONTROL FOR STRESS PERIOD    2   TIME STEP    1
    SAVE BUDGET
    SAVE HEAD FOR ALL LAYERS
    PRINT HEAD FOR ALL LAYERS
 UBDSV2 SAVING "STREAMFLOW OUT  " ON UNIT  50 AT TIME STEP  1, STRESS PERIOD   2



 STREAM LISTING     PERIOD      2   STEP        1

 LAYER ROW COL. STREAM  RCH.  FLOW INTO     FLOW TO   FLOW OUT OF   OVRLND.     DIRECT     STREAM       STREAM     STREAM     STREAM   STREAMBED  STREAMBED
                SEG.NO.  NO.  STRM. RCH.    AQUIFER    STRM. RCH.    RUNOFF     PRECIP       ET          HEAD       DEPTH      WIDTH   CONDCTNC.   GRADIENT

   1   13    1     1     1    1.0000E+05 -3.7968E+03   1.0380E+05  0.000E+00  0.000E+00  0.000E+00  4.84077E+01  1.463E-01  2.000E+01  2.000E+04 -1.898E-01
   1   13    2     1     2    1.0380E+05 -6.1560E+03   1.0995E+05  0.000E+00  0.000E+00  0.000E+00  4.79346E+01  1.505E-01  2.000E+01  2.000E+04 -3.078E-01
   1   14    3     1     3    1.0995E+05 -5.0526E+03   1.1501E+05  0.000E+00  0.000E+00  0.000E+00  4.74620E+01  1.552E-01  2.000E+01  2.000E+04 -2.526E-01
   1   15    4     1     4    1.1501E+05 -4.7993E+03   1.1980E+05  0.000E+00  0.000E+00  0.000E+00  4.69888E+01  1.593E-01  2.000E+01  2.000E+04 -2.400E-01
   1   16    5     1     5    1.1980E+05 -4.6285E+03   1.2443E+05  0.000E+00  0.000E+00  0.000E+00  4.65154E+01  1.631E-01  2.000E+01  2.000E+04 -2.314E-01
   1   16    6     1     6    1.2443E+05 -3.4897E+03   1.2792E+05  0.000E+00  0.000E+00  0.000E+00  4.60413E+01  1.663E-01  2.000E+01  2.000E+04 -1.745E-01
   1   16    7     1     7    1.2792E+05 -3.2606E+03   1.3118E+05  0.000E+00  0.000E+00  0.000E+00  4.55667E+01  1.690E-01  2.000E+01  2.000E+04 -1.630E-01
   1   16    8     1     8    1.3118E+05 -2.7513E+03   1.3393E+05  0.000E+00  0.000E+00  0.000E+00  4.50918E+01  1.713E-01  2.000E+01  2.000E+04 -1.376E-01
   1   16    9     1     9    1.3393E+05 -1.7805E+03   1.3572E+05  0.000E+00  0.000E+00  0.000E+00  4.46162E+01  1.731E-01  2.000E+01  2.000E+04 -8.902E-02
   1   16   10     1    10    1.3572E+05 -1.4078E+02   1.3586E+05  0.000E+00  0.000E+00  0.000E+00  4.41397E+01  1.738E-01  2.000E+01  2.000E+04 -7.039E-03
   1   16   11     1    11    1.3586E+05  1.8883E+03   1.3397E+05  0.000E+00  0.000E+00  0.000E+00  4.36618E+01  1.731E-01  2.000E+01  2.000E+04  9.442E-02
   1   16   12     1    12    1.3397E+05  3.8547E+02   1.3358E+05  0.000E+00  0.000E+00  0.000E+00  4.31836E+01  1.722E-01  2.000E+01  2.000E+04  1.927E-02
   1   15   13     1    13    1.3358E+05 -3.1614E+03   1.3674E+05  0.000E+00  0.000E+00  0.000E+00  4.27074E+01  1.733E-01  2.000E+01  2.000E+04 -1.581E-01
   1   14   14     1    14    1.3674E+05 -4.2794E+03   1.4102E+05  0.000E+00  0.000E+00  0.000E+00  4.22330E+01  1.762E-01  2.000E+01  2.000E+04 -2.140E-01
   1   13   15     1    15    1.4102E+05 -5.0538E+03   1.4608E+05  0.000E+00  0.000E+00  0.000E+00  4.17592E+01  1.797E-01  2.000E+01  2.000E+04 -2.527E-01
   1   12   16     1    16    1.4608E+05 -6.6181E+03   1.5269E+05  0.000E+00  0.000E+00  0.000E+00  4.12863E+01  1.840E-01  2.000E+01  2.000E+04 -3.309E-01
   1   12   17     1    17    1.5269E+05 -4.2724E+03   1.5697E+05  0.000E+00  0.000E+00  0.000E+00  4.08130E+01  1.880E-01  2.000E+01  2.000E+04 -2.136E-01
   1   12   18     1    18    1.5697E+05 -4.1164E+03   1.6108E+05  0.000E+00  0.000E+00  0.000E+00  4.03388E+01  1.911E-01  2.000E+01  2.000E+04 -2.058E-01
   1   12   19     1    19    1.6108E+05 -5.4437E+03   1.6653E+05  0.000E+00  0.000E+00  0.000E+00  3.98650E+01  1.945E-01  2.000E+01  2.000E+04 -2.722E-01
   1   13   20     1    20    1.6653E+05 -3.5319E+03   1.7006E+05  0.000E+00  0.000E+00  0.000E+00  3.93909E+01  1.977E-01  2.000E+01  2.000E+04 -1.766E-01
   1   14   21     1    21    1.7006E+05 -2.4094E+03   1.7247E+05  0.000E+00  0.000E+00  0.000E+00  3.89157E+01  1.998E-01  2.000E+01  2.000E+04 -1.205E-01
   1   14   22     1    22    1.7247E+05  4.8789E+03   1.6759E+05  0.000E+00  0.000E+00  0.000E+00  3.84375E+01  1.989E-01  2.000E+01  2.000E+04  2.439E-01
   1    9   30     2     1    5.0000E+04 -3.4569E+03   5.3457E+04  0.000E+00  0.000E+00  0.000E+00  4.02433E+01  1.183E-01  2.000E+01  2.000E+04 -1.728E-01
   1    9   29     2     2    5.3457E+04 -3.7810E+03   5.7238E+04  0.000E+00  0.000E+00  0.000E+00  3.99981E+01  1.231E-01  2.000E+01  2.000E+04 -1.890E-01
   1    9   28     2     3    5.7238E+04 -4.1569E+03   6.1395E+04  0.000E+00  0.000E+00  0.000E+00  3.97534E+01  1.284E-01  2.000E+01  2.000E+04 -2.078E-01
   1    9   27     2     4    6.1395E+04 -7.1634E+03   6.8558E+04  0.000E+00  0.000E+00  0.000E+00  3.95106E+01  1.356E-01  2.000E+01  2.000E+04 -3.582E-01
   1   10   26     2     5    6.8558E+04 -4.8325E+03   7.3391E+04  0.000E+00  0.000E+00  0.000E+00  3.92680E+01  1.430E-01  2.000E+01  2.000E+04 -2.416E-01
   1   11   25     2     6    7.3391E+04 -3.7349E+03   7.7125E+04  0.000E+00  0.000E+00  0.000E+00  3.90231E+01  1.481E-01  2.000E+01  2.000E+04 -1.867E-01
   1   12   24     2     7    7.7125E+04 -2.7408E+03   7.9866E+04  0.000E+00  0.000E+00  0.000E+00  3.87769E+01  1.519E-01  2.000E+01  2.000E+04 -1.370E-01
   1   13   23     2     8    7.9866E+04 -1.6882E+03   8.1554E+04  0.000E+00  0.000E+00  0.000E+00  3.85294E+01  1.544E-01  2.000E+01  2.000E+04 -8.441E-02
   1   14   22     2     9    8.1554E+04  1.7164E+03   7.9838E+04  0.000E+00  0.000E+00  0.000E+00  3.82794E+01  1.544E-01  2.000E+01  2.000E+04  8.582E-02
   1   14   22     3     1    2.4743E+05 -8.5836E+03   2.5601E+05  0.000E+00  0.000E+00  0.000E+00  3.77644E+01  2.089E-01  2.000E+01  2.000E+04 -4.292E-01
   1   15   23     3     2    2.5601E+05 -2.8530E+03   2.5886E+05  0.000E+00  0.000E+00  0.000E+00  3.68784E+01  2.117E-01  2.000E+01  2.000E+04 -1.426E-01
   1   15   24     3     3    2.5886E+05 -2.1002E+03   2.6096E+05  0.000E+00  0.000E+00  0.000E+00  3.59907E+01  2.129E-01  2.000E+01  2.000E+04 -1.050E-01
   1   15   25     3     4    2.6096E+05 -2.1109E+03   2.6308E+05  0.000E+00  0.000E+00  0.000E+00  3.51028E+01  2.139E-01  2.000E+01  2.000E+04 -1.055E-01
   1   15   26     3     5    2.6308E+05 -2.8101E+03   2.6589E+05  0.000E+00  0.000E+00  0.000E+00  3.42151E+01  2.151E-01  2.000E+01  2.000E+04 -1.405E-01
   1   16   27     3     6    2.6589E+05 -3.7160E+03   2.6960E+05  0.000E+00  0.000E+00  0.000E+00  3.33278E+01  2.167E-01  2.000E+01  2.000E+04 -1.858E-01
   1   17   28     3     7    2.6960E+05 -4.4989E+03   2.7410E+05  0.000E+00  0.000E+00  0.000E+00  3.24409E+01  2.187E-01  2.000E+01  2.000E+04 -2.249E-01
   1   18   29     3     8    2.7410E+05 -6.0458E+03   2.8015E+05  0.000E+00  0.000E+00  0.000E+00  3.15546E+01  2.213E-01  2.000E+01  2.000E+04 -3.023E-01
   1   18   30     3     9    2.8015E+05 -5.1883E+03   2.8533E+05  0.000E+00  0.000E+00  0.000E+00  3.06684E+01  2.239E-01  2.000E+01  2.000E+04 -2.594E-01



1
              HEAD IN LAYER   1 AT END OF TIME STEP   1 IN STRESS PERIOD    2
  ---------------------------------------------------------------------------

          1      2      3      4      5      6      7      8      9     10
         11     12     13     14     15     16     17     18     19     20
         21     22     23     24     25     26     27     28     29     30
 .........................................................................
   1  ****** ****** ****** ****** ****** ****** ****** ****** ****** ******
      ****** ****** ****** ****** ****** ****** ****** ****** ****** ******
      ****** ****** ****** ****** ****** ****** ****** ****** ****** ******
   2  ****** ****** ****** ****** ****** ****** ****** ****** ****** ******
      ****** ****** ****** ****** ****** ****** ****** ****** ****** ******
      ****** ****** ****** ****** ****** ****** ****** ****** ****** ******
   3  ****** ****** ****** ****** ****** ****** ****** ****** ****** ******
      ****** ****** ****** ****** ****** ****** ****** ****** ****** ******
      ****** ****** ****** ****** ****** ****** ****** ****** ****** ******
   4  ****** ****** ****** ****** ****** ****** ****** ****** ****** ******
      ****** ****** ****** ****** ****** ****** ****** ****** ****** ******
      ****** ****** ****** ****** ****** ****** ****** ****** ****** ******
   5  ****** ****** ****** ****** ****** ****** ****** ****** ****** ******
      ****** ****** ****** ****** ****** ****** ****** ****** ****** ******
      ****** ****** ****** ****** ****** ****** ****** ****** ****** ******
   6  ****** ****** ****** ****** ****** ****** ****** ****** ****** ******
      ****** ****** ****** ****** ****** ****** ****** ****** ****** ******
      ****** ****** ****** ****** ****** ****** ****** ****** ****** ******
   7  ****** ****** ****** ****** ****** ****** ****** ****** ****** ******
      ****** ****** ****** ****** ****** ****** ****** ****** ****** ******
      ****** ****** ****** ****** ****** ****** ****** ****** ****** ******
   8  ****** ****** ****** ****** ****** ****** ****** ****** ****** ******
      ****** ****** ****** ****** ****** ****** ****** ****** ****** ******
      ****** ****** ****** ****** ****** ****** ****** ****** ****** ******
   9  ****** ****** ****** ****** ****** ****** ****** ****** ****** ******
      ****** ****** ****** ****** ****** ****** ****** ****** ****** ******
      ****** ****** ****** ****** ****** ****** ****** ****** ****** ******
  10  ****** ****** ****** ****** ****** ****** ****** ****** ****** ******
      ****** ****** ****** ****** ****** ****** ****** ****** ****** ******
      ****** ****** ****** ****** ****** ****** ****** ****** ****** ******
  11  ****** ****** ****** ****** ****** ****** ****** ****** ****** ******
      ****** ****** ****** ****** ****** ****** ****** ****** ****** ******
      ****** ****** ****** ****** ****** ****** ****** ****** ****** ******
  12  ****** ****** ****** ****** ****** ****** ****** ****** ****** ******
      ****** ****** ****** ****** ****** ****** ****** ****** ****** ******
      ****** ****** ****** ****** ****** ****** ****** ****** ****** ******
  13  ****** ****** ****** ****** ****** ****** ****** ****** ****** ******
      ****** ****** ****** ****** ****** ****** ****** ****** ****** ******
      ****** ****** ****** ****** ****** ****** ****** ****** ****** ******
  14  ****** ****** ****** ****** ****** ****** ****** ****** ****** ******
      ****** ****** ****** ****** ****** ****** ****** ****** ****** ******
      ****** ****** ****** ****** ****** ****** ****** ****** ****** ******
  15  ****** ****** ****** ****** ****** ****** ****** ****** ****** ******
      ****** ****** ****** ****** ****** ****** ****** ****** ****** ******
      ****** ****** ****** ****** ****** ****** ****** ****** ****** ******
  16  ****** ****** ****** ****** ****** ****** ****** ****** ****** ******
      ****** ****** ****** ****** ****** ****** ****** ****** ****** ******
      ****** ****** ****** ****** ****** ****** ****** ****** ****** ******
  17  ****** ****** ****** ****** ****** ****** ****** ****** ****** ******
      ****** ****** ****** ****** ****** ****** ****** ****** ****** ******
      ****** ****** ****** ****** ****** ****** ****** ****** ****** ******
  18  ****** ****** ****** ****** ****** ****** ****** ****** ****** ******
      ****** ****** ****** ****** ****** ****** ****** ****** ****** ******
      ****** ****** ****** ****** ****** ****** ****** ****** ****** ******
  19  ****** ****** ****** ****** ****** ****** ****** ****** ****** ******
      ****** ****** ****** ****** ****** ****** ****** ****** ****** ******
      ****** ****** ****** ****** ****** ****** ****** ****** ****** ******
  20  ****** ****** ****** ****** ****** ****** ****** ****** ****** ******
      ****** ****** ****** ****** ****** ****** ****** ****** ****** ******
      ****** ****** ****** ****** ****** ****** ****** ****** ****** ******
  21  ****** ****** ****** ****** ****** ****** ****** ****** ****** ******
      ****** ****** ****** ****** ****** ****** ****** ****** ****** ******
      ****** ****** ****** ****** ****** ****** ****** ****** ****** ******
  22  ****** ****** ****** ****** ****** ****** ****** ****** ****** ******
      ****** ****** ****** ****** ****** ****** ****** ****** ****** ******
      ****** ****** ****** ****** ****** ****** ****** ****** ****** ******
  23  ****** ****** ****** ****** ****** ****** ****** ****** ****** ******
      ****** ****** ****** ****** ****** ****** ****** ****** ****** ******
      ****** ****** ****** ****** ****** ****** ****** ****** ****** ******
  24  ****** ****** ****** ****** ****** ****** ****** ****** ****** ******
      ****** ****** ****** ****** ****** ****** ****** ****** ****** ******
      ****** ****** ****** ****** ****** ****** ****** ****** ****** ******
  25  ****** ****** ****** ****** ****** ****** ****** ****** ****** ******
      ****** ****** ****** ****** ****** ****** ****** ****** ****** ******
      ****** ****** ****** ****** ****** ****** ****** ****** ****** ******

 HEAD WILL BE SAVED ON UNIT   51 AT END OF TIME STEP    1, STRESS PERIOD    2
1
  VOLUMETRIC BUDGET FOR ENTIRE MODEL AT END OF TIME STEP    1, STRESS PERIOD   2
  ------------------------------------------------------------------------------

     CUMULATIVE VOLUMES      L**3       RATES FOR THIS TIME STEP      L**3/T
     ------------------                 ------------------------

           IN:                                      IN:
           ---                                      ---
             STORAGE =    20802922.5739               STORAGE =       34285.4305
       CONSTANT HEAD =    25563591.2606         CONSTANT HEAD =      149817.3515
               WELLS =           0.0000                 WELLS =           0.0000
            RECHARGE =     6292800.0000              RECHARGE =       55200.0000
      STREAM LEAKAGE =     1283781.5063        STREAM LEAKAGE =        8869.1546

            TOTAL IN =    53943095.3408              TOTAL IN =      248171.9366

          OUT:                                     OUT:
          ----                                     ----
             STORAGE =           0.0000               STORAGE =           0.0000
       CONSTANT HEAD =           0.0000         CONSTANT HEAD =           0.0000
               WELLS =    19026157.4213                 WELLS =      103968.0733
            RECHARGE =           0.0000              RECHARGE =           0.0000
      STREAM LEAKAGE =    34916938.5881        STREAM LEAKAGE =      144203.8688

           TOTAL OUT =    53943096.0094             TOTAL OUT =      248171.9422

            IN - OUT =          -0.6685              IN - OUT =      -5.5974E-03

 PERCENT DISCREPANCY =          -0.00     PERCENT DISCREPANCY =          -0.00






         TIME SUMMARY AT END OF TIME STEP    1 IN STRESS PERIOD    2
                    SECONDS     MINUTES      HOURS       DAYS        YEARS
                    -----------------------------------------------------------
   TIME STEP LENGTH 7.86240E+06 1.31040E+05  2184.0      91.000     0.24914    
 STRESS PERIOD TIME 7.86240E+06 1.31040E+05  2184.0      91.000     0.24914    
         TOTAL TIME 1.58112E+07 2.63520E+05  4392.0      183.00     0.50103    
1
1
                            STRESS PERIOD NO.    3, LENGTH =   91.00000    
                            -----------------------------------------------

                              NUMBER OF TIME STEPS =     1

                               MULTIPLIER FOR DELT =     1.500

                            INITIAL TIME STEP SIZE =   91.00000    

 WELL NO.  LAYER   ROW   COL   STRESS RATE         
 --------------------------------------------------
      1      1     18     11     -0.3279E+05
      2      1     23     22     -0.3365E+05
      3      1     23     15     -0.3752E+05

      3 WELLS

                 RECHARGE =   0.00000    

 REUSING STREAM SEGMENT DATA FROM LAST STRESS PERIOD
 
 SOLVING FOR HEAD 


     7 CALLS TO PCG ROUTINE FOR TIME STEP   1 IN STRESS PERIOD    3
    27 TOTAL ITERATIONS

 OUTPUT CONTROL FOR STRESS PERIOD    3   TIME STEP    1
    SAVE BUDGET
    SAVE HEAD FOR ALL LAYERS
    PRINT HEAD FOR ALL LAYERS
 UBDSV2 SAVING "STREAMFLOW OUT  " ON UNIT  50 AT TIME STEP  1, STRESS PERIOD   3



 STREAM LISTING     PERIOD      3   STEP        1

 LAYER ROW COL. STREAM  RCH.  FLOW INTO     FLOW TO   FLOW OUT OF   OVRLND.     DIRECT     STREAM       STREAM     STREAM     STREAM   STREAMBED  STREAMBED
                SEG.NO.  NO.  STRM. RCH.    AQUIFER    STRM. RCH.    RUNOFF     PRECIP       ET          HEAD       DEPTH      WIDTH   CONDCTNC.   GRADIENT

   1   13    1     1     1    1.0000E+05 -2.8757E+03   1.0288E+05  0.000E+00  0.000E+00  0.000E+00  4.84073E+01  1.459E-01  2.000E+01  2.000E+04 -1.438E-01
   1   13    2     1     2    1.0288E+05 -4.9013E+03   1.0778E+05  0.000E+00  0.000E+00  0.000E+00  4.79333E+01  1.492E-01  2.000E+01  2.000E+04 -2.451E-01
   1   14    3     1     3    1.0778E+05 -3.7918E+03   1.1157E+05  0.000E+00  0.000E+00  0.000E+00  4.74597E+01  1.529E-01  2.000E+01  2.000E+04 -1.896E-01
   1   15    4     1     4    1.1157E+05 -3.5472E+03   1.1512E+05  0.000E+00  0.000E+00  0.000E+00  4.69855E+01  1.559E-01  2.000E+01  2.000E+04 -1.774E-01
   1   16    5     1     5    1.1512E+05 -3.4582E+03   1.1857E+05  0.000E+00  0.000E+00  0.000E+00  4.65111E+01  1.588E-01  2.000E+01  2.000E+04 -1.729E-01
   1   16    6     1     6    1.1857E+05 -2.5644E+03   1.2114E+05  0.000E+00  0.000E+00  0.000E+00  4.60363E+01  1.613E-01  2.000E+01  2.000E+04 -1.282E-01
   1   16    7     1     7    1.2114E+05 -2.3040E+03   1.2344E+05  0.000E+00  0.000E+00  0.000E+00  4.55609E+01  1.632E-01  2.000E+01  2.000E+04 -1.152E-01
   1   16    8     1     8    1.2344E+05 -1.7678E+03   1.2521E+05  0.000E+00  0.000E+00  0.000E+00  4.50853E+01  1.648E-01  2.000E+01  2.000E+04 -8.839E-02
   1   16    9     1     9    1.2521E+05 -7.7859E+02   1.2599E+05  0.000E+00  0.000E+00  0.000E+00  4.46090E+01  1.659E-01  2.000E+01  2.000E+04 -3.893E-02
   1   16   10     1    10    1.2599E+05  8.7124E+02   1.2512E+05  0.000E+00  0.000E+00  0.000E+00  4.41317E+01  1.658E-01  2.000E+01  2.000E+04  4.356E-02
   1   16   11     1    11    1.2512E+05  2.9091E+03   1.2221E+05  0.000E+00  0.000E+00  0.000E+00  4.36529E+01  1.643E-01  2.000E+01  2.000E+04  1.455E-01
   1   16   12     1    12    1.2221E+05  1.7916E+03   1.2042E+05  0.000E+00  0.000E+00  0.000E+00  4.31738E+01  1.624E-01  2.000E+01  2.000E+04  8.958E-02
   1   15   13     1    13    1.2042E+05 -1.7049E+03   1.2212E+05  0.000E+00  0.000E+00  0.000E+00  4.26965E+01  1.624E-01  2.000E+01  2.000E+04 -8.524E-02
   1   14   14     1    14    1.2212E+05 -2.8261E+03   1.2495E+05  0.000E+00  0.000E+00  0.000E+00  4.22210E+01  1.642E-01  2.000E+01  2.000E+04 -1.413E-01
   1   13   15     1    15    1.2495E+05 -3.6649E+03   1.2861E+05  0.000E+00  0.000E+00  0.000E+00  4.17463E+01  1.668E-01  2.000E+01  2.000E+04 -1.832E-01
   1   12   16     1    16    1.2861E+05 -5.3340E+03   1.3395E+05  0.000E+00  0.000E+00  0.000E+00  4.12726E+01  1.703E-01  2.000E+01  2.000E+04 -2.667E-01
   1   12   17     1    17    1.3395E+05 -3.3248E+03   1.3727E+05  0.000E+00  0.000E+00  0.000E+00  4.07987E+01  1.737E-01  2.000E+01  2.000E+04 -1.662E-01
   1   12   18     1    18    1.3727E+05 -3.1901E+03   1.4046E+05  0.000E+00  0.000E+00  0.000E+00  4.03239E+01  1.762E-01  2.000E+01  2.000E+04 -1.595E-01
   1   12   19     1    19    1.4046E+05 -4.3367E+03   1.4480E+05  0.000E+00  0.000E+00  0.000E+00  3.98495E+01  1.790E-01  2.000E+01  2.000E+04 -2.168E-01
   1   13   20     1    20    1.4480E+05 -2.4191E+03   1.4722E+05  0.000E+00  0.000E+00  0.000E+00  3.93747E+01  1.815E-01  2.000E+01  2.000E+04 -1.210E-01
   1   14   21     1    21    1.4722E+05 -1.3094E+03   1.4853E+05  0.000E+00  0.000E+00  0.000E+00  3.88988E+01  1.829E-01  2.000E+01  2.000E+04 -6.547E-02
   1   14   22     1    22    1.4853E+05  5.0406E+03   1.4349E+05  0.000E+00  0.000E+00  0.000E+00  3.84202E+01  1.815E-01  2.000E+01  2.000E+04  2.520E-01
   1    9   30     2     1    5.0000E+04 -2.6897E+03   5.2690E+04  0.000E+00  0.000E+00  0.000E+00  4.02427E+01  1.177E-01  2.000E+01  2.000E+04 -1.345E-01
   1    9   29     2     2    5.2690E+04 -3.0239E+03   5.5714E+04  0.000E+00  0.000E+00  0.000E+00  3.99966E+01  1.216E-01  2.000E+01  2.000E+04 -1.512E-01
   1    9   28     2     3    5.5714E+04 -3.4109E+03   5.9125E+04  0.000E+00  0.000E+00  0.000E+00  3.97509E+01  1.259E-01  2.000E+01  2.000E+04 -1.705E-01
   1    9   27     2     4    5.9125E+04 -6.1558E+03   6.5280E+04  0.000E+00  0.000E+00  0.000E+00  3.95071E+01  1.321E-01  2.000E+01  2.000E+04 -3.078E-01
   1   10   26     2     5    6.5280E+04 -3.7665E+03   6.9047E+04  0.000E+00  0.000E+00  0.000E+00  3.92633E+01  1.383E-01  2.000E+01  2.000E+04 -1.883E-01
   1   11   25     2     6    6.9047E+04 -2.7183E+03   7.1765E+04  0.000E+00  0.000E+00  0.000E+00  3.90173E+01  1.423E-01  2.000E+01  2.000E+04 -1.359E-01
   1   12   24     2     7    7.1765E+04 -1.8679E+03   7.3633E+04  0.000E+00  0.000E+00  0.000E+00  3.87700E+01  1.450E-01  2.000E+01  2.000E+04 -9.339E-02
   1   13   23     2     8    7.3633E+04 -1.0410E+03   7.4674E+04  0.000E+00  0.000E+00  0.000E+00  3.85218E+01  1.468E-01  2.000E+01  2.000E+04 -5.205E-02
   1   14   22     2     9    7.4674E+04  2.0606E+03   7.2613E+04  0.000E+00  0.000E+00  0.000E+00  3.82712E+01  1.462E-01  2.000E+01  2.000E+04  1.030E-01
   1   14   22     3     1    2.1610E+05 -8.3957E+03   2.2450E+05  0.000E+00  0.000E+00  0.000E+00  3.77484E+01  1.928E-01  2.000E+01  2.000E+04 -4.198E-01
   1   15   23     3     2    2.2450E+05 -1.8263E+03   2.2632E+05  0.000E+00  0.000E+00  0.000E+00  3.68621E+01  1.955E-01  2.000E+01  2.000E+04 -9.132E-02
   1   15   24     3     3    2.2632E+05 -1.4270E+03   2.2775E+05  0.000E+00  0.000E+00  0.000E+00  3.59741E+01  1.963E-01  2.000E+01  2.000E+04 -7.135E-02
   1   15   25     3     4    2.2775E+05 -1.4578E+03   2.2921E+05  0.000E+00  0.000E+00  0.000E+00  3.50860E+01  1.971E-01  2.000E+01  2.000E+04 -7.289E-02
   1   15   26     3     5    2.2921E+05 -1.9577E+03   2.3116E+05  0.000E+00  0.000E+00  0.000E+00  3.41979E+01  1.979E-01  2.000E+01  2.000E+04 -9.789E-02
   1   16   27     3     6    2.3116E+05 -2.6066E+03   2.3377E+05  0.000E+00  0.000E+00  0.000E+00  3.33102E+01  1.991E-01  2.000E+01  2.000E+04 -1.303E-01
   1   17   28     3     7    2.3377E+05 -3.3753E+03   2.3715E+05  0.000E+00  0.000E+00  0.000E+00  3.24229E+01  2.007E-01  2.000E+01  2.000E+04 -1.688E-01
   1   18   29     3     8    2.3715E+05 -5.0142E+03   2.4216E+05  0.000E+00  0.000E+00  0.000E+00  3.15361E+01  2.028E-01  2.000E+01  2.000E+04 -2.507E-01
   1   18   30     3     9    2.4216E+05 -4.4394E+03   2.4660E+05  0.000E+00  0.000E+00  0.000E+00  3.06496E+01  2.052E-01  2.000E+01  2.000E+04 -2.220E-01



1
              HEAD IN LAYER   1 AT END OF TIME STEP   1 IN STRESS PERIOD    3
  ---------------------------------------------------------------------------

          1      2      3      4      5      6      7      8      9     10
         11     12     13     14     15     16     17     18     19     20
         21     22     23     24     25     26     27     28     29     30
 .........................................................................
   1  ****** ****** ****** ****** ****** ****** ****** ****** ****** ******
      ****** ****** ****** ****** ****** ****** ****** ****** ****** ******
      ****** ****** ****** ****** ****** ****** ****** ****** ****** ******
   2  ****** ****** ****** ****** ****** ****** ****** ****** ****** ******
      ****** ****** ****** ****** ****** ****** ****** ****** ****** ******
      ****** ****** ****** ****** ****** ****** ****** ****** ****** ******
   3  ****** ****** ****** ****** ****** ****** ****** ****** ****** ******
      ****** ****** ****** ****** ****** ****** ****** ****** ****** ******
      ****** ****** ****** ****** ****** ****** ****** ****** ****** ******
   4  ****** ****** ****** ****** ****** ****** ****** ****** ****** ******
      ****** ****** ****** ****** ****** ****** ****** ****** ****** ******
      ****** ****** ****** ****** ****** ****** ****** ****** ****** ******
   5  ****** ****** ****** ****** ****** ****** ****** ****** ****** ******
      ****** ****** ****** ****** ****** ****** ****** ****** ****** ******
      ****** ****** ****** ****** ****** ****** ****** ****** ****** ******
   6  ****** ****** ****** ****** ****** ****** ****** ****** ****** ******
      ****** ****** ****** ****** ****** ****** ****** ****** ****** ******
      ****** ****** ****** ****** ****** ****** ****** ****** ****** ******
   7  ****** ****** ****** ****** ****** ****** ****** ****** ****** ******
      ****** ****** ****** ****** ****** ****** ****** ****** ****** ******
      ****** ****** ****** ****** ****** ****** ****** ****** ****** ******
   8  ****** ****** ****** ****** ****** ****** ****** ****** ****** ******
      ****** ****** ****** ****** ****** ****** ****** ****** ****** ******
      ****** ****** ****** ****** ****** ****** ****** ****** ****** ******
   9  ****** ****** ****** ****** ****** ****** ****** ****** ****** ******
      ****** ****** ****** ****** ****** ****** ****** ****** ****** ******
      ****** ****** ****** ****** ****** ****** ****** ****** ****** ******
  10  ****** ****** ****** ****** ****** ****** ****** ****** ****** ******
      ****** ****** ****** ****** ****** ****** ****** ****** ****** ******
      ****** ****** ****** ****** ****** ****** ****** ****** ****** ******
  11  ****** ****** ****** ****** ****** ****** ****** ****** ****** ******
      ****** ****** ****** ****** ****** ****** ****** ****** ****** ******
      ****** ****** ****** ****** ****** ****** ****** ****** ****** ******
  12  ****** ****** ****** ****** ****** ****** ****** ****** ****** ******
      ****** ****** ****** ****** ****** ****** ****** ****** ****** ******
      ****** ****** ****** ****** ****** ****** ****** ****** ****** ******
  13  ****** ****** ****** ****** ****** ****** ****** ****** ****** ******
      ****** ****** ****** ****** ****** ****** ****** ****** ****** ******
      ****** ****** ****** ****** ****** ****** ****** ****** ****** ******
  14  ****** ****** ****** ****** ****** ****** ****** ****** ****** ******
      ****** ****** ****** ****** ****** ****** ****** ****** ****** ******
      ****** ****** ****** ****** ****** ****** ****** ****** ****** ******
  15  ****** ****** ****** ****** ****** ****** ****** ****** ****** ******
      ****** ****** ****** ****** ****** ****** ****** ****** ****** ******
      ****** ****** ****** ****** ****** ****** ****** ****** ****** ******
  16  ****** ****** ****** ****** ****** ****** ****** ****** ****** ******
      ****** ****** ****** ****** ****** ****** ****** ****** ****** ******
      ****** ****** ****** ****** ****** ****** ****** ****** ****** ******
  17  ****** ****** ****** ****** ****** ****** ****** ****** ****** ******
      ****** ****** ****** ****** ****** ****** ****** ****** ****** ******
      ****** ****** ****** ****** ****** ****** ****** ****** ****** ******
  18  ****** ****** ****** ****** ****** ****** ****** ****** ****** ******
      ****** ****** ****** ****** ****** ****** ****** ****** ****** ******
      ****** ****** ****** ****** ****** ****** ****** ****** ****** ******
  19  ****** ****** ****** ****** ****** ****** ****** ****** ****** ******
      ****** ****** ****** ****** ****** ****** ****** ****** ****** ******
      ****** ****** ****** ****** ****** ****** ****** ****** ****** ******
  20  ****** ****** ****** ****** ****** ****** ****** ****** ****** ******
      ****** ****** ****** ****** ****** ****** ****** ****** ****** ******
      ****** ****** ****** ****** ****** ****** ****** ****** ****** ******
  21  ****** ****** ****** ****** ****** ****** ****** ****** ****** ******
      ****** ****** ****** ****** ****** ****** ****** ****** ****** ******
      ****** ****** ****** ****** ****** ****** ****** ****** ****** ******
  22  ****** ****** ****** ****** ****** ****** ****** ****** ****** ******
      ****** ****** ****** ****** ****** ****** ****** ****** ****** ******
      ****** ****** ****** ****** ****** ****** ****** ****** ****** ******
  23  ****** ****** ****** ****** ****** ****** ****** ****** ****** ******
      ****** ****** ****** ****** ****** ****** ****** ****** ****** ******
      ****** ****** ****** ****** ****** ****** ****** ****** ****** ******
  24  ****** ****** ****** ****** ****** ****** ****** ****** ****** ******
      ****** ****** ****** ****** ****** ****** ****** ****** ****** ******
      ****** ****** ****** ****** ****** ****** ****** ****** ****** ******
  25  ****** ****** ****** ****** ****** ****** ****** ****** ****** ******
      ****** ****** ****** ****** ****** ****** ****** ****** ****** ******
      ****** ****** ****** ****** ****** ****** ****** ****** ****** ******

 HEAD WILL BE SAVED ON UNIT   51 AT END OF TIME STEP    1, STRESS PERIOD    3
1
  VOLUMETRIC BUDGET FOR ENTIRE MODEL AT END OF TIME STEP    1, STRESS PERIOD   3
  ------------------------------------------------------------------------------

     CUMULATIVE VOLUMES      L**3       RATES FOR THIS TIME STEP      L**3/T
     ------------------                 ------------------------

           IN:                                      IN:
           ---                                      ---
             STORAGE =    23216045.9508               STORAGE =       26517.8393
       CONSTANT HEAD =    41402141.8860         CONSTANT HEAD =      174050.0069
               WELLS =           0.0000                 WELLS =           0.0000
            RECHARGE =     6292800.0000              RECHARGE =           0.0000
      STREAM LEAKAGE =     2437037.9577        STREAM LEAKAGE =       12673.1478

            TOTAL IN =    73348025.7945              TOTAL IN =      213240.9940

          OUT:                                     OUT:
          ----                                     ----
             STORAGE =           0.0000               STORAGE =           0.0000
       CONSTANT HEAD =           0.0000         CONSTANT HEAD =           0.0000
               WELLS =    28487252.0952                 WELLS =      103968.0733
            RECHARGE =           0.0000              RECHARGE =           0.0000
      STREAM LEAKAGE =    44860774.6342        STREAM LEAKAGE =      109272.9236

           TOTAL OUT =    73348026.7294             TOTAL OUT =      213240.9969

            IN - OUT =          -0.9349              IN - OUT =      -2.9274E-03

 PERCENT DISCREPANCY =          -0.00     PERCENT DISCREPANCY =          -0.00






         TIME SUMMARY AT END OF TIME STEP    1 IN STRESS PERIOD    3
                    SECONDS     MINUTES      HOURS       DAYS        YEARS
                    -----------------------------------------------------------
   TIME STEP LENGTH 7.86240E+06 1.31040E+05  2184.0      91.000     0.24914    
 STRESS PERIOD TIME 7.86240E+06 1.31040E+05  2184.0      91.000     0.24914    
         TOTAL TIME 2.36736E+07 3.94560E+05  6576.0      274.00     0.75017    
1
1
                            STRESS PERIOD NO.    4, LENGTH =   91.00000    
                            -----------------------------------------------

                              NUMBER OF TIME STEPS =     1

                               MULTIPLIER FOR DELT =     1.500

                            INITIAL TIME STEP SIZE =   91.00000    

 WELL NO.  LAYER   ROW   COL   STRESS RATE         
 --------------------------------------------------
      1      1     18     11     -0.3279E+05
      2      1     23     22     -0.3365E+05
      3      1     23     15     -0.3752E+05

      3 WELLS

                 RECHARGE =  1.000000E-03

 REUSING STREAM SEGMENT DATA FROM LAST STRESS PERIOD
 
 SOLVING FOR HEAD 


     6 CALLS TO PCG ROUTINE FOR TIME STEP   1 IN STRESS PERIOD    4
    21 TOTAL ITERATIONS

 OUTPUT CONTROL FOR STRESS PERIOD    4   TIME STEP    1
    SAVE BUDGET
    SAVE HEAD FOR ALL LAYERS
    PRINT HEAD FOR ALL LAYERS
 UBDSV2 SAVING "STREAMFLOW OUT  " ON UNIT  50 AT TIME STEP  1, STRESS PERIOD   4



 STREAM LISTING     PERIOD      4   STEP        1

 LAYER ROW COL. STREAM  RCH.  FLOW INTO     FLOW TO   FLOW OUT OF   OVRLND.     DIRECT     STREAM       STREAM     STREAM     STREAM   STREAMBED  STREAMBED
                SEG.NO.  NO.  STRM. RCH.    AQUIFER    STRM. RCH.    RUNOFF     PRECIP       ET          HEAD       DEPTH      WIDTH   CONDCTNC.   GRADIENT

   1   13    1     1     1    1.0000E+05 -2.8956E+03   1.0290E+05  0.000E+00  0.000E+00  0.000E+00  4.84073E+01  1.459E-01  2.000E+01  2.000E+04 -1.448E-01
   1   13    2     1     2    1.0290E+05 -4.8925E+03   1.0779E+05  0.000E+00  0.000E+00  0.000E+00  4.79333E+01  1.492E-01  2.000E+01  2.000E+04 -2.446E-01
   1   14    3     1     3    1.0779E+05 -3.8331E+03   1.1162E+05  0.000E+00  0.000E+00  0.000E+00  4.74597E+01  1.529E-01  2.000E+01  2.000E+04 -1.917E-01
   1   15    4     1     4    1.1162E+05 -3.6013E+03   1.1522E+05  0.000E+00  0.000E+00  0.000E+00  4.69856E+01  1.560E-01  2.000E+01  2.000E+04 -1.801E-01
   1   16    5     1     5    1.1522E+05 -3.5102E+03   1.1873E+05  0.000E+00  0.000E+00  0.000E+00  4.65112E+01  1.589E-01  2.000E+01  2.000E+04 -1.755E-01
   1   16    6     1     6    1.1873E+05 -2.6027E+03   1.2134E+05  0.000E+00  0.000E+00  0.000E+00  4.60364E+01  1.614E-01  2.000E+01  2.000E+04 -1.301E-01
   1   16    7     1     7    1.2134E+05 -2.3365E+03   1.2367E+05  0.000E+00  0.000E+00  0.000E+00  4.55611E+01  1.634E-01  2.000E+01  2.000E+04 -1.168E-01
   1   16    8     1     8    1.2367E+05 -1.7953E+03   1.2547E+05  0.000E+00  0.000E+00  0.000E+00  4.50855E+01  1.650E-01  2.000E+01  2.000E+04 -8.977E-02
   1   16    9     1     9    1.2547E+05 -8.0182E+02   1.2627E+05  0.000E+00  0.000E+00  0.000E+00  4.46092E+01  1.661E-01  2.000E+01  2.000E+04 -4.009E-02
   1   16   10     1    10    1.2627E+05  8.5175E+02   1.2542E+05  0.000E+00  0.000E+00  0.000E+00  4.41320E+01  1.660E-01  2.000E+01  2.000E+04  4.259E-02
   1   16   11     1    11    1.2542E+05  2.8946E+03   1.2252E+05  0.000E+00  0.000E+00  0.000E+00  4.36532E+01  1.646E-01  2.000E+01  2.000E+04  1.447E-01
   1   16   12     1    12    1.2252E+05  1.8047E+03   1.2072E+05  0.000E+00  0.000E+00  0.000E+00  4.31740E+01  1.627E-01  2.000E+01  2.000E+04  9.024E-02
   1   15   13     1    13    1.2072E+05 -1.7049E+03   1.2242E+05  0.000E+00  0.000E+00  0.000E+00  4.26967E+01  1.626E-01  2.000E+01  2.000E+04 -8.524E-02
   1   14   14     1    14    1.2242E+05 -2.8283E+03   1.2525E+05  0.000E+00  0.000E+00  0.000E+00  4.22213E+01  1.645E-01  2.000E+01  2.000E+04 -1.414E-01
   1   13   15     1    15    1.2525E+05 -3.6730E+03   1.2892E+05  0.000E+00  0.000E+00  0.000E+00  4.17466E+01  1.670E-01  2.000E+01  2.000E+04 -1.837E-01
   1   12   16     1    16    1.2892E+05 -5.3309E+03   1.3426E+05  0.000E+00  0.000E+00  0.000E+00  4.12728E+01  1.706E-01  2.000E+01  2.000E+04 -2.665E-01
   1   12   17     1    17    1.3426E+05 -3.3477E+03   1.3760E+05  0.000E+00  0.000E+00  0.000E+00  4.07989E+01  1.739E-01  2.000E+01  2.000E+04 -1.674E-01
   1   12   18     1    18    1.3760E+05 -3.2212E+03   1.4082E+05  0.000E+00  0.000E+00  0.000E+00  4.03241E+01  1.764E-01  2.000E+01  2.000E+04 -1.611E-01
   1   12   19     1    19    1.4082E+05 -4.3869E+03   1.4521E+05  0.000E+00  0.000E+00  0.000E+00  3.98497E+01  1.793E-01  2.000E+01  2.000E+04 -2.193E-01
   1   13   20     1    20    1.4521E+05 -2.4822E+03   1.4769E+05  0.000E+00  0.000E+00  0.000E+00  3.93750E+01  1.819E-01  2.000E+01  2.000E+04 -1.241E-01
   1   14   21     1    21    1.4769E+05 -1.3352E+03   1.4903E+05  0.000E+00  0.000E+00  0.000E+00  3.88992E+01  1.833E-01  2.000E+01  2.000E+04 -6.676E-02
   1   14   22     1    22    1.4903E+05  5.0111E+03   1.4402E+05  0.000E+00  0.000E+00  0.000E+00  3.84206E+01  1.819E-01  2.000E+01  2.000E+04  2.506E-01
   1    9   30     2     1    5.0000E+04 -2.8019E+03   5.2802E+04  0.000E+00  0.000E+00  0.000E+00  4.02428E+01  1.178E-01  2.000E+01  2.000E+04 -1.401E-01
   1    9   29     2     2    5.2802E+04 -3.1345E+03   5.5936E+04  0.000E+00  0.000E+00  0.000E+00  3.99968E+01  1.218E-01  2.000E+01  2.000E+04 -1.567E-01
   1    9   28     2     3    5.5936E+04 -3.5174E+03   5.9454E+04  0.000E+00  0.000E+00  0.000E+00  3.97513E+01  1.263E-01  2.000E+01  2.000E+04 -1.759E-01
   1    9   27     2     4    5.9454E+04 -6.2664E+03   6.5720E+04  0.000E+00  0.000E+00  0.000E+00  3.95076E+01  1.326E-01  2.000E+01  2.000E+04 -3.133E-01
   1   10   26     2     5    6.5720E+04 -3.8953E+03   6.9615E+04  0.000E+00  0.000E+00  0.000E+00  3.92639E+01  1.389E-01  2.000E+01  2.000E+04 -1.948E-01
   1   11   25     2     6    6.9615E+04 -2.8480E+03   7.2463E+04  0.000E+00  0.000E+00  0.000E+00  3.90180E+01  1.430E-01  2.000E+01  2.000E+04 -1.424E-01
   1   12   24     2     7    7.2463E+04 -1.9945E+03   7.4458E+04  0.000E+00  0.000E+00  0.000E+00  3.87710E+01  1.460E-01  2.000E+01  2.000E+04 -9.973E-02
   1   13   23     2     8    7.4458E+04 -1.1544E+03   7.5612E+04  0.000E+00  0.000E+00  0.000E+00  3.85228E+01  1.478E-01  2.000E+01  2.000E+04 -5.772E-02
   1   14   22     2     9    7.5612E+04  2.0460E+03   7.3566E+04  0.000E+00  0.000E+00  0.000E+00  3.82723E+01  1.473E-01  2.000E+01  2.000E+04  1.023E-01
   1   14   22     3     1    2.1758E+05 -8.4171E+03   2.2600E+05  0.000E+00  0.000E+00  0.000E+00  3.77491E+01  1.936E-01  2.000E+01  2.000E+04 -4.209E-01
   1   15   23     3     2    2.2600E+05 -1.8509E+03   2.2785E+05  0.000E+00  0.000E+00  0.000E+00  3.68629E+01  1.963E-01  2.000E+01  2.000E+04 -9.254E-02
   1   15   24     3     3    2.2785E+05 -1.4853E+03   2.2934E+05  0.000E+00  0.000E+00  0.000E+00  3.59749E+01  1.971E-01  2.000E+01  2.000E+04 -7.427E-02
   1   15   25     3     4    2.2934E+05 -1.5351E+03   2.3087E+05  0.000E+00  0.000E+00  0.000E+00  3.50868E+01  1.979E-01  2.000E+01  2.000E+04 -7.675E-02
   1   15   26     3     5    2.3087E+05 -2.0752E+03   2.3295E+05  0.000E+00  0.000E+00  0.000E+00  3.41988E+01  1.988E-01  2.000E+01  2.000E+04 -1.038E-01
   1   16   27     3     6    2.3295E+05 -2.7217E+03   2.3567E+05  0.000E+00  0.000E+00  0.000E+00  3.33112E+01  2.001E-01  2.000E+01  2.000E+04 -1.361E-01
   1   17   28     3     7    2.3567E+05 -3.4888E+03   2.3916E+05  0.000E+00  0.000E+00  0.000E+00  3.24239E+01  2.017E-01  2.000E+01  2.000E+04 -1.744E-01
   1   18   29     3     8    2.3916E+05 -5.1099E+03   2.4427E+05  0.000E+00  0.000E+00  0.000E+00  3.15372E+01  2.038E-01  2.000E+01  2.000E+04 -2.555E-01
   1   18   30     3     9    2.4427E+05 -4.5355E+03   2.4880E+05  0.000E+00  0.000E+00  0.000E+00  3.06507E+01  2.063E-01  2.000E+01  2.000E+04 -2.268E-01



1
              HEAD IN LAYER   1 AT END OF TIME STEP   1 IN STRESS PERIOD    4
  ---------------------------------------------------------------------------

          1      2      3      4      5      6      7      8      9     10
         11     12     13     14     15     16     17     18     19     20
         21     22     23     24     25     26     27     28     29     30
 .........................................................................
   1  ****** ****** ****** ****** ****** ****** ****** ****** ****** ******
      ****** ****** ****** ****** ****** ****** ****** ****** ****** ******
      ****** ****** ****** ****** ****** ****** ****** ****** ****** ******
   2  ****** ****** ****** ****** ****** ****** ****** ****** ****** ******
      ****** ****** ****** ****** ****** ****** ****** ****** ****** ******
      ****** ****** ****** ****** ****** ****** ****** ****** ****** ******
   3  ****** ****** ****** ****** ****** ****** ****** ****** ****** ******
      ****** ****** ****** ****** ****** ****** ****** ****** ****** ******
      ****** ****** ****** ****** ****** ****** ****** ****** ****** ******
   4  ****** ****** ****** ****** ****** ****** ****** ****** ****** ******
      ****** ****** ****** ****** ****** ****** ****** ****** ****** ******
      ****** ****** ****** ****** ****** ****** ****** ****** ****** ******
   5  ****** ****** ****** ****** ****** ****** ****** ****** ****** ******
      ****** ****** ****** ****** ****** ****** ****** ****** ****** ******
      ****** ****** ****** ****** ****** ****** ****** ****** ****** ******
   6  ****** ****** ****** ****** ****** ****** ****** ****** ****** ******
      ****** ****** ****** ****** ****** ****** ****** ****** ****** ******
      ****** ****** ****** ****** ****** ****** ****** ****** ****** ******
   7  ****** ****** ****** ****** ****** ****** ****** ****** ****** ******
      ****** ****** ****** ****** ****** ****** ****** ****** ****** ******
      ****** ****** ****** ****** ****** ****** ****** ****** ****** ******
   8  ****** ****** ****** ****** ****** ****** ****** ****** ****** ******
      ****** ****** ****** ****** ****** ****** ****** ****** ****** ******
      ****** ****** ****** ****** ****** ****** ****** ****** ****** ******
   9  ****** ****** ****** ****** ****** ****** ****** ****** ****** ******
      ****** ****** ****** ****** ****** ****** ****** ****** ****** ******
      ****** ****** ****** ****** ****** ****** ****** ****** ****** ******
  10  ****** ****** ****** ****** ****** ****** ****** ****** ****** ******
      ****** ****** ****** ****** ****** ****** ****** ****** ****** ******
      ****** ****** ****** ****** ****** ****** ****** ****** ****** ******
  11  ****** ****** ****** ****** ****** ****** ****** ****** ****** ******
      ****** ****** ****** ****** ****** ****** ****** ****** ****** ******
      ****** ****** ****** ****** ****** ****** ****** ****** ****** ******
  12  ****** ****** ****** ****** ****** ****** ****** ****** ****** ******
      ****** ****** ****** ****** ****** ****** ****** ****** ****** ******
      ****** ****** ****** ****** ****** ****** ****** ****** ****** ******
  13  ****** ****** ****** ****** ****** ****** ****** ****** ****** ******
      ****** ****** ****** ****** ****** ****** ****** ****** ****** ******
      ****** ****** ****** ****** ****** ****** ****** ****** ****** ******
  14  ****** ****** ****** ****** ****** ****** ****** ****** ****** ******
      ****** ****** ****** ****** ****** ****** ****** ****** ****** ******
      ****** ****** ****** ****** ****** ****** ****** ****** ****** ******
  15  ****** ****** ****** ****** ****** ****** ****** ****** ****** ******
      ****** ****** ****** ****** ****** ****** ****** ****** ****** ******
      ****** ****** ****** ****** ****** ****** ****** ****** ****** ******
  16  ****** ****** ****** ****** ****** ****** ****** ****** ****** ******
      ****** ****** ****** ****** ****** ****** ****** ****** ****** ******
      ****** ****** ****** ****** ****** ****** ****** ****** ****** ******
  17  ****** ****** ****** ****** ****** ****** ****** ****** ****** ******
      ****** ****** ****** ****** ****** ****** ****** ****** ****** ******
      ****** ****** ****** ****** ****** ****** ****** ****** ****** ******
  18  ****** ****** ****** ****** ****** ****** ****** ****** ****** ******
      ****** ****** ****** ****** ****** ****** ****** ****** ****** ******
      ****** ****** ****** ****** ****** ****** ****** ****** ****** ******
  19  ****** ****** ****** ****** ****** ****** ****** ****** ****** ******
      ****** ****** ****** ****** ****** ****** ****** ****** ****** ******
      ****** ****** ****** ****** ****** ****** ****** ****** ****** ******
  20  ****** ****** ****** ****** ****** ****** ****** ****** ****** ******
      ****** ****** ****** ****** ****** ****** ****** ****** ****** ******
      ****** ****** ****** ****** ****** ****** ****** ****** ****** ******
  21  ****** ****** ****** ****** ****** ****** ****** ****** ****** ******
      ****** ****** ****** ****** ****** ****** ****** ****** ****** ******
      ****** ****** ****** ****** ****** ****** ****** ****** ****** ******
  22  ****** ****** ****** ****** ****** ****** ****** ****** ****** ******
      ****** ****** ****** ****** ****** ****** ****** ****** ****** ******
      ****** ****** ****** ****** ****** ****** ****** ****** ****** ******
  23  ****** ****** ****** ****** ****** ****** ****** ****** ****** ******
      ****** ****** ****** ****** ****** ****** ****** ****** ****** ******
      ****** ****** ****** ****** ****** ****** ****** ****** ****** ******
  24  ****** ****** ****** ****** ****** ****** ****** ****** ****** ******
      ****** ****** ****** ****** ****** ****** ****** ****** ****** ******
      ****** ****** ****** ****** ****** ****** ****** ****** ****** ******
  25  ****** ****** ****** ****** ****** ****** ****** ****** ****** ******
      ****** ****** ****** ****** ****** ****** ****** ****** ****** ******
      ****** ****** ****** ****** ****** ****** ****** ****** ****** ******

 HEAD WILL BE SAVED ON UNIT   51 AT END OF TIME STEP    1, STRESS PERIOD    4
1
  VOLUMETRIC BUDGET FOR ENTIRE MODEL AT END OF TIME STEP    1, STRESS PERIOD   4
  ------------------------------------------------------------------------------

     CUMULATIVE VOLUMES      L**3       RATES FOR THIS TIME STEP      L**3/T
     ------------------                 ------------------------

           IN:                                      IN:
           ---                                      ---
             STORAGE =    23363852.3635               STORAGE =        1624.2463
       CONSTANT HEAD =    57216026.0753         CONSTANT HEAD =      173778.9471
               WELLS =           0.0000                 WELLS =           0.0000
            RECHARGE =     8804400.0000              RECHARGE =       27600.0000
      STREAM LEAKAGE =     3584379.1925        STREAM LEAKAGE =       12608.1454

            TOTAL IN =    92968657.6314              TOTAL IN =      215611.3389

          OUT:                                     OUT:
          ----                                     ----
             STORAGE =       21106.8955               STORAGE =         231.9439
       CONSTANT HEAD =           0.0000         CONSTANT HEAD =           0.0000
               WELLS =    37948346.7692                 WELLS =      103968.0733
            RECHARGE =           0.0000              RECHARGE =           0.0000
      STREAM LEAKAGE =    54999204.7524        STREAM LEAKAGE =      111411.3200

           TOTAL OUT =    92968658.4171             TOTAL OUT =      215611.3372

            IN - OUT =          -0.7858              IN - OUT =       1.6387E-03

 PERCENT DISCREPANCY =          -0.00     PERCENT DISCREPANCY =           0.00






         TIME SUMMARY AT END OF TIME STEP    1 IN STRESS PERIOD    4
                    SECONDS     MINUTES      HOURS       DAYS        YEARS
                    -----------------------------------------------------------
   TIME STEP LENGTH 7.86240E+06 1.31040E+05  2184.0      91.000     0.24914    
 STRESS PERIOD TIME 7.86240E+06 1.31040E+05  2184.0      91.000     0.24914    
         TOTAL TIME 3.15360E+07 5.25600E+05  8760.0      365.00     0.99932    
1
1
                            STRESS PERIOD NO.    5, LENGTH =   92.00000    
                            -----------------------------------------------

                              NUMBER OF TIME STEPS =     1

                               MULTIPLIER FOR DELT =     1.500

                            INITIAL TIME STEP SIZE =   92.00000    

 WELL NO.  LAYER   ROW   COL   STRESS RATE         
 --------------------------------------------------
      1      1     18     11     -0.3279E+05
      2      1     23     22     -0.3365E+05
      3      1     23     15     -0.3752E+05

      3 WELLS

                 RECHARGE =  5.000000E-04

 REUSING STREAM SEGMENT DATA FROM LAST STRESS PERIOD
 
 SOLVING FOR HEAD 


     6 CALLS TO PCG ROUTINE FOR TIME STEP   1 IN STRESS PERIOD    5
    23 TOTAL ITERATIONS

 OUTPUT CONTROL FOR STRESS PERIOD    5   TIME STEP    1
    SAVE BUDGET
    SAVE HEAD FOR ALL LAYERS
    PRINT HEAD FOR ALL LAYERS
 UBDSV2 SAVING "STREAMFLOW OUT  " ON UNIT  50 AT TIME STEP  1, STRESS PERIOD   5



 STREAM LISTING     PERIOD      5   STEP        1

 LAYER ROW COL. STREAM  RCH.  FLOW INTO     FLOW TO   FLOW OUT OF   OVRLND.     DIRECT     STREAM       STREAM     STREAM     STREAM   STREAMBED  STREAMBED
                SEG.NO.  NO.  STRM. RCH.    AQUIFER    STRM. RCH.    RUNOFF     PRECIP       ET          HEAD       DEPTH      WIDTH   CONDCTNC.   GRADIENT

   1   13    1     1     1    1.0000E+05 -2.7208E+03   1.0272E+05  0.000E+00  0.000E+00  0.000E+00  4.84072E+01  1.458E-01  2.000E+01  2.000E+04 -1.360E-01
   1   13    2     1     2    1.0272E+05 -4.6510E+03   1.0737E+05  0.000E+00  0.000E+00  0.000E+00  4.79331E+01  1.490E-01  2.000E+01  2.000E+04 -2.325E-01
   1   14    3     1     3    1.0737E+05 -3.6064E+03   1.1098E+05  0.000E+00  0.000E+00  0.000E+00  4.74593E+01  1.525E-01  2.000E+01  2.000E+04 -1.803E-01
   1   15    4     1     4    1.1098E+05 -3.3842E+03   1.1436E+05  0.000E+00  0.000E+00  0.000E+00  4.69849E+01  1.554E-01  2.000E+01  2.000E+04 -1.692E-01
   1   16    5     1     5    1.1436E+05 -3.3173E+03   1.1768E+05  0.000E+00  0.000E+00  0.000E+00  4.65104E+01  1.581E-01  2.000E+01  2.000E+04 -1.659E-01
   1   16    6     1     6    1.1768E+05 -2.4451E+03   1.2012E+05  0.000E+00  0.000E+00  0.000E+00  4.60355E+01  1.605E-01  2.000E+01  2.000E+04 -1.223E-01
   1   16    7     1     7    1.2012E+05 -2.1742E+03   1.2230E+05  0.000E+00  0.000E+00  0.000E+00  4.55601E+01  1.623E-01  2.000E+01  2.000E+04 -1.087E-01
   1   16    8     1     8    1.2230E+05 -1.6300E+03   1.2393E+05  0.000E+00  0.000E+00  0.000E+00  4.50843E+01  1.639E-01  2.000E+01  2.000E+04 -8.150E-02
   1   16    9     1     9    1.2393E+05 -6.3554E+02   1.2456E+05  0.000E+00  0.000E+00  0.000E+00  4.46080E+01  1.648E-01  2.000E+01  2.000E+04 -3.178E-02
   1   16   10     1    10    1.2456E+05  1.0172E+03   1.2355E+05  0.000E+00  0.000E+00  0.000E+00  4.41305E+01  1.646E-01  2.000E+01  2.000E+04  5.086E-02
   1   16   11     1    11    1.2355E+05  3.0585E+03   1.2049E+05  0.000E+00  0.000E+00  0.000E+00  4.36516E+01  1.630E-01  2.000E+01  2.000E+04  1.529E-01
   1   16   12     1    12    1.2049E+05  2.0189E+03   1.1847E+05  0.000E+00  0.000E+00  0.000E+00  4.31723E+01  1.610E-01  2.000E+01  2.000E+04  1.009E-01
   1   15   13     1    13    1.1847E+05 -1.4697E+03   1.1994E+05  0.000E+00  0.000E+00  0.000E+00  4.26948E+01  1.607E-01  2.000E+01  2.000E+04 -7.348E-02
   1   14   14     1    14    1.1994E+05 -2.5877E+03   1.2253E+05  0.000E+00  0.000E+00  0.000E+00  4.22192E+01  1.624E-01  2.000E+01  2.000E+04 -1.294E-01
   1   13   15     1    15    1.2253E+05 -3.4365E+03   1.2596E+05  0.000E+00  0.000E+00  0.000E+00  4.17443E+01  1.648E-01  2.000E+01  2.000E+04 -1.718E-01
   1   12   16     1    16    1.2596E+05 -5.1019E+03   1.3107E+05  0.000E+00  0.000E+00  0.000E+00  4.12704E+01  1.681E-01  2.000E+01  2.000E+04 -2.551E-01
   1   12   17     1    17    1.3107E+05 -3.1851E+03   1.3425E+05  0.000E+00  0.000E+00  0.000E+00  4.07964E+01  1.714E-01  2.000E+01  2.000E+04 -1.593E-01
   1   12   18     1    18    1.3425E+05 -3.0647E+03   1.3732E+05  0.000E+00  0.000E+00  0.000E+00  4.03215E+01  1.738E-01  2.000E+01  2.000E+04 -1.532E-01
   1   12   19     1    19    1.3732E+05 -4.2016E+03   1.4152E+05  0.000E+00  0.000E+00  0.000E+00  3.98470E+01  1.766E-01  2.000E+01  2.000E+04 -2.101E-01
   1   13   20     1    20    1.4152E+05 -2.3037E+03   1.4382E+05  0.000E+00  0.000E+00  0.000E+00  3.93722E+01  1.790E-01  2.000E+01  2.000E+04 -1.152E-01
   1   14   21     1    21    1.4382E+05 -1.1646E+03   1.4499E+05  0.000E+00  0.000E+00  0.000E+00  3.88962E+01  1.803E-01  2.000E+01  2.000E+04 -5.823E-02
   1   14   22     1    22    1.4499E+05  5.0362E+03   1.3995E+05  0.000E+00  0.000E+00  0.000E+00  3.84175E+01  1.789E-01  2.000E+01  2.000E+04  2.518E-01
   1    9   30     2     1    5.0000E+04 -2.6865E+03   5.2686E+04  0.000E+00  0.000E+00  0.000E+00  4.02427E+01  1.177E-01  2.000E+01  2.000E+04 -1.343E-01
   1    9   29     2     2    5.2686E+04 -3.0194E+03   5.5706E+04  0.000E+00  0.000E+00  0.000E+00  3.99966E+01  1.216E-01  2.000E+01  2.000E+04 -1.510E-01
   1    9   28     2     3    5.5706E+04 -3.4015E+03   5.9107E+04  0.000E+00  0.000E+00  0.000E+00  3.97509E+01  1.259E-01  2.000E+01  2.000E+04 -1.701E-01
   1    9   27     2     4    5.9107E+04 -6.1052E+03   6.5213E+04  0.000E+00  0.000E+00  0.000E+00  3.95070E+01  1.320E-01  2.000E+01  2.000E+04 -3.053E-01
   1   10   26     2     5    6.5213E+04 -3.7293E+03   6.8942E+04  0.000E+00  0.000E+00  0.000E+00  3.92632E+01  1.382E-01  2.000E+01  2.000E+04 -1.865E-01
   1   11   25     2     6    6.8942E+04 -2.6883E+03   7.1630E+04  0.000E+00  0.000E+00  0.000E+00  3.90171E+01  1.421E-01  2.000E+01  2.000E+04 -1.344E-01
   1   12   24     2     7    7.1630E+04 -1.8525E+03   7.3483E+04  0.000E+00  0.000E+00  0.000E+00  3.87699E+01  1.449E-01  2.000E+01  2.000E+04 -9.262E-02
   1   13   23     2     8    7.3483E+04 -1.0430E+03   7.4526E+04  0.000E+00  0.000E+00  0.000E+00  3.85216E+01  1.466E-01  2.000E+01  2.000E+04 -5.215E-02
   1   14   22     2     9    7.4526E+04  2.1053E+03   7.2420E+04  0.000E+00  0.000E+00  0.000E+00  3.82710E+01  1.460E-01  2.000E+01  2.000E+04  1.053E-01
   1   14   22     3     1    2.1237E+05 -8.3863E+03   2.2076E+05  0.000E+00  0.000E+00  0.000E+00  3.77464E+01  1.908E-01  2.000E+01  2.000E+04 -4.193E-01
   1   15   23     3     2    2.2076E+05 -1.6920E+03   2.2245E+05  0.000E+00  0.000E+00  0.000E+00  3.68602E+01  1.935E-01  2.000E+01  2.000E+04 -8.460E-02
   1   15   24     3     3    2.2245E+05 -1.3781E+03   2.2383E+05  0.000E+00  0.000E+00  0.000E+00  3.59721E+01  1.943E-01  2.000E+01  2.000E+04 -6.890E-02
   1   15   25     3     4    2.2383E+05 -1.4325E+03   2.2526E+05  0.000E+00  0.000E+00  0.000E+00  3.50839E+01  1.950E-01  2.000E+01  2.000E+04 -7.162E-02
   1   15   26     3     5    2.2526E+05 -1.9517E+03   2.2721E+05  0.000E+00  0.000E+00  0.000E+00  3.41959E+01  1.959E-01  2.000E+01  2.000E+04 -9.758E-02
   1   16   27     3     6    2.2721E+05 -2.5610E+03   2.2977E+05  0.000E+00  0.000E+00  0.000E+00  3.33082E+01  1.971E-01  2.000E+01  2.000E+04 -1.281E-01
   1   17   28     3     7    2.2977E+05 -3.3243E+03   2.3310E+05  0.000E+00  0.000E+00  0.000E+00  3.24208E+01  1.986E-01  2.000E+01  2.000E+04 -1.662E-01
   1   18   29     3     8    2.3310E+05 -4.9536E+03   2.3805E+05  0.000E+00  0.000E+00  0.000E+00  3.15340E+01  2.007E-01  2.000E+01  2.000E+04 -2.477E-01
   1   18   30     3     9    2.3805E+05 -4.4222E+03   2.4247E+05  0.000E+00  0.000E+00  0.000E+00  3.06475E+01  2.031E-01  2.000E+01  2.000E+04 -2.211E-01



1
              HEAD IN LAYER   1 AT END OF TIME STEP   1 IN STRESS PERIOD    5
  ---------------------------------------------------------------------------

          1      2      3      4      5      6      7      8      9     10
         11     12     13     14     15     16     17     18     19     20
         21     22     23     24     25     26     27     28     29     30
 .........................................................................
   1  ****** ****** ****** ****** ****** ****** ****** ****** ****** ******
      ****** ****** ****** ****** ****** ****** ****** ****** ****** ******
      ****** ****** ****** ****** ****** ****** ****** ****** ****** ******
   2  ****** ****** ****** ****** ****** ****** ****** ****** ****** ******
      ****** ****** ****** ****** ****** ****** ****** ****** ****** ******
      ****** ****** ****** ****** ****** ****** ****** ****** ****** ******
   3  ****** ****** ****** ****** ****** ****** ****** ****** ****** ******
      ****** ****** ****** ****** ****** ****** ****** ****** ****** ******
      ****** ****** ****** ****** ****** ****** ****** ****** ****** ******
   4  ****** ****** ****** ****** ****** ****** ****** ****** ****** ******
      ****** ****** ****** ****** ****** ****** ****** ****** ****** ******
      ****** ****** ****** ****** ****** ****** ****** ****** ****** ******
   5  ****** ****** ****** ****** ****** ****** ****** ****** ****** ******
      ****** ****** ****** ****** ****** ****** ****** ****** ****** ******
      ****** ****** ****** ****** ****** ****** ****** ****** ****** ******
   6  ****** ****** ****** ****** ****** ****** ****** ****** ****** ******
      ****** ****** ****** ****** ****** ****** ****** ****** ****** ******
      ****** ****** ****** ****** ****** ****** ****** ****** ****** ******
   7  ****** ****** ****** ****** ****** ****** ****** ****** ****** ******
      ****** ****** ****** ****** ****** ****** ****** ****** ****** ******
      ****** ****** ****** ****** ****** ****** ****** ****** ****** ******
   8  ****** ****** ****** ****** ****** ****** ****** ****** ****** ******
      ****** ****** ****** ****** ****** ****** ****** ****** ****** ******
      ****** ****** ****** ****** ****** ****** ****** ****** ****** ******
   9  ****** ****** ****** ****** ****** ****** ****** ****** ****** ******
      ****** ****** ****** ****** ****** ****** ****** ****** ****** ******
      ****** ****** ****** ****** ****** ****** ****** ****** ****** ******
  10  ****** ****** ****** ****** ****** ****** ****** ****** ****** ******
      ****** ****** ****** ****** ****** ****** ****** ****** ****** ******
      ****** ****** ****** ****** ****** ****** ****** ****** ****** ******
  11  ****** ****** ****** ****** ****** ****** ****** ****** ****** ******
      ****** ****** ****** ****** ****** ****** ****** ****** ****** ******
      ****** ****** ****** ****** ****** ****** ****** ****** ****** ******
  12  ****** ****** ****** ****** ****** ****** ****** ****** ****** ******
      ****** ****** ****** ****** ****** ****** ****** ****** ****** ******
      ****** ****** ****** ****** ****** ****** ****** ****** ****** ******
  13  ****** ****** ****** ****** ****** ****** ****** ****** ****** ******
      ****** ****** ****** ****** ****** ****** ****** ****** ****** ******
      ****** ****** ****** ****** ****** ****** ****** ****** ****** ******
  14  ****** ****** ****** ****** ****** ****** ****** ****** ****** ******
      ****** ****** ****** ****** ****** ****** ****** ****** ****** ******
      ****** ****** ****** ****** ****** ****** ****** ****** ****** ******
  15  ****** ****** ****** ****** ****** ****** ****** ****** ****** ******
      ****** ****** ****** ****** ****** ****** ****** ****** ****** ******
      ****** ****** ****** ****** ****** ****** ****** ****** ****** ******
  16  ****** ****** ****** ****** ****** ****** ****** ****** ****** ******
      ****** ****** ****** ****** ****** ****** ****** ****** ****** ******
      ****** ****** ****** ****** ****** ****** ****** ****** ****** ******
  17  ****** ****** ****** ****** ****** ****** ****** ****** ****** ******
      ****** ****** ****** ****** ****** ****** ****** ****** ****** ******
      ****** ****** ****** ****** ****** ****** ****** ****** ****** ******
  18  ****** ****** ****** ****** ****** ****** ****** ****** ****** ******
      ****** ****** ****** ****** ****** ****** ****** ****** ****** ******
      ****** ****** ****** ****** ****** ****** ****** ****** ****** ******
  19  ****** ****** ****** ****** ****** ****** ****** ****** ****** ******
      ****** ****** ****** ****** ****** ****** ****** ****** ****** ******
      ****** ****** ****** ****** ****** ****** ****** ****** ****** ******
  20  ****** ****** ****** ****** ****** ****** ****** ****** ****** ******
      ****** ****** ****** ****** ****** ****** ****** ****** ****** ******
      ****** ****** ****** ****** ****** ****** ****** ****** ****** ******
  21  ****** ****** ****** ****** ****** ****** ****** ****** ****** ******
      ****** ****** ****** ****** ****** ****** ****** ****** ****** ******
      ****** ****** ****** ****** ****** ****** ****** ****** ****** ******
  22  ****** ****** ****** ****** ****** ****** ****** ****** ****** ******
      ****** ****** ****** ****** ****** ****** ****** ****** ****** ******
      ****** ****** ****** ****** ****** ****** ****** ****** ****** ******
  23  ****** ****** ****** ****** ****** ****** ****** ****** ****** ******
      ****** ****** ****** ****** ****** ****** ****** ****** ****** ******
      ****** ****** ****** ****** ****** ****** ****** ****** ****** ******
  24  ****** ****** ****** ****** ****** ****** ****** ****** ****** ******
      ****** ****** ****** ****** ****** ****** ****** ****** ****** ******
      ****** ****** ****** ****** ****** ****** ****** ****** ****** ******
  25  ****** ****** ****** ****** ****** ****** ****** ****** ****** ******
      ****** ****** ****** ****** ****** ****** ****** ****** ****** ******
      ****** ****** ****** ****** ****** ****** ****** ****** ****** ******

 HEAD WILL BE SAVED ON UNIT   51 AT END OF TIME STEP    1, STRESS PERIOD    5
1
  VOLUMETRIC BUDGET FOR ENTIRE MODEL AT END OF TIME STEP    1, STRESS PERIOD   5
  ------------------------------------------------------------------------------

     CUMULATIVE VOLUMES      L**3       RATES FOR THIS TIME STEP      L**3/T
     ------------------                 ------------------------

           IN:                                      IN:
           ---                                      ---
             STORAGE =    23777179.0353               STORAGE =        4492.6812
       CONSTANT HEAD =    73605522.6692         CONSTANT HEAD =      178146.7021
               WELLS =           0.0000                 WELLS =           0.0000
            RECHARGE =    10074000.0000              RECHARGE =       13800.0000
      STREAM LEAKAGE =     4802098.4608        STREAM LEAKAGE =       13236.0790

            TOTAL IN =   112258800.1653              TOTAL IN =      209675.4623

          OUT:                                     OUT:
          ----                                     ----
             STORAGE =       21106.8955               STORAGE =           0.0000
       CONSTANT HEAD =           0.0000         CONSTANT HEAD =           0.0000
               WELLS =    47513409.5165                 WELLS =      103968.0733
            RECHARGE =           0.0000              RECHARGE =           0.0000
      STREAM LEAKAGE =    64724284.6194        STREAM LEAKAGE =      105707.3899

           TOTAL OUT =   112258801.0314             TOTAL OUT =      209675.4632

            IN - OUT =          -0.8662              IN - OUT =      -8.7391E-04

 PERCENT DISCREPANCY =          -0.00     PERCENT DISCREPANCY =          -0.00






         TIME SUMMARY AT END OF TIME STEP    1 IN STRESS PERIOD    5
                    SECONDS     MINUTES      HOURS       DAYS        YEARS
                    -----------------------------------------------------------
   TIME STEP LENGTH 7.94880E+06 1.32480E+05  2208.0      92.000     0.25188    
 STRESS PERIOD TIME 7.94880E+06 1.32480E+05  2208.0      92.000     0.25188    
         TOTAL TIME 3.94848E+07 6.58080E+05  10968.      457.00      1.2512    
1
1
                            STRESS PERIOD NO.    6, LENGTH =   91.00000    
                            -----------------------------------------------

                              NUMBER OF TIME STEPS =     1

                               MULTIPLIER FOR DELT =     1.500

                            INITIAL TIME STEP SIZE =   91.00000    

 WELL NO.  LAYER   ROW   COL   STRESS RATE         
 --------------------------------------------------
      1      1     18     11     -0.3279E+05
      2      1     23     22     -0.3365E+05
      3      1     23     15     -0.3752E+05

      3 WELLS

                 RECHARGE =  2.000000E-03

 REUSING STREAM SEGMENT DATA FROM LAST STRESS PERIOD
 
 SOLVING FOR HEAD 


     7 CALLS TO PCG ROUTINE FOR TIME STEP   1 IN STRESS PERIOD    6
    26 TOTAL ITERATIONS

 OUTPUT CONTROL FOR STRESS PERIOD    6   TIME STEP    1
    SAVE BUDGET
    SAVE HEAD FOR ALL LAYERS
    PRINT HEAD FOR ALL LAYERS
 UBDSV2 SAVING "STREAMFLOW OUT  " ON UNIT  50 AT TIME STEP  1, STRESS PERIOD   6



 STREAM LISTING     PERIOD      6   STEP        1

 LAYER ROW COL. STREAM  RCH.  FLOW INTO     FLOW TO   FLOW OUT OF   OVRLND.     DIRECT     STREAM       STREAM     STREAM     STREAM   STREAMBED  STREAMBED
                SEG.NO.  NO.  STRM. RCH.    AQUIFER    STRM. RCH.    RUNOFF     PRECIP       ET          HEAD       DEPTH      WIDTH   CONDCTNC.   GRADIENT

   1   13    1     1     1    1.0000E+05 -3.1199E+03   1.0312E+05  0.000E+00  0.000E+00  0.000E+00  4.84074E+01  1.460E-01  2.000E+01  2.000E+04 -1.560E-01
   1   13    2     1     2    1.0312E+05 -5.1762E+03   1.0830E+05  0.000E+00  0.000E+00  0.000E+00  4.79336E+01  1.496E-01  2.000E+01  2.000E+04 -2.588E-01
   1   14    3     1     3    1.0830E+05 -4.1449E+03   1.1244E+05  0.000E+00  0.000E+00  0.000E+00  4.74603E+01  1.535E-01  2.000E+01  2.000E+04 -2.072E-01
   1   15    4     1     4    1.1244E+05 -3.9197E+03   1.1636E+05  0.000E+00  0.000E+00  0.000E+00  4.69864E+01  1.568E-01  2.000E+01  2.000E+04 -1.960E-01
   1   16    5     1     5    1.1636E+05 -3.8136E+03   1.2017E+05  0.000E+00  0.000E+00  0.000E+00  4.65122E+01  1.600E-01  2.000E+01  2.000E+04 -1.907E-01
   1   16    6     1     6    1.2017E+05 -2.8356E+03   1.2301E+05  0.000E+00  0.000E+00  0.000E+00  4.60377E+01  1.627E-01  2.000E+01  2.000E+04 -1.418E-01
   1   16    7     1     7    1.2301E+05 -2.5702E+03   1.2558E+05  0.000E+00  0.000E+00  0.000E+00  4.55625E+01  1.648E-01  2.000E+01  2.000E+04 -1.285E-01
   1   16    8     1     8    1.2558E+05 -2.0292E+03   1.2761E+05  0.000E+00  0.000E+00  0.000E+00  4.50871E+01  1.666E-01  2.000E+01  2.000E+04 -1.015E-01
   1   16    9     1     9    1.2761E+05 -1.0344E+03   1.2864E+05  0.000E+00  0.000E+00  0.000E+00  4.46110E+01  1.678E-01  2.000E+01  2.000E+04 -5.172E-02
   1   16   10     1    10    1.2864E+05  6.2215E+02   1.2802E+05  0.000E+00  0.000E+00  0.000E+00  4.41339E+01  1.680E-01  2.000E+01  2.000E+04  3.111E-02
   1   16   11     1    11    1.2802E+05  2.6689E+03   1.2535E+05  0.000E+00  0.000E+00  0.000E+00  4.36553E+01  1.667E-01  2.000E+01  2.000E+04  1.334E-01
   1   16   12     1    12    1.2535E+05  1.5187E+03   1.2383E+05  0.000E+00  0.000E+00  0.000E+00  4.31764E+01  1.651E-01  2.000E+01  2.000E+04  7.594E-02
   1   15   13     1    13    1.2383E+05 -2.0132E+03   1.2585E+05  0.000E+00  0.000E+00  0.000E+00  4.26993E+01  1.652E-01  2.000E+01  2.000E+04 -1.007E-01
   1   14   14     1    14    1.2585E+05 -3.1411E+03   1.2899E+05  0.000E+00  0.000E+00  0.000E+00  4.22241E+01  1.673E-01  2.000E+01  2.000E+04 -1.571E-01
   1   13   15     1    15    1.2899E+05 -3.9811E+03   1.3297E+05  0.000E+00  0.000E+00  0.000E+00  4.17496E+01  1.701E-01  2.000E+01  2.000E+04 -1.991E-01
   1   12   16     1    16    1.3297E+05 -5.6231E+03   1.3859E+05  0.000E+00  0.000E+00  0.000E+00  4.12761E+01  1.738E-01  2.000E+01  2.000E+04 -2.812E-01
   1   12   17     1    17    1.3859E+05 -3.5745E+03   1.4217E+05  0.000E+00  0.000E+00  0.000E+00  4.08023E+01  1.773E-01  2.000E+01  2.000E+04 -1.787E-01
   1   12   18     1    18    1.4217E+05 -3.4481E+03   1.4562E+05  0.000E+00  0.000E+00  0.000E+00  4.03277E+01  1.799E-01  2.000E+01  2.000E+04 -1.724E-01
   1   12   19     1    19    1.4562E+05 -4.6702E+03   1.5029E+05  0.000E+00  0.000E+00  0.000E+00  3.98534E+01  1.830E-01  2.000E+01  2.000E+04 -2.335E-01
   1   13   20     1    20    1.5029E+05 -2.7604E+03   1.5305E+05  0.000E+00  0.000E+00  0.000E+00  3.93789E+01  1.857E-01  2.000E+01  2.000E+04 -1.380E-01
   1   14   21     1    21    1.5305E+05 -1.5832E+03   1.5463E+05  0.000E+00  0.000E+00  0.000E+00  3.89032E+01  1.873E-01  2.000E+01  2.000E+04 -7.916E-02
   1   14   22     1    22    1.5463E+05  4.9599E+03   1.4967E+05  0.000E+00  0.000E+00  0.000E+00  3.84247E+01  1.861E-01  2.000E+01  2.000E+04  2.480E-01
   1    9   30     2     1    5.0000E+04 -3.0436E+03   5.3044E+04  0.000E+00  0.000E+00  0.000E+00  4.02430E+01  1.180E-01  2.000E+01  2.000E+04 -1.522E-01
   1    9   29     2     2    5.3044E+04 -3.3736E+03   5.6417E+04  0.000E+00  0.000E+00  0.000E+00  3.99973E+01  1.223E-01  2.000E+01  2.000E+04 -1.687E-01
   1    9   28     2     3    5.6417E+04 -3.7535E+03   6.0171E+04  0.000E+00  0.000E+00  0.000E+00  3.97520E+01  1.270E-01  2.000E+01  2.000E+04 -1.877E-01
   1    9   27     2     4    6.0171E+04 -6.5748E+03   6.6746E+04  0.000E+00  0.000E+00  0.000E+00  3.95087E+01  1.337E-01  2.000E+01  2.000E+04 -3.287E-01
   1   10   26     2     5    6.6746E+04 -4.2153E+03   7.0961E+04  0.000E+00  0.000E+00  0.000E+00  3.92654E+01  1.404E-01  2.000E+01  2.000E+04 -2.108E-01
   1   11   25     2     6    7.0961E+04 -3.1533E+03   7.4114E+04  0.000E+00  0.000E+00  0.000E+00  3.90198E+01  1.448E-01  2.000E+01  2.000E+04 -1.577E-01
   1   12   24     2     7    7.4114E+04 -2.2636E+03   7.6378E+04  0.000E+00  0.000E+00  0.000E+00  3.87731E+01  1.481E-01  2.000E+01  2.000E+04 -1.132E-01
   1   13   23     2     8    7.6378E+04 -1.3638E+03   7.7741E+04  0.000E+00  0.000E+00  0.000E+00  3.85252E+01  1.502E-01  2.000E+01  2.000E+04 -6.819E-02
   1   14   22     2     9    7.7741E+04  1.9627E+03   7.5779E+04  0.000E+00  0.000E+00  0.000E+00  3.82748E+01  1.498E-01  2.000E+01  2.000E+04  9.813E-02
   1   14   22     3     1    2.2545E+05 -8.4694E+03   2.3392E+05  0.000E+00  0.000E+00  0.000E+00  3.77532E+01  1.977E-01  2.000E+01  2.000E+04 -4.235E-01
   1   15   23     3     2    2.3392E+05 -2.0830E+03   2.3600E+05  0.000E+00  0.000E+00  0.000E+00  3.68671E+01  2.004E-01  2.000E+01  2.000E+04 -1.042E-01
   1   15   24     3     3    2.3600E+05 -1.6624E+03   2.3766E+05  0.000E+00  0.000E+00  0.000E+00  3.59791E+01  2.014E-01  2.000E+01  2.000E+04 -8.312E-02
   1   15   25     3     4    2.3766E+05 -1.7184E+03   2.3938E+05  0.000E+00  0.000E+00  0.000E+00  3.50911E+01  2.022E-01  2.000E+01  2.000E+04 -8.592E-02
   1   15   26     3     5    2.3938E+05 -2.3216E+03   2.4170E+05  0.000E+00  0.000E+00  0.000E+00  3.42032E+01  2.032E-01  2.000E+01  2.000E+04 -1.161E-01
   1   16   27     3     6    2.4170E+05 -3.0242E+03   2.4473E+05  0.000E+00  0.000E+00  0.000E+00  3.33157E+01  2.046E-01  2.000E+01  2.000E+04 -1.512E-01
   1   17   28     3     7    2.4473E+05 -3.7970E+03   2.4852E+05  0.000E+00  0.000E+00  0.000E+00  3.24285E+01  2.063E-01  2.000E+01  2.000E+04 -1.899E-01
   1   18   29     3     8    2.4852E+05 -5.3968E+03   2.5392E+05  0.000E+00  0.000E+00  0.000E+00  3.15419E+01  2.086E-01  2.000E+01  2.000E+04 -2.698E-01
   1   18   30     3     9    2.5392E+05 -4.7574E+03   2.5868E+05  0.000E+00  0.000E+00  0.000E+00  3.06556E+01  2.111E-01  2.000E+01  2.000E+04 -2.379E-01



1
              HEAD IN LAYER   1 AT END OF TIME STEP   1 IN STRESS PERIOD    6
  ---------------------------------------------------------------------------

          1      2      3      4      5      6      7      8      9     10
         11     12     13     14     15     16     17     18     19     20
         21     22     23     24     25     26     27     28     29     30
 .........................................................................
   1  ****** ****** ****** ****** ****** ****** ****** ****** ****** ******
      ****** ****** ****** ****** ****** ****** ****** ****** ****** ******
      ****** ****** ****** ****** ****** ****** ****** ****** ****** ******
   2  ****** ****** ****** ****** ****** ****** ****** ****** ****** ******
      ****** ****** ****** ****** ****** ****** ****** ****** ****** ******
      ****** ****** ****** ****** ****** ****** ****** ****** ****** ******
   3  ****** ****** ****** ****** ****** ****** ****** ****** ****** ******
      ****** ****** ****** ****** ****** ****** ****** ****** ****** ******
      ****** ****** ****** ****** ****** ****** ****** ****** ****** ******
   4  ****** ****** ****** ****** ****** ****** ****** ****** ****** ******
      ****** ****** ****** ****** ****** ****** ****** ****** ****** ******
      ****** ****** ****** ****** ****** ****** ****** ****** ****** ******
   5  ****** ****** ****** ****** ****** ****** ****** ****** ****** ******
      ****** ****** ****** ****** ****** ****** ****** ****** ****** ******
      ****** ****** ****** ****** ****** ****** ****** ****** ****** ******
   6  ****** ****** ****** ****** ****** ****** ****** ****** ****** ******
      ****** ****** ****** ****** ****** ****** ****** ****** ****** ******
      ****** ****** ****** ****** ****** ****** ****** ****** ****** ******
   7  ****** ****** ****** ****** ****** ****** ****** ****** ****** ******
      ****** ****** ****** ****** ****** ****** ****** ****** ****** ******
      ****** ****** ****** ****** ****** ****** ****** ****** ****** ******
   8  ****** ****** ****** ****** ****** ****** ****** ****** ****** ******
      ****** ****** ****** ****** ****** ****** ****** ****** ****** ******
      ****** ****** ****** ****** ****** ****** ****** ****** ****** ******
   9  ****** ****** ****** ****** ****** ****** ****** ****** ****** ******
      ****** ****** ****** ****** ****** ****** ****** ****** ****** ******
      ****** ****** ****** ****** ****** ****** ****** ****** ****** ******
  10  ****** ****** ****** ****** ****** ****** ****** ****** ****** ******
      ****** ****** ****** ****** ****** ****** ****** ****** ****** ******
      ****** ****** ****** ****** ****** ****** ****** ****** ****** ******
  11  ****** ****** ****** ****** ****** ****** ****** ****** ****** ******
      ****** ****** ****** ****** ****** ****** ****** ****** ****** ******
      ****** ****** ****** ****** ****** ****** ****** ****** ****** ******
  12  ****** ****** ****** ****** ****** ****** ****** ****** ****** ******
      ****** ****** ****** ****** ****** ****** ****** ****** ****** ******
      ****** ****** ****** ****** ****** ****** ****** ****** ****** ******
  13  ****** ****** ****** ****** ****** ****** ****** ****** ****** ******
      ****** ****** ****** ****** ****** ****** ****** ****** ****** ******
      ****** ****** ****** ****** ****** ****** ****** ****** ****** ******
  14  ****** ****** ****** ****** ****** ****** ****** ****** ****** ******
      ****** ****** ****** ****** ****** ****** ****** ****** ****** ******
      ****** ****** ****** ****** ****** ****** ****** ****** ****** ******
  15  ****** ****** ****** ****** ****** ****** ****** ****** ****** ******
      ****** ****** ****** ****** ****** ****** ****** ****** ****** ******
      ****** ****** ****** ****** ****** ****** ****** ****** ****** ******
  16  ****** ****** ****** ****** ****** ****** ****** ****** ****** ******
      ****** ****** ****** ****** ****** ****** ****** ****** ****** ******
      ****** ****** ****** ****** ****** ****** ****** ****** ****** ******
  17  ****** ****** ****** ****** ****** ****** ****** ****** ****** ******
      ****** ****** ****** ****** ****** ****** ****** ****** ****** ******
      ****** ****** ****** ****** ****** ****** ****** ****** ****** ******
  18  ****** ****** ****** ****** ****** ****** ****** ****** ****** ******
      ****** ****** ****** ****** ****** ****** ****** ****** ****** ******
      ****** ****** ****** ****** ****** ****** ****** ****** ****** ******
  19  ****** ****** ****** ****** ****** ****** ****** ****** ****** ******
      ****** ****** ****** ****** ****** ****** ****** ****** ****** ******
      ****** ****** ****** ****** ****** ****** ****** ****** ****** ******
  20  ****** ****** ****** ****** ****** ****** ****** ****** ****** ******
      ****** ****** ****** ****** ****** ****** ****** ****** ****** ******
      ****** ****** ****** ****** ****** ****** ****** ****** ****** ******
  21  ****** ****** ****** ****** ****** ****** ****** ****** ****** ******
      ****** ****** ****** ****** ****** ****** ****** ****** ****** ******
      ****** ****** ****** ****** ****** ****** ****** ****** ****** ******
  22  ****** ****** ****** ****** ****** ****** ****** ****** ****** ******
      ****** ****** ****** ****** ****** ****** ****** ****** ****** ******
      ****** ****** ****** ****** ****** ****** ****** ****** ****** ******
  23  ****** ****** ****** ****** ****** ****** ****** ****** ****** ******
      ****** ****** ****** ****** ****** ****** ****** ****** ****** ******
      ****** ****** ****** ****** ****** ****** ****** ****** ****** ******
  24  ****** ****** ****** ****** ****** ****** ****** ****** ****** ******
      ****** ****** ****** ****** ****** ****** ****** ****** ****** ******
      ****** ****** ****** ****** ****** ****** ****** ****** ****** ******
  25  ****** ****** ****** ****** ****** ****** ****** ****** ****** ******
      ****** ****** ****** ****** ****** ****** ****** ****** ****** ******
      ****** ****** ****** ****** ****** ****** ****** ****** ****** ******

 HEAD WILL BE SAVED ON UNIT   51 AT END OF TIME STEP    1, STRESS PERIOD    6
1
  VOLUMETRIC BUDGET FOR ENTIRE MODEL AT END OF TIME STEP    1, STRESS PERIOD   6
  ------------------------------------------------------------------------------

     CUMULATIVE VOLUMES      L**3       RATES FOR THIS TIME STEP      L**3/T
     ------------------                 ------------------------

           IN:                                      IN:
           ---                                      ---
             STORAGE =    23777179.0353               STORAGE =           0.0000
       CONSTANT HEAD =    88850544.8808         CONSTANT HEAD =      167527.7166
               WELLS =           0.0000                 WELLS =           0.0000
            RECHARGE =    15097200.0000              RECHARGE =       55200.0000
      STREAM LEAKAGE =     5869745.9857        STREAM LEAKAGE =       11732.3904

            TOTAL IN =   133594669.9018              TOTAL IN =      234460.1070

          OUT:                                     OUT:
          ----                                     ----
             STORAGE =      938538.2088               STORAGE =       10081.6628
       CONSTANT HEAD =           0.0000         CONSTANT HEAD =           0.0000
               WELLS =    56974504.1904                 WELLS =      103968.0733
            RECHARGE =           0.0000              RECHARGE =           0.0000
      STREAM LEAKAGE =    75681628.2018        STREAM LEAKAGE =      120410.3690

           TOTAL OUT =   133594670.6010             TOTAL OUT =      234460.1052

            IN - OUT =          -0.6992              IN - OUT =       1.8347E-03

 PERCENT DISCREPANCY =          -0.00     PERCENT DISCREPANCY =           0.00






         TIME SUMMARY AT END OF TIME STEP    1 IN STRESS PERIOD    6
                    SECONDS     MINUTES      HOURS       DAYS        YEARS
                    -----------------------------------------------------------
   TIME STEP LENGTH 7.86240E+06 1.31040E+05  2184.0      91.000     0.24914    
 STRESS PERIOD TIME 7.86240E+06 1.31040E+05  2184.0      91.000     0.24914    
         TOTAL TIME 4.73472E+07 7.89120E+05  13152.      548.00      1.5003    
1
1
                            STRESS PERIOD NO.    7, LENGTH =   91.00000    
                            -----------------------------------------------

                              NUMBER OF TIME STEPS =     1

                               MULTIPLIER FOR DELT =     1.500

                            INITIAL TIME STEP SIZE =   91.00000    

 WELL NO.  LAYER   ROW   COL   STRESS RATE         
 --------------------------------------------------
      1      1     18     11     -0.1485E+05
      2      1     23     22     -0.3063E+05
      3      1     23     15     -0.2952E+05

      3 WELLS

                 RECHARGE =   0.00000    

 REUSING STREAM SEGMENT DATA FROM LAST STRESS PERIOD
 
 SOLVING FOR HEAD 


     6 CALLS TO PCG ROUTINE FOR TIME STEP   1 IN STRESS PERIOD    7
    23 TOTAL ITERATIONS

 OUTPUT CONTROL FOR STRESS PERIOD    7   TIME STEP    1
    SAVE BUDGET
    SAVE HEAD FOR ALL LAYERS
    PRINT HEAD FOR ALL LAYERS
 UBDSV2 SAVING "STREAMFLOW OUT  " ON UNIT  50 AT TIME STEP  1, STRESS PERIOD   7



 STREAM LISTING     PERIOD      7   STEP        1

 LAYER ROW COL. STREAM  RCH.  FLOW INTO     FLOW TO   FLOW OUT OF   OVRLND.     DIRECT     STREAM       STREAM     STREAM     STREAM   STREAMBED  STREAMBED
                SEG.NO.  NO.  STRM. RCH.    AQUIFER    STRM. RCH.    RUNOFF     PRECIP       ET          HEAD       DEPTH      WIDTH   CONDCTNC.   GRADIENT

   1   13    1     1     1    1.0000E+05 -2.6401E+03   1.0264E+05  0.000E+00  0.000E+00  0.000E+00  4.84072E+01  1.458E-01  2.000E+01  2.000E+04 -1.320E-01
   1   13    2     1     2    1.0264E+05 -4.5401E+03   1.0718E+05  0.000E+00  0.000E+00  0.000E+00  4.79330E+01  1.489E-01  2.000E+01  2.000E+04 -2.270E-01
   1   14    3     1     3    1.0718E+05 -3.5112E+03   1.1069E+05  0.000E+00  0.000E+00  0.000E+00  4.74591E+01  1.523E-01  2.000E+01  2.000E+04 -1.756E-01
   1   15    4     1     4    1.1069E+05 -3.3234E+03   1.1401E+05  0.000E+00  0.000E+00  0.000E+00  4.69847E+01  1.551E-01  2.000E+01  2.000E+04 -1.662E-01
   1   16    5     1     5    1.1401E+05 -3.3910E+03   1.1741E+05  0.000E+00  0.000E+00  0.000E+00  4.65102E+01  1.579E-01  2.000E+01  2.000E+04 -1.696E-01
   1   16    6     1     6    1.1741E+05 -2.5799E+03   1.1999E+05  0.000E+00  0.000E+00  0.000E+00  4.60353E+01  1.603E-01  2.000E+01  2.000E+04 -1.290E-01
   1   16    7     1     7    1.1999E+05 -2.4479E+03   1.2243E+05  0.000E+00  0.000E+00  0.000E+00  4.55601E+01  1.623E-01  2.000E+01  2.000E+04 -1.224E-01
   1   16    8     1     8    1.2243E+05 -2.1576E+03   1.2459E+05  0.000E+00  0.000E+00  0.000E+00  4.50846E+01  1.642E-01  2.000E+01  2.000E+04 -1.079E-01
   1   16    9     1     9    1.2459E+05 -1.6217E+03   1.2621E+05  0.000E+00  0.000E+00  0.000E+00  4.46089E+01  1.657E-01  2.000E+01  2.000E+04 -8.108E-02
   1   16   10     1    10    1.2621E+05 -7.4984E+02   1.2696E+05  0.000E+00  0.000E+00  0.000E+00  4.41325E+01  1.666E-01  2.000E+01  2.000E+04 -3.749E-02
   1   16   11     1    11    1.2696E+05  3.1481E+02   1.2665E+05  0.000E+00  0.000E+00  0.000E+00  4.36554E+01  1.668E-01  2.000E+01  2.000E+04  1.574E-02
   1   16   12     1    12    1.2665E+05 -2.8135E+02   1.2693E+05  0.000E+00  0.000E+00  0.000E+00  4.31782E+01  1.668E-01  2.000E+01  2.000E+04 -1.407E-02
   1   15   13     1    13    1.2693E+05 -2.0511E+03   1.2898E+05  0.000E+00  0.000E+00  0.000E+00  4.27018E+01  1.677E-01  2.000E+01  2.000E+04 -1.026E-01
   1   14   14     1    14    1.2898E+05 -2.7705E+03   1.3175E+05  0.000E+00  0.000E+00  0.000E+00  4.22264E+01  1.696E-01  2.000E+01  2.000E+04 -1.385E-01
   1   13   15     1    15    1.3175E+05 -3.4617E+03   1.3521E+05  0.000E+00  0.000E+00  0.000E+00  4.17516E+01  1.720E-01  2.000E+01  2.000E+04 -1.731E-01
   1   12   16     1    16    1.3521E+05 -5.0361E+03   1.4025E+05  0.000E+00  0.000E+00  0.000E+00  4.12776E+01  1.753E-01  2.000E+01  2.000E+04 -2.518E-01
   1   12   17     1    17    1.4025E+05 -3.1546E+03   1.4340E+05  0.000E+00  0.000E+00  0.000E+00  4.08034E+01  1.784E-01  2.000E+01  2.000E+04 -1.577E-01
   1   12   18     1    18    1.4340E+05 -3.0292E+03   1.4643E+05  0.000E+00  0.000E+00  0.000E+00  4.03284E+01  1.807E-01  2.000E+01  2.000E+04 -1.515E-01
   1   12   19     1    19    1.4643E+05 -4.1308E+03   1.5056E+05  0.000E+00  0.000E+00  0.000E+00  3.98538E+01  1.834E-01  2.000E+01  2.000E+04 -2.065E-01
   1   13   20     1    20    1.5056E+05 -2.2794E+03   1.5284E+05  0.000E+00  0.000E+00  0.000E+00  3.93789E+01  1.857E-01  2.000E+01  2.000E+04 -1.140E-01
   1   14   21     1    21    1.5284E+05 -1.1863E+03   1.5403E+05  0.000E+00  0.000E+00  0.000E+00  3.89029E+01  1.870E-01  2.000E+01  2.000E+04 -5.931E-02
   1   14   22     1    22    1.5403E+05  5.1111E+03   1.4892E+05  0.000E+00  0.000E+00  0.000E+00  3.84242E+01  1.856E-01  2.000E+01  2.000E+04  2.556E-01
   1    9   30     2     1    5.0000E+04 -2.6012E+03   5.2601E+04  0.000E+00  0.000E+00  0.000E+00  4.02427E+01  1.177E-01  2.000E+01  2.000E+04 -1.301E-01
   1    9   29     2     2    5.2601E+04 -2.9349E+03   5.5536E+04  0.000E+00  0.000E+00  0.000E+00  3.99964E+01  1.214E-01  2.000E+01  2.000E+04 -1.467E-01
   1    9   28     2     3    5.5536E+04 -3.3180E+03   5.8854E+04  0.000E+00  0.000E+00  0.000E+00  3.97506E+01  1.256E-01  2.000E+01  2.000E+04 -1.659E-01
   1    9   27     2     4    5.8854E+04 -6.0001E+03   6.4854E+04  0.000E+00  0.000E+00  0.000E+00  3.95066E+01  1.316E-01  2.000E+01  2.000E+04 -3.000E-01
   1   10   26     2     5    6.4854E+04 -3.6152E+03   6.8469E+04  0.000E+00  0.000E+00  0.000E+00  3.92627E+01  1.377E-01  2.000E+01  2.000E+04 -1.808E-01
   1   11   25     2     6    6.8469E+04 -2.5772E+03   7.1047E+04  0.000E+00  0.000E+00  0.000E+00  3.90165E+01  1.415E-01  2.000E+01  2.000E+04 -1.289E-01
   1   12   24     2     7    7.1047E+04 -1.7521E+03   7.2799E+04  0.000E+00  0.000E+00  0.000E+00  3.87691E+01  1.441E-01  2.000E+01  2.000E+04 -8.760E-02
   1   13   23     2     8    7.2799E+04 -9.6510E+02   7.3764E+04  0.000E+00  0.000E+00  0.000E+00  3.85207E+01  1.457E-01  2.000E+01  2.000E+04 -4.826E-02
   1   14   22     2     9    7.3764E+04  2.0288E+03   7.1735E+04  0.000E+00  0.000E+00  0.000E+00  3.82701E+01  1.451E-01  2.000E+01  2.000E+04  1.014E-01
   1   14   22     3     1    2.2065E+05 -8.3586E+03   2.2901E+05  0.000E+00  0.000E+00  0.000E+00  3.77507E+01  1.952E-01  2.000E+01  2.000E+04 -4.179E-01
   1   15   23     3     2    2.2901E+05 -1.7086E+03   2.3072E+05  0.000E+00  0.000E+00  0.000E+00  3.68644E+01  1.978E-01  2.000E+01  2.000E+04 -8.543E-02
   1   15   24     3     3    2.3072E+05 -1.3555E+03   2.3208E+05  0.000E+00  0.000E+00  0.000E+00  3.59763E+01  1.986E-01  2.000E+01  2.000E+04 -6.777E-02
   1   15   25     3     4    2.3208E+05 -1.3920E+03   2.3347E+05  0.000E+00  0.000E+00  0.000E+00  3.50882E+01  1.993E-01  2.000E+01  2.000E+04 -6.960E-02
   1   15   26     3     5    2.3347E+05 -1.8757E+03   2.3534E+05  0.000E+00  0.000E+00  0.000E+00  3.42001E+01  2.001E-01  2.000E+01  2.000E+04 -9.378E-02
   1   16   27     3     6    2.3534E+05 -2.4872E+03   2.3783E+05  0.000E+00  0.000E+00  0.000E+00  3.33123E+01  2.012E-01  2.000E+01  2.000E+04 -1.244E-01
   1   17   28     3     7    2.3783E+05 -3.2513E+03   2.4108E+05  0.000E+00  0.000E+00  0.000E+00  3.24249E+01  2.027E-01  2.000E+01  2.000E+04 -1.626E-01
   1   18   29     3     8    2.4108E+05 -4.8916E+03   2.4597E+05  0.000E+00  0.000E+00  0.000E+00  3.15381E+01  2.048E-01  2.000E+01  2.000E+04 -2.446E-01
   1   18   30     3     9    2.4597E+05 -4.3572E+03   2.5033E+05  0.000E+00  0.000E+00  0.000E+00  3.06515E+01  2.071E-01  2.000E+01  2.000E+04 -2.179E-01



1
              HEAD IN LAYER   1 AT END OF TIME STEP   1 IN STRESS PERIOD    7
  ---------------------------------------------------------------------------

          1      2      3      4      5      6      7      8      9     10
         11     12     13     14     15     16     17     18     19     20
         21     22     23     24     25     26     27     28     29     30
 .........................................................................
   1  ****** ****** ****** ****** ****** ****** ****** ****** ****** ******
      ****** ****** ****** ****** ****** ****** ****** ****** ****** ******
      ****** ****** ****** ****** ****** ****** ****** ****** ****** ******
   2  ****** ****** ****** ****** ****** ****** ****** ****** ****** ******
      ****** ****** ****** ****** ****** ****** ****** ****** ****** ******
      ****** ****** ****** ****** ****** ****** ****** ****** ****** ******
   3  ****** ****** ****** ****** ****** ****** ****** ****** ****** ******
      ****** ****** ****** ****** ****** ****** ****** ****** ****** ******
      ****** ****** ****** ****** ****** ****** ****** ****** ****** ******
   4  ****** ****** ****** ****** ****** ****** ****** ****** ****** ******
      ****** ****** ****** ****** ****** ****** ****** ****** ****** ******
      ****** ****** ****** ****** ****** ****** ****** ****** ****** ******
   5  ****** ****** ****** ****** ****** ****** ****** ****** ****** ******
      ****** ****** ****** ****** ****** ****** ****** ****** ****** ******
      ****** ****** ****** ****** ****** ****** ****** ****** ****** ******
   6  ****** ****** ****** ****** ****** ****** ****** ****** ****** ******
      ****** ****** ****** ****** ****** ****** ****** ****** ****** ******
      ****** ****** ****** ****** ****** ****** ****** ****** ****** ******
   7  ****** ****** ****** ****** ****** ****** ****** ****** ****** ******
      ****** ****** ****** ****** ****** ****** ****** ****** ****** ******
      ****** ****** ****** ****** ****** ****** ****** ****** ****** ******
   8  ****** ****** ****** ****** ****** ****** ****** ****** ****** ******
      ****** ****** ****** ****** ****** ****** ****** ****** ****** ******
      ****** ****** ****** ****** ****** ****** ****** ****** ****** ******
   9  ****** ****** ****** ****** ****** ****** ****** ****** ****** ******
      ****** ****** ****** ****** ****** ****** ****** ****** ****** ******
      ****** ****** ****** ****** ****** ****** ****** ****** ****** ******
  10  ****** ****** ****** ****** ****** ****** ****** ****** ****** ******
      ****** ****** ****** ****** ****** ****** ****** ****** ****** ******
      ****** ****** ****** ****** ****** ****** ****** ****** ****** ******
  11  ****** ****** ****** ****** ****** ****** ****** ****** ****** ******
      ****** ****** ****** ****** ****** ****** ****** ****** ****** ******
      ****** ****** ****** ****** ****** ****** ****** ****** ****** ******
  12  ****** ****** ****** ****** ****** ****** ****** ****** ****** ******
      ****** ****** ****** ****** ****** ****** ****** ****** ****** ******
      ****** ****** ****** ****** ****** ****** ****** ****** ****** ******
  13  ****** ****** ****** ****** ****** ****** ****** ****** ****** ******
      ****** ****** ****** ****** ****** ****** ****** ****** ****** ******
      ****** ****** ****** ****** ****** ****** ****** ****** ****** ******
  14  ****** ****** ****** ****** ****** ****** ****** ****** ****** ******
      ****** ****** ****** ****** ****** ****** ****** ****** ****** ******
      ****** ****** ****** ****** ****** ****** ****** ****** ****** ******
  15  ****** ****** ****** ****** ****** ****** ****** ****** ****** ******
      ****** ****** ****** ****** ****** ****** ****** ****** ****** ******
      ****** ****** ****** ****** ****** ****** ****** ****** ****** ******
  16  ****** ****** ****** ****** ****** ****** ****** ****** ****** ******
      ****** ****** ****** ****** ****** ****** ****** ****** ****** ******
      ****** ****** ****** ****** ****** ****** ****** ****** ****** ******
  17  ****** ****** ****** ****** ****** ****** ****** ****** ****** ******
      ****** ****** ****** ****** ****** ****** ****** ****** ****** ******
      ****** ****** ****** ****** ****** ****** ****** ****** ****** ******
  18  ****** ****** ****** ****** ****** ****** ****** ****** ****** ******
      ****** ****** ****** ****** ****** ****** ****** ****** ****** ******
      ****** ****** ****** ****** ****** ****** ****** ****** ****** ******
  19  ****** ****** ****** ****** ****** ****** ****** ****** ****** ******
      ****** ****** ****** ****** ****** ****** ****** ****** ****** ******
      ****** ****** ****** ****** ****** ****** ****** ****** ****** ******
  20  ****** ****** ****** ****** ****** ****** ****** ****** ****** ******
      ****** ****** ****** ****** ****** ****** ****** ****** ****** ******
      ****** ****** ****** ****** ****** ****** ****** ****** ****** ******
  21  ****** ****** ****** ****** ****** ****** ****** ****** ****** ******
      ****** ****** ****** ****** ****** ****** ****** ****** ****** ******
      ****** ****** ****** ****** ****** ****** ****** ****** ****** ******
  22  ****** ****** ****** ****** ****** ****** ****** ****** ****** ******
      ****** ****** ****** ****** ****** ****** ****** ****** ****** ******
      ****** ****** ****** ****** ****** ****** ****** ****** ****** ******
  23  ****** ****** ****** ****** ****** ****** ****** ****** ****** ******
      ****** ****** ****** ****** ****** ****** ****** ****** ****** ******
      ****** ****** ****** ****** ****** ****** ****** ****** ****** ******
  24  ****** ****** ****** ****** ****** ****** ****** ****** ****** ******
      ****** ****** ****** ****** ****** ****** ****** ****** ****** ******
      ****** ****** ****** ****** ****** ****** ****** ****** ****** ******
  25  ****** ****** ****** ****** ****** ****** ****** ****** ****** ******
      ****** ****** ****** ****** ****** ****** ****** ****** ****** ******
      ****** ****** ****** ****** ****** ****** ****** ****** ****** ******

 HEAD WILL BE SAVED ON UNIT   51 AT END OF TIME STEP    1, STRESS PERIOD    7
1
  VOLUMETRIC BUDGET FOR ENTIRE MODEL AT END OF TIME STEP    1, STRESS PERIOD   7
  ------------------------------------------------------------------------------

     CUMULATIVE VOLUMES      L**3       RATES FOR THIS TIME STEP      L**3/T
     ------------------                 ------------------------

           IN:                                      IN:
           ---                                      ---
             STORAGE =    24574180.5206               STORAGE =        8758.2581
       CONSTANT HEAD =   104387649.3931         CONSTANT HEAD =      170737.4122
               WELLS =           0.0000                 WELLS =           0.0000
            RECHARGE =    15097200.0000              RECHARGE =           0.0000
      STREAM LEAKAGE =     6548129.4185        STREAM LEAKAGE =        7454.7630

            TOTAL IN =   150607159.3322              TOTAL IN =      186950.4333

          OUT:                                     OUT:
          ----                                     ----
             STORAGE =     1316749.8714               STORAGE =        4156.1721
       CONSTANT HEAD =           0.0000         CONSTANT HEAD =           0.0000
               WELLS =    63800311.9968                 WELLS =       75008.8770
            RECHARGE =           0.0000              RECHARGE =           0.0000
      STREAM LEAKAGE =    85490098.2665        STREAM LEAKAGE =      107785.3853

           TOTAL OUT =   150607160.1347             TOTAL OUT =      186950.4344

            IN - OUT =          -0.8025              IN - OUT =      -1.1350E-03

 PERCENT DISCREPANCY =          -0.00     PERCENT DISCREPANCY =          -0.00






         TIME SUMMARY AT END OF TIME STEP    1 IN STRESS PERIOD    7
                    SECONDS     MINUTES      HOURS       DAYS        YEARS
                    -----------------------------------------------------------
   TIME STEP LENGTH 7.86240E+06 1.31040E+05  2184.0      91.000     0.24914    
 STRESS PERIOD TIME 7.86240E+06 1.31040E+05  2184.0      91.000     0.24914    
         TOTAL TIME 5.52096E+07 9.20160E+05  15336.      639.00      1.7495    
1
1
                            STRESS PERIOD NO.    8, LENGTH =   91.00000    
                            -----------------------------------------------

                              NUMBER OF TIME STEPS =     1

                               MULTIPLIER FOR DELT =     1.500

                            INITIAL TIME STEP SIZE =   91.00000    

 WELL NO.  LAYER   ROW   COL   STRESS RATE         
 --------------------------------------------------
      1      1     18     11     -0.1485E+05
      2      1     23     22     -0.3063E+05
      3      1     23     15     -0.2952E+05

      3 WELLS

                 RECHARGE =  1.000000E-03

 REUSING STREAM SEGMENT DATA FROM LAST STRESS PERIOD
 
 SOLVING FOR HEAD 


     6 CALLS TO PCG ROUTINE FOR TIME STEP   1 IN STRESS PERIOD    8
    23 TOTAL ITERATIONS

 OUTPUT CONTROL FOR STRESS PERIOD    8   TIME STEP    1
    SAVE BUDGET
    SAVE HEAD FOR ALL LAYERS
    PRINT HEAD FOR ALL LAYERS
 UBDSV2 SAVING "STREAMFLOW OUT  " ON UNIT  50 AT TIME STEP  1, STRESS PERIOD   8



 STREAM LISTING     PERIOD      8   STEP        1

 LAYER ROW COL. STREAM  RCH.  FLOW INTO     FLOW TO   FLOW OUT OF   OVRLND.     DIRECT     STREAM       STREAM     STREAM     STREAM   STREAMBED  STREAMBED
                SEG.NO.  NO.  STRM. RCH.    AQUIFER    STRM. RCH.    RUNOFF     PRECIP       ET          HEAD       DEPTH      WIDTH   CONDCTNC.   GRADIENT

   1   13    1     1     1    1.0000E+05 -2.8211E+03   1.0282E+05  0.000E+00  0.000E+00  0.000E+00  4.84072E+01  1.459E-01  2.000E+01  2.000E+04 -1.411E-01
   1   13    2     1     2    1.0282E+05 -4.7615E+03   1.0758E+05  0.000E+00  0.000E+00  0.000E+00  4.79332E+01  1.491E-01  2.000E+01  2.000E+04 -2.381E-01
   1   14    3     1     3    1.0758E+05 -3.7696E+03   1.1135E+05  0.000E+00  0.000E+00  0.000E+00  4.74595E+01  1.527E-01  2.000E+01  2.000E+04 -1.885E-01
   1   15    4     1     4    1.1135E+05 -3.6021E+03   1.1495E+05  0.000E+00  0.000E+00  0.000E+00  4.69853E+01  1.558E-01  2.000E+01  2.000E+04 -1.801E-01
   1   16    5     1     5    1.1495E+05 -3.7030E+03   1.1866E+05  0.000E+00  0.000E+00  0.000E+00  4.65111E+01  1.588E-01  2.000E+01  2.000E+04 -1.852E-01
   1   16    6     1     6    1.1866E+05 -2.8414E+03   1.2150E+05  0.000E+00  0.000E+00  0.000E+00  4.60364E+01  1.614E-01  2.000E+01  2.000E+04 -1.421E-01
   1   16    7     1     7    1.2150E+05 -2.7379E+03   1.2424E+05  0.000E+00  0.000E+00  0.000E+00  4.55614E+01  1.637E-01  2.000E+01  2.000E+04 -1.369E-01
   1   16    8     1     8    1.2424E+05 -2.4870E+03   1.2672E+05  0.000E+00  0.000E+00  0.000E+00  4.50862E+01  1.658E-01  2.000E+01  2.000E+04 -1.244E-01
   1   16    9     1     9    1.2672E+05 -2.0010E+03   1.2872E+05  0.000E+00  0.000E+00  0.000E+00  4.46107E+01  1.675E-01  2.000E+01  2.000E+04 -1.001E-01
   1   16   10     1    10    1.2872E+05 -1.1859E+03   1.2991E+05  0.000E+00  0.000E+00  0.000E+00  4.41347E+01  1.688E-01  2.000E+01  2.000E+04 -5.930E-02
   1   16   11     1    11    1.2991E+05 -1.6972E+02   1.3008E+05  0.000E+00  0.000E+00  0.000E+00  4.36579E+01  1.693E-01  2.000E+01  2.000E+04 -8.486E-03
   1   16   12     1    12    1.3008E+05 -9.2622E+02   1.3101E+05  0.000E+00  0.000E+00  0.000E+00  4.31811E+01  1.697E-01  2.000E+01  2.000E+04 -4.631E-02
   1   15   13     1    13    1.3101E+05 -2.5055E+03   1.3351E+05  0.000E+00  0.000E+00  0.000E+00  4.27052E+01  1.711E-01  2.000E+01  2.000E+04 -1.253E-01
   1   14   14     1    14    1.3351E+05 -3.1449E+03   1.3666E+05  0.000E+00  0.000E+00  0.000E+00  4.22301E+01  1.733E-01  2.000E+01  2.000E+04 -1.572E-01
   1   13   15     1    15    1.3666E+05 -3.7785E+03   1.4044E+05  0.000E+00  0.000E+00  0.000E+00  4.17555E+01  1.759E-01  2.000E+01  2.000E+04 -1.889E-01
   1   12   16     1    16    1.4044E+05 -5.2823E+03   1.4572E+05  0.000E+00  0.000E+00  0.000E+00  4.12816E+01  1.793E-01  2.000E+01  2.000E+04 -2.641E-01
   1   12   17     1    17    1.4572E+05 -3.3632E+03   1.4908E+05  0.000E+00  0.000E+00  0.000E+00  4.08076E+01  1.826E-01  2.000E+01  2.000E+04 -1.682E-01
   1   12   18     1    18    1.4908E+05 -3.2354E+03   1.5232E+05  0.000E+00  0.000E+00  0.000E+00  4.03327E+01  1.850E-01  2.000E+01  2.000E+04 -1.618E-01
   1   12   19     1    19    1.5232E+05 -4.3651E+03   1.5668E+05  0.000E+00  0.000E+00  0.000E+00  3.98582E+01  1.878E-01  2.000E+01  2.000E+04 -2.183E-01
   1   13   20     1    20    1.5668E+05 -2.5555E+03   1.5924E+05  0.000E+00  0.000E+00  0.000E+00  3.93835E+01  1.903E-01  2.000E+01  2.000E+04 -1.278E-01
   1   14   21     1    21    1.5924E+05 -1.4655E+03   1.6070E+05  0.000E+00  0.000E+00  0.000E+00  3.89077E+01  1.918E-01  2.000E+01  2.000E+04 -7.328E-02
   1   14   22     1    22    1.6070E+05  5.0712E+03   1.5563E+05  0.000E+00  0.000E+00  0.000E+00  3.84291E+01  1.905E-01  2.000E+01  2.000E+04  2.536E-01
   1    9   30     2     1    5.0000E+04 -2.7805E+03   5.2780E+04  0.000E+00  0.000E+00  0.000E+00  4.02428E+01  1.178E-01  2.000E+01  2.000E+04 -1.390E-01
   1    9   29     2     2    5.2780E+04 -3.1123E+03   5.5893E+04  0.000E+00  0.000E+00  0.000E+00  3.99968E+01  1.218E-01  2.000E+01  2.000E+04 -1.556E-01
   1    9   28     2     3    5.5893E+04 -3.4928E+03   5.9386E+04  0.000E+00  0.000E+00  0.000E+00  3.97512E+01  1.262E-01  2.000E+01  2.000E+04 -1.746E-01
   1    9   27     2     4    5.9386E+04 -6.2198E+03   6.5605E+04  0.000E+00  0.000E+00  0.000E+00  3.95075E+01  1.325E-01  2.000E+01  2.000E+04 -3.110E-01
   1   10   26     2     5    6.5605E+04 -3.8521E+03   6.9457E+04  0.000E+00  0.000E+00  0.000E+00  3.92638E+01  1.388E-01  2.000E+01  2.000E+04 -1.926E-01
   1   11   25     2     6    6.9457E+04 -2.8079E+03   7.2265E+04  0.000E+00  0.000E+00  0.000E+00  3.90178E+01  1.428E-01  2.000E+01  2.000E+04 -1.404E-01
   1   12   24     2     7    7.2265E+04 -1.9621E+03   7.4227E+04  0.000E+00  0.000E+00  0.000E+00  3.87707E+01  1.457E-01  2.000E+01  2.000E+04 -9.811E-02
   1   13   23     2     8    7.4227E+04 -1.1375E+03   7.5365E+04  0.000E+00  0.000E+00  0.000E+00  3.85225E+01  1.475E-01  2.000E+01  2.000E+04 -5.687E-02
   1   14   22     2     9    7.5365E+04  1.9307E+03   7.3434E+04  0.000E+00  0.000E+00  0.000E+00  3.82721E+01  1.471E-01  2.000E+01  2.000E+04  9.653E-02
   1   14   22     3     1    2.2907E+05 -8.4089E+03   2.3747E+05  0.000E+00  0.000E+00  0.000E+00  3.77551E+01  1.995E-01  2.000E+01  2.000E+04 -4.204E-01
   1   15   23     3     2    2.3747E+05 -1.9667E+03   2.3944E+05  0.000E+00  0.000E+00  0.000E+00  3.68689E+01  2.022E-01  2.000E+01  2.000E+04 -9.833E-02
   1   15   24     3     3    2.3944E+05 -1.5332E+03   2.4097E+05  0.000E+00  0.000E+00  0.000E+00  3.59809E+01  2.031E-01  2.000E+01  2.000E+04 -7.666E-02
   1   15   25     3     4    2.4097E+05 -1.5641E+03   2.4254E+05  0.000E+00  0.000E+00  0.000E+00  3.50927E+01  2.039E-01  2.000E+01  2.000E+04 -7.820E-02
   1   15   26     3     5    2.4254E+05 -2.0845E+03   2.4462E+05  0.000E+00  0.000E+00  0.000E+00  3.42048E+01  2.048E-01  2.000E+01  2.000E+04 -1.042E-01
   1   16   27     3     6    2.4462E+05 -2.7495E+03   2.4737E+05  0.000E+00  0.000E+00  0.000E+00  3.33171E+01  2.060E-01  2.000E+01  2.000E+04 -1.375E-01
   1   17   28     3     7    2.4737E+05 -3.5171E+03   2.5089E+05  0.000E+00  0.000E+00  0.000E+00  3.24298E+01  2.076E-01  2.000E+01  2.000E+04 -1.759E-01
   1   18   29     3     8    2.5089E+05 -5.1378E+03   2.5603E+05  0.000E+00  0.000E+00  0.000E+00  3.15431E+01  2.097E-01  2.000E+01  2.000E+04 -2.569E-01
   1   18   30     3     9    2.5603E+05 -4.5412E+03   2.6057E+05  0.000E+00  0.000E+00  0.000E+00  3.06566E+01  2.121E-01  2.000E+01  2.000E+04 -2.271E-01



1
              HEAD IN LAYER   1 AT END OF TIME STEP   1 IN STRESS PERIOD    8
  ---------------------------------------------------------------------------

          1      2      3      4      5      6      7      8      9     10
         11     12     13     14     15     16     17     18     19     20
         21     22     23     24     25     26     27     28     29     30
 .........................................................................
   1  ****** ****** ****** ****** ****** ****** ****** ****** ****** ******
      ****** ****** ****** ****** ****** ****** ****** ****** ****** ******
      ****** ****** ****** ****** ****** ****** ****** ****** ****** ******
   2  ****** ****** ****** ****** ****** ****** ****** ****** ****** ******
      ****** ****** ****** ****** ****** ****** ****** ****** ****** ******
      ****** ****** ****** ****** ****** ****** ****** ****** ****** ******
   3  ****** ****** ****** ****** ****** ****** ****** ****** ****** ******
      ****** ****** ****** ****** ****** ****** ****** ****** ****** ******
      ****** ****** ****** ****** ****** ****** ****** ****** ****** ******
   4  ****** ****** ****** ****** ****** ****** ****** ****** ****** ******
      ****** ****** ****** ****** ****** ****** ****** ****** ****** ******
      ****** ****** ****** ****** ****** ****** ****** ****** ****** ******
   5  ****** ****** ****** ****** ****** ****** ****** ****** ****** ******
      ****** ****** ****** ****** ****** ****** ****** ****** ****** ******
      ****** ****** ****** ****** ****** ****** ****** ****** ****** ******
   6  ****** ****** ****** ****** ****** ****** ****** ****** ****** ******
      ****** ****** ****** ****** ****** ****** ****** ****** ****** ******
      ****** ****** ****** ****** ****** ****** ****** ****** ****** ******
   7  ****** ****** ****** ****** ****** ****** ****** ****** ****** ******
      ****** ****** ****** ****** ****** ****** ****** ****** ****** ******
      ****** ****** ****** ****** ****** ****** ****** ****** ****** ******
   8  ****** ****** ****** ****** ****** ****** ****** ****** ****** ******
      ****** ****** ****** ****** ****** ****** ****** ****** ****** ******
      ****** ****** ****** ****** ****** ****** ****** ****** ****** ******
   9  ****** ****** ****** ****** ****** ****** ****** ****** ****** ******
      ****** ****** ****** ****** ****** ****** ****** ****** ****** ******
      ****** ****** ****** ****** ****** ****** ****** ****** ****** ******
  10  ****** ****** ****** ****** ****** ****** ****** ****** ****** ******
      ****** ****** ****** ****** ****** ****** ****** ****** ****** ******
      ****** ****** ****** ****** ****** ****** ****** ****** ****** ******
  11  ****** ****** ****** ****** ****** ****** ****** ****** ****** ******
      ****** ****** ****** ****** ****** ****** ****** ****** ****** ******
      ****** ****** ****** ****** ****** ****** ****** ****** ****** ******
  12  ****** ****** ****** ****** ****** ****** ****** ****** ****** ******
      ****** ****** ****** ****** ****** ****** ****** ****** ****** ******
      ****** ****** ****** ****** ****** ****** ****** ****** ****** ******
  13  ****** ****** ****** ****** ****** ****** ****** ****** ****** ******
      ****** ****** ****** ****** ****** ****** ****** ****** ****** ******
      ****** ****** ****** ****** ****** ****** ****** ****** ****** ******
  14  ****** ****** ****** ****** ****** ****** ****** ****** ****** ******
      ****** ****** ****** ****** ****** ****** ****** ****** ****** ******
      ****** ****** ****** ****** ****** ****** ****** ****** ****** ******
  15  ****** ****** ****** ****** ****** ****** ****** ****** ****** ******
      ****** ****** ****** ****** ****** ****** ****** ****** ****** ******
      ****** ****** ****** ****** ****** ****** ****** ****** ****** ******
  16  ****** ****** ****** ****** ****** ****** ****** ****** ****** ******
      ****** ****** ****** ****** ****** ****** ****** ****** ****** ******
      ****** ****** ****** ****** ****** ****** ****** ****** ****** ******
  17  ****** ****** ****** ****** ****** ****** ****** ****** ****** ******
      ****** ****** ****** ****** ****** ****** ****** ****** ****** ******
      ****** ****** ****** ****** ****** ****** ****** ****** ****** ******
  18  ****** ****** ****** ****** ****** ****** ****** ****** ****** ******
      ****** ****** ****** ****** ****** ****** ****** ****** ****** ******
      ****** ****** ****** ****** ****** ****** ****** ****** ****** ******
  19  ****** ****** ****** ****** ****** ****** ****** ****** ****** ******
      ****** ****** ****** ****** ****** ****** ****** ****** ****** ******
      ****** ****** ****** ****** ****** ****** ****** ****** ****** ******
  20  ****** ****** ****** ****** ****** ****** ****** ****** ****** ******
      ****** ****** ****** ****** ****** ****** ****** ****** ****** ******
      ****** ****** ****** ****** ****** ****** ****** ****** ****** ******
  21  ****** ****** ****** ****** ****** ****** ****** ****** ****** ******
      ****** ****** ****** ****** ****** ****** ****** ****** ****** ******
      ****** ****** ****** ****** ****** ****** ****** ****** ****** ******
  22  ****** ****** ****** ****** ****** ****** ****** ****** ****** ******
      ****** ****** ****** ****** ****** ****** ****** ****** ****** ******
      ****** ****** ****** ****** ****** ****** ****** ****** ****** ******
  23  ****** ****** ****** ****** ****** ****** ****** ****** ****** ******
      ****** ****** ****** ****** ****** ****** ****** ****** ****** ******
      ****** ****** ****** ****** ****** ****** ****** ****** ****** ******
  24  ****** ****** ****** ****** ****** ****** ****** ****** ****** ******
      ****** ****** ****** ****** ****** ****** ****** ****** ****** ******
      ****** ****** ****** ****** ****** ****** ****** ****** ****** ******
  25  ****** ****** ****** ****** ****** ****** ****** ****** ****** ******
      ****** ****** ****** ****** ****** ****** ****** ****** ****** ******
      ****** ****** ****** ****** ****** ****** ****** ****** ****** ******

 HEAD WILL BE SAVED ON UNIT   51 AT END OF TIME STEP    1, STRESS PERIOD    8
1
  VOLUMETRIC BUDGET FOR ENTIRE MODEL AT END OF TIME STEP    1, STRESS PERIOD   8
  ------------------------------------------------------------------------------

     CUMULATIVE VOLUMES      L**3       RATES FOR THIS TIME STEP      L**3/T
     ------------------                 ------------------------

           IN:                                      IN:
           ---                                      ---
             STORAGE =    24574180.5206               STORAGE =           0.0000
       CONSTANT HEAD =   119297901.6131         CONSTANT HEAD =      163848.9255
               WELLS =           0.0000                 WELLS =           0.0000
            RECHARGE =    17608800.0000              RECHARGE =       27600.0000
      STREAM LEAKAGE =     7185300.9665        STREAM LEAKAGE =        7001.8851

            TOTAL IN =   168666183.1001              TOTAL IN =      198450.8106

          OUT:                                     OUT:
          ----                                     ----
             STORAGE =     1851077.3663               STORAGE =        5871.7307
       CONSTANT HEAD =           0.0000         CONSTANT HEAD =           0.0000
               WELLS =    70626119.8032                 WELLS =       75008.8770
            RECHARGE =           0.0000              RECHARGE =           0.0000
      STREAM LEAKAGE =    96188986.6258        STREAM LEAKAGE =      117570.2018

           TOTAL OUT =   168666183.7953             TOTAL OUT =      198450.8095

            IN - OUT =          -0.6952              IN - OUT =       1.1791E-03

 PERCENT DISCREPANCY =          -0.00     PERCENT DISCREPANCY =           0.00






         TIME SUMMARY AT END OF TIME STEP    1 IN STRESS PERIOD    8
                    SECONDS     MINUTES      HOURS       DAYS        YEARS
                    -----------------------------------------------------------
   TIME STEP LENGTH 7.86240E+06 1.31040E+05  2184.0      91.000     0.24914    
 STRESS PERIOD TIME 7.86240E+06 1.31040E+05  2184.0      91.000     0.24914    
         TOTAL TIME 6.30720E+07 1.05120E+06  17520.      730.00      1.9986    
1
1
                            STRESS PERIOD NO.    9, LENGTH =   92.00000    
                            -----------------------------------------------

                              NUMBER OF TIME STEPS =     1

                               MULTIPLIER FOR DELT =     1.500

                            INITIAL TIME STEP SIZE =   92.00000    

 WELL NO.  LAYER   ROW   COL   STRESS RATE         
 --------------------------------------------------
      1      1     18     11     -0.1485E+05
      2      1     23     22     -0.3063E+05
      3      1     23     15     -0.2952E+05

      3 WELLS

                 RECHARGE =  5.000000E-04

 REUSING STREAM SEGMENT DATA FROM LAST STRESS PERIOD
 
 SOLVING FOR HEAD 


     6 CALLS TO PCG ROUTINE FOR TIME STEP   1 IN STRESS PERIOD    9
    22 TOTAL ITERATIONS

 OUTPUT CONTROL FOR STRESS PERIOD    9   TIME STEP    1
    SAVE BUDGET
    SAVE HEAD FOR ALL LAYERS
    PRINT HEAD FOR ALL LAYERS
 UBDSV2 SAVING "STREAMFLOW OUT  " ON UNIT  50 AT TIME STEP  1, STRESS PERIOD   9



 STREAM LISTING     PERIOD      9   STEP        1

 LAYER ROW COL. STREAM  RCH.  FLOW INTO     FLOW TO   FLOW OUT OF   OVRLND.     DIRECT     STREAM       STREAM     STREAM     STREAM   STREAMBED  STREAMBED
                SEG.NO.  NO.  STRM. RCH.    AQUIFER    STRM. RCH.    RUNOFF     PRECIP       ET          HEAD       DEPTH      WIDTH   CONDCTNC.   GRADIENT

   1   13    1     1     1    1.0000E+05 -2.7115E+03   1.0271E+05  0.000E+00  0.000E+00  0.000E+00  4.84072E+01  1.458E-01  2.000E+01  2.000E+04 -1.356E-01
   1   13    2     1     2    1.0271E+05 -4.6145E+03   1.0733E+05  0.000E+00  0.000E+00  0.000E+00  4.79331E+01  1.490E-01  2.000E+01  2.000E+04 -2.307E-01
   1   14    3     1     3    1.0733E+05 -3.6269E+03   1.1095E+05  0.000E+00  0.000E+00  0.000E+00  4.74593E+01  1.524E-01  2.000E+01  2.000E+04 -1.813E-01
   1   15    4     1     4    1.1095E+05 -3.4683E+03   1.1442E+05  0.000E+00  0.000E+00  0.000E+00  4.69849E+01  1.554E-01  2.000E+01  2.000E+04 -1.734E-01
   1   16    5     1     5    1.1442E+05 -3.5997E+03   1.1802E+05  0.000E+00  0.000E+00  0.000E+00  4.65106E+01  1.583E-01  2.000E+01  2.000E+04 -1.800E-01
   1   16    6     1     6    1.1802E+05 -2.7581E+03   1.2078E+05  0.000E+00  0.000E+00  0.000E+00  4.60359E+01  1.609E-01  2.000E+01  2.000E+04 -1.379E-01
   1   16    7     1     7    1.2078E+05 -2.6569E+03   1.2344E+05  0.000E+00  0.000E+00  0.000E+00  4.55608E+01  1.631E-01  2.000E+01  2.000E+04 -1.328E-01
   1   16    8     1     8    1.2344E+05 -2.4106E+03   1.2585E+05  0.000E+00  0.000E+00  0.000E+00  4.50855E+01  1.651E-01  2.000E+01  2.000E+04 -1.205E-01
   1   16    9     1     9    1.2585E+05 -1.9310E+03   1.2778E+05  0.000E+00  0.000E+00  0.000E+00  4.46100E+01  1.668E-01  2.000E+01  2.000E+04 -9.655E-02
   1   16   10     1    10    1.2778E+05 -1.1236E+03   1.2890E+05  0.000E+00  0.000E+00  0.000E+00  4.41339E+01  1.680E-01  2.000E+01  2.000E+04 -5.618E-02
   1   16   11     1    11    1.2890E+05 -1.1634E+02   1.2902E+05  0.000E+00  0.000E+00  0.000E+00  4.36571E+01  1.685E-01  2.000E+01  2.000E+04 -5.817E-03
   1   16   12     1    12    1.2902E+05 -8.8199E+02   1.2990E+05  0.000E+00  0.000E+00  0.000E+00  4.31803E+01  1.689E-01  2.000E+01  2.000E+04 -4.410E-02
   1   15   13     1    13    1.2990E+05 -2.4120E+03   1.3231E+05  0.000E+00  0.000E+00  0.000E+00  4.27043E+01  1.702E-01  2.000E+01  2.000E+04 -1.206E-01
   1   14   14     1    14    1.3231E+05 -3.0313E+03   1.3534E+05  0.000E+00  0.000E+00  0.000E+00  4.22291E+01  1.723E-01  2.000E+01  2.000E+04 -1.516E-01
   1   13   15     1    15    1.3534E+05 -3.6529E+03   1.3900E+05  0.000E+00  0.000E+00  0.000E+00  4.17544E+01  1.749E-01  2.000E+01  2.000E+04 -1.826E-01
   1   12   16     1    16    1.3900E+05 -5.1469E+03   1.4414E+05  0.000E+00  0.000E+00  0.000E+00  4.12805E+01  1.782E-01  2.000E+01  2.000E+04 -2.573E-01
   1   12   17     1    17    1.4414E+05 -3.2678E+03   1.4741E+05  0.000E+00  0.000E+00  0.000E+00  4.08064E+01  1.814E-01  2.000E+01  2.000E+04 -1.634E-01
   1   12   18     1    18    1.4741E+05 -3.1415E+03   1.5055E+05  0.000E+00  0.000E+00  0.000E+00  4.03315E+01  1.837E-01  2.000E+01  2.000E+04 -1.571E-01
   1   12   19     1    19    1.5055E+05 -4.2444E+03   1.5480E+05  0.000E+00  0.000E+00  0.000E+00  3.98569E+01  1.865E-01  2.000E+01  2.000E+04 -2.122E-01
   1   13   20     1    20    1.5480E+05 -2.4509E+03   1.5725E+05  0.000E+00  0.000E+00  0.000E+00  3.93821E+01  1.889E-01  2.000E+01  2.000E+04 -1.225E-01
   1   14   21     1    21    1.5725E+05 -1.3840E+03   1.5863E+05  0.000E+00  0.000E+00  0.000E+00  3.89062E+01  1.903E-01  2.000E+01  2.000E+04 -6.920E-02
   1   14   22     1    22    1.5863E+05  5.0930E+03   1.5354E+05  0.000E+00  0.000E+00  0.000E+00  3.84276E+01  1.889E-01  2.000E+01  2.000E+04  2.546E-01
   1    9   30     2     1    5.0000E+04 -2.6810E+03   5.2681E+04  0.000E+00  0.000E+00  0.000E+00  4.02427E+01  1.177E-01  2.000E+01  2.000E+04 -1.340E-01
   1    9   29     2     2    5.2681E+04 -3.0135E+03   5.5695E+04  0.000E+00  0.000E+00  0.000E+00  3.99966E+01  1.216E-01  2.000E+01  2.000E+04 -1.507E-01
   1    9   28     2     3    5.5695E+04 -3.3946E+03   5.9089E+04  0.000E+00  0.000E+00  0.000E+00  3.97509E+01  1.259E-01  2.000E+01  2.000E+04 -1.697E-01
   1    9   27     2     4    5.9089E+04 -6.0906E+03   6.5180E+04  0.000E+00  0.000E+00  0.000E+00  3.95070E+01  1.320E-01  2.000E+01  2.000E+04 -3.045E-01
   1   10   26     2     5    6.5180E+04 -3.7165E+03   6.8896E+04  0.000E+00  0.000E+00  0.000E+00  3.92632E+01  1.382E-01  2.000E+01  2.000E+04 -1.858E-01
   1   11   25     2     6    6.8896E+04 -2.6769E+03   7.1573E+04  0.000E+00  0.000E+00  0.000E+00  3.90171E+01  1.421E-01  2.000E+01  2.000E+04 -1.338E-01
   1   12   24     2     7    7.1573E+04 -1.8446E+03   7.3418E+04  0.000E+00  0.000E+00  0.000E+00  3.87698E+01  1.448E-01  2.000E+01  2.000E+04 -9.223E-02
   1   13   23     2     8    7.3418E+04 -1.0442E+03   7.4462E+04  0.000E+00  0.000E+00  0.000E+00  3.85215E+01  1.465E-01  2.000E+01  2.000E+04 -5.221E-02
   1   14   22     2     9    7.4462E+04  1.9608E+03   7.2501E+04  0.000E+00  0.000E+00  0.000E+00  3.82710E+01  1.460E-01  2.000E+01  2.000E+04  9.804E-02
   1   14   22     3     1    2.2604E+05 -8.3882E+03   2.3443E+05  0.000E+00  0.000E+00  0.000E+00  3.77535E+01  1.980E-01  2.000E+01  2.000E+04 -4.194E-01
   1   15   23     3     2    2.3443E+05 -1.8896E+03   2.3632E+05  0.000E+00  0.000E+00  0.000E+00  3.68673E+01  2.006E-01  2.000E+01  2.000E+04 -9.448E-02
   1   15   24     3     3    2.3632E+05 -1.4665E+03   2.3778E+05  0.000E+00  0.000E+00  0.000E+00  3.59792E+01  2.015E-01  2.000E+01  2.000E+04 -7.332E-02
   1   15   25     3     4    2.3778E+05 -1.4920E+03   2.3928E+05  0.000E+00  0.000E+00  0.000E+00  3.50911E+01  2.022E-01  2.000E+01  2.000E+04 -7.460E-02
   1   15   26     3     5    2.3928E+05 -1.9854E+03   2.4126E+05  0.000E+00  0.000E+00  0.000E+00  3.42031E+01  2.031E-01  2.000E+01  2.000E+04 -9.927E-02
   1   16   27     3     6    2.4126E+05 -2.6322E+03   2.4389E+05  0.000E+00  0.000E+00  0.000E+00  3.33154E+01  2.043E-01  2.000E+01  2.000E+04 -1.316E-01
   1   17   28     3     7    2.4389E+05 -3.3980E+03   2.4729E+05  0.000E+00  0.000E+00  0.000E+00  3.24280E+01  2.058E-01  2.000E+01  2.000E+04 -1.699E-01
   1   18   29     3     8    2.4729E+05 -5.0286E+03   2.5232E+05  0.000E+00  0.000E+00  0.000E+00  3.15412E+01  2.079E-01  2.000E+01  2.000E+04 -2.514E-01
   1   18   30     3     9    2.5232E+05 -4.4533E+03   2.5677E+05  0.000E+00  0.000E+00  0.000E+00  3.06547E+01  2.103E-01  2.000E+01  2.000E+04 -2.227E-01



1
              HEAD IN LAYER   1 AT END OF TIME STEP   1 IN STRESS PERIOD    9
  ---------------------------------------------------------------------------

          1      2      3      4      5      6      7      8      9     10
         11     12     13     14     15     16     17     18     19     20
         21     22     23     24     25     26     27     28     29     30
 .........................................................................
   1  ****** ****** ****** ****** ****** ****** ****** ****** ****** ******
      ****** ****** ****** ****** ****** ****** ****** ****** ****** ******
      ****** ****** ****** ****** ****** ****** ****** ****** ****** ******
   2  ****** ****** ****** ****** ****** ****** ****** ****** ****** ******
      ****** ****** ****** ****** ****** ****** ****** ****** ****** ******
      ****** ****** ****** ****** ****** ****** ****** ****** ****** ******
   3  ****** ****** ****** ****** ****** ****** ****** ****** ****** ******
      ****** ****** ****** ****** ****** ****** ****** ****** ****** ******
      ****** ****** ****** ****** ****** ****** ****** ****** ****** ******
   4  ****** ****** ****** ****** ****** ****** ****** ****** ****** ******
      ****** ****** ****** ****** ****** ****** ****** ****** ****** ******
      ****** ****** ****** ****** ****** ****** ****** ****** ****** ******
   5  ****** ****** ****** ****** ****** ****** ****** ****** ****** ******
      ****** ****** ****** ****** ****** ****** ****** ****** ****** ******
      ****** ****** ****** ****** ****** ****** ****** ****** ****** ******
   6  ****** ****** ****** ****** ****** ****** ****** ****** ****** ******
      ****** ****** ****** ****** ****** ****** ****** ****** ****** ******
      ****** ****** ****** ****** ****** ****** ****** ****** ****** ******
   7  ****** ****** ****** ****** ****** ****** ****** ****** ****** ******
      ****** ****** ****** ****** ****** ****** ****** ****** ****** ******
      ****** ****** ****** ****** ****** ****** ****** ****** ****** ******
   8  ****** ****** ****** ****** ****** ****** ****** ****** ****** ******
      ****** ****** ****** ****** ****** ****** ****** ****** ****** ******
      ****** ****** ****** ****** ****** ****** ****** ****** ****** ******
   9  ****** ****** ****** ****** ****** ****** ****** ****** ****** ******
      ****** ****** ****** ****** ****** ****** ****** ****** ****** ******
      ****** ****** ****** ****** ****** ****** ****** ****** ****** ******
  10  ****** ****** ****** ****** ****** ****** ****** ****** ****** ******
      ****** ****** ****** ****** ****** ****** ****** ****** ****** ******
      ****** ****** ****** ****** ****** ****** ****** ****** ****** ******
  11  ****** ****** ****** ****** ****** ****** ****** ****** ****** ******
      ****** ****** ****** ****** ****** ****** ****** ****** ****** ******
      ****** ****** ****** ****** ****** ****** ****** ****** ****** ******
  12  ****** ****** ****** ****** ****** ****** ****** ****** ****** ******
      ****** ****** ****** ****** ****** ****** ****** ****** ****** ******
      ****** ****** ****** ****** ****** ****** ****** ****** ****** ******
  13  ****** ****** ****** ****** ****** ****** ****** ****** ****** ******
      ****** ****** ****** ****** ****** ****** ****** ****** ****** ******
      ****** ****** ****** ****** ****** ****** ****** ****** ****** ******
  14  ****** ****** ****** ****** ****** ****** ****** ****** ****** ******
      ****** ****** ****** ****** ****** ****** ****** ****** ****** ******
      ****** ****** ****** ****** ****** ****** ****** ****** ****** ******
  15  ****** ****** ****** ****** ****** ****** ****** ****** ****** ******
      ****** ****** ****** ****** ****** ****** ****** ****** ****** ******
      ****** ****** ****** ****** ****** ****** ****** ****** ****** ******
  16  ****** ****** ****** ****** ****** ****** ****** ****** ****** ******
      ****** ****** ****** ****** ****** ****** ****** ****** ****** ******
      ****** ****** ****** ****** ****** ****** ****** ****** ****** ******
  17  ****** ****** ****** ****** ****** ****** ****** ****** ****** ******
      ****** ****** ****** ****** ****** ****** ****** ****** ****** ******
      ****** ****** ****** ****** ****** ****** ****** ****** ****** ******
  18  ****** ****** ****** ****** ****** ****** ****** ****** ****** ******
      ****** ****** ****** ****** ****** ****** ****** ****** ****** ******
      ****** ****** ****** ****** ****** ****** ****** ****** ****** ******
  19  ****** ****** ****** ****** ****** ****** ****** ****** ****** ******
      ****** ****** ****** ****** ****** ****** ****** ****** ****** ******
      ****** ****** ****** ****** ****** ****** ****** ****** ****** ******
  20  ****** ****** ****** ****** ****** ****** ****** ****** ****** ******
      ****** ****** ****** ****** ****** ****** ****** ****** ****** ******
      ****** ****** ****** ****** ****** ****** ****** ****** ****** ******
  21  ****** ****** ****** ****** ****** ****** ****** ****** ****** ******
      ****** ****** ****** ****** ****** ****** ****** ****** ****** ******
      ****** ****** ****** ****** ****** ****** ****** ****** ****** ******
  22  ****** ****** ****** ****** ****** ****** ****** ****** ****** ******
      ****** ****** ****** ****** ****** ****** ****** ****** ****** ******
      ****** ****** ****** ****** ****** ****** ****** ****** ****** ******
  23  ****** ****** ****** ****** ****** ****** ****** ****** ****** ******
      ****** ****** ****** ****** ****** ****** ****** ****** ****** ******
      ****** ****** ****** ****** ****** ****** ****** ****** ****** ******
  24  ****** ****** ****** ****** ****** ****** ****** ****** ****** ******
      ****** ****** ****** ****** ****** ****** ****** ****** ****** ******
      ****** ****** ****** ****** ****** ****** ****** ****** ****** ******
  25  ****** ****** ****** ****** ****** ****** ****** ****** ****** ******
      ****** ****** ****** ****** ****** ****** ****** ****** ****** ******
      ****** ****** ****** ****** ****** ****** ****** ****** ****** ******

 HEAD WILL BE SAVED ON UNIT   51 AT END OF TIME STEP    1, STRESS PERIOD    9
1
  VOLUMETRIC BUDGET FOR ENTIRE MODEL AT END OF TIME STEP    1, STRESS PERIOD   9
  ------------------------------------------------------------------------------

     CUMULATIVE VOLUMES      L**3       RATES FOR THIS TIME STEP      L**3/T
     ------------------                 ------------------------

           IN:                                      IN:
           ---                                      ---
             STORAGE =    24759821.6769               STORAGE =        2017.8387
       CONSTANT HEAD =   134569223.3779         CONSTANT HEAD =      165992.6279
               WELLS =           0.0000                 WELLS =           0.0000
            RECHARGE =    18878400.0000              RECHARGE =       13800.0000
      STREAM LEAKAGE =     7834250.6853        STREAM LEAKAGE =        7053.8013

            TOTAL IN =   186041695.7402              TOTAL IN =      188864.2678

          OUT:                                     OUT:
          ----                                     ----
             STORAGE =     1853692.6120               STORAGE =          28.4266
       CONSTANT HEAD =           0.0000         CONSTANT HEAD =           0.0000
               WELLS =    77526936.4867                 WELLS =       75008.8770
            RECHARGE =           0.0000              RECHARGE =           0.0000
      STREAM LEAKAGE =   106661067.5694        STREAM LEAKAGE =      113826.9668

           TOTAL OUT =   186041696.6680             TOTAL OUT =      188864.2704

            IN - OUT =          -0.9279              IN - OUT =      -2.5289E-03

 PERCENT DISCREPANCY =          -0.00     PERCENT DISCREPANCY =          -0.00






         TIME SUMMARY AT END OF TIME STEP    1 IN STRESS PERIOD    9
                    SECONDS     MINUTES      HOURS       DAYS        YEARS
                    -----------------------------------------------------------
   TIME STEP LENGTH 7.94880E+06 1.32480E+05  2208.0      92.000     0.25188    
 STRESS PERIOD TIME 7.94880E+06 1.32480E+05  2208.0      92.000     0.25188    
         TOTAL TIME 7.10208E+07 1.18368E+06  19728.      822.00      2.2505    
1
1
                            STRESS PERIOD NO.   10, LENGTH =   91.00000    
                            -----------------------------------------------

                              NUMBER OF TIME STEPS =     1

                               MULTIPLIER FOR DELT =     1.500

                            INITIAL TIME STEP SIZE =   91.00000    

 WELL NO.  LAYER   ROW   COL   STRESS RATE         
 --------------------------------------------------
      1      1     18     11     -0.1485E+05
      2      1     23     22     -0.3063E+05
      3      1     23     15     -0.2952E+05

      3 WELLS

                 RECHARGE =  2.000000E-03

 REUSING STREAM SEGMENT DATA FROM LAST STRESS PERIOD
 
 SOLVING FOR HEAD 


     7 CALLS TO PCG ROUTINE FOR TIME STEP   1 IN STRESS PERIOD   10
    26 TOTAL ITERATIONS

 OUTPUT CONTROL FOR STRESS PERIOD   10   TIME STEP    1
    SAVE BUDGET
    SAVE HEAD FOR ALL LAYERS
    PRINT HEAD FOR ALL LAYERS
 UBDSV2 SAVING "STREAMFLOW OUT  " ON UNIT  50 AT TIME STEP  1, STRESS PERIOD  10



 STREAM LISTING     PERIOD     10   STEP        1

 LAYER ROW COL. STREAM  RCH.  FLOW INTO     FLOW TO   FLOW OUT OF   OVRLND.     DIRECT     STREAM       STREAM     STREAM     STREAM   STREAMBED  STREAMBED
                SEG.NO.  NO.  STRM. RCH.    AQUIFER    STRM. RCH.    RUNOFF     PRECIP       ET          HEAD       DEPTH      WIDTH   CONDCTNC.   GRADIENT

   1   13    1     1     1    1.0000E+05 -3.1371E+03   1.0314E+05  0.000E+00  0.000E+00  0.000E+00  4.84074E+01  1.460E-01  2.000E+01  2.000E+04 -1.569E-01
   1   13    2     1     2    1.0314E+05 -5.1787E+03   1.0832E+05  0.000E+00  0.000E+00  0.000E+00  4.79337E+01  1.496E-01  2.000E+01  2.000E+04 -2.589E-01
   1   14    3     1     3    1.0832E+05 -4.1982E+03   1.1251E+05  0.000E+00  0.000E+00  0.000E+00  4.74603E+01  1.535E-01  2.000E+01  2.000E+04 -2.099E-01
   1   15    4     1     4    1.1251E+05 -4.0348E+03   1.1655E+05  0.000E+00  0.000E+00  0.000E+00  4.69865E+01  1.569E-01  2.000E+01  2.000E+04 -2.017E-01
   1   16    5     1     5    1.1655E+05 -4.1263E+03   1.2068E+05  0.000E+00  0.000E+00  0.000E+00  4.65125E+01  1.603E-01  2.000E+01  2.000E+04 -2.063E-01
   1   16    6     1     6    1.2068E+05 -3.1738E+03   1.2385E+05  0.000E+00  0.000E+00  0.000E+00  4.60382E+01  1.632E-01  2.000E+01  2.000E+04 -1.587E-01
   1   16    7     1     7    1.2385E+05 -3.0799E+03   1.2693E+05  0.000E+00  0.000E+00  0.000E+00  4.55634E+01  1.657E-01  2.000E+01  2.000E+04 -1.540E-01
   1   16    8     1     8    1.2693E+05 -2.8384E+03   1.2977E+05  0.000E+00  0.000E+00  0.000E+00  4.50885E+01  1.680E-01  2.000E+01  2.000E+04 -1.419E-01
   1   16    9     1     9    1.2977E+05 -2.3598E+03   1.3213E+05  0.000E+00  0.000E+00  0.000E+00  4.46132E+01  1.701E-01  2.000E+01  2.000E+04 -1.180E-01
   1   16   10     1    10    1.3213E+05 -1.5498E+03   1.3368E+05  0.000E+00  0.000E+00  0.000E+00  4.41375E+01  1.716E-01  2.000E+01  2.000E+04 -7.749E-02
   1   16   11     1    11    1.3368E+05 -5.3846E+02   1.3422E+05  0.000E+00  0.000E+00  0.000E+00  4.36610E+01  1.724E-01  2.000E+01  2.000E+04 -2.692E-02
   1   16   12     1    12    1.3422E+05 -1.4316E+03   1.3565E+05  0.000E+00  0.000E+00  0.000E+00  4.31845E+01  1.731E-01  2.000E+01  2.000E+04 -7.158E-02
   1   15   13     1    13    1.3565E+05 -3.0015E+03   1.3865E+05  0.000E+00  0.000E+00  0.000E+00  4.27089E+01  1.748E-01  2.000E+01  2.000E+04 -1.501E-01
   1   14   14     1    14    1.3865E+05 -3.6283E+03   1.4228E+05  0.000E+00  0.000E+00  0.000E+00  4.22342E+01  1.774E-01  2.000E+01  2.000E+04 -1.814E-01
   1   13   15     1    15    1.4228E+05 -4.2372E+03   1.4651E+05  0.000E+00  0.000E+00  0.000E+00  4.17599E+01  1.803E-01  2.000E+01  2.000E+04 -2.119E-01
   1   12   16     1    16    1.4651E+05 -5.7034E+03   1.5222E+05  0.000E+00  0.000E+00  0.000E+00  4.12863E+01  1.840E-01  2.000E+01  2.000E+04 -2.852E-01
   1   12   17     1    17    1.5222E+05 -3.6813E+03   1.5590E+05  0.000E+00  0.000E+00  0.000E+00  4.08125E+01  1.875E-01  2.000E+01  2.000E+04 -1.841E-01
   1   12   18     1    18    1.5590E+05 -3.5470E+03   1.5945E+05  0.000E+00  0.000E+00  0.000E+00  4.03378E+01  1.901E-01  2.000E+01  2.000E+04 -1.774E-01
   1   12   19     1    19    1.5945E+05 -4.7358E+03   1.6418E+05  0.000E+00  0.000E+00  0.000E+00  3.98635E+01  1.931E-01  2.000E+01  2.000E+04 -2.368E-01
   1   13   20     1    20    1.6418E+05 -2.9325E+03   1.6711E+05  0.000E+00  0.000E+00  0.000E+00  3.93890E+01  1.958E-01  2.000E+01  2.000E+04 -1.466E-01
   1   14   21     1    21    1.6711E+05 -1.8323E+03   1.6895E+05  0.000E+00  0.000E+00  0.000E+00  3.89134E+01  1.975E-01  2.000E+01  2.000E+04 -9.161E-02
   1   14   22     1    22    1.6895E+05  5.0131E+03   1.6393E+05  0.000E+00  0.000E+00  0.000E+00  3.84350E+01  1.964E-01  2.000E+01  2.000E+04  2.507E-01
   1    9   30     2     1    5.0000E+04 -3.0424E+03   5.3042E+04  0.000E+00  0.000E+00  0.000E+00  4.02430E+01  1.180E-01  2.000E+01  2.000E+04 -1.521E-01
   1    9   29     2     2    5.3042E+04 -3.3722E+03   5.6415E+04  0.000E+00  0.000E+00  0.000E+00  3.99973E+01  1.223E-01  2.000E+01  2.000E+04 -1.686E-01
   1    9   28     2     3    5.6415E+04 -3.7517E+03   6.0166E+04  0.000E+00  0.000E+00  0.000E+00  3.97520E+01  1.270E-01  2.000E+01  2.000E+04 -1.876E-01
   1    9   27     2     4    6.0166E+04 -6.5703E+03   6.6737E+04  0.000E+00  0.000E+00  0.000E+00  3.95087E+01  1.337E-01  2.000E+01  2.000E+04 -3.285E-01
   1   10   26     2     5    6.6737E+04 -4.2119E+03   7.0949E+04  0.000E+00  0.000E+00  0.000E+00  3.92654E+01  1.404E-01  2.000E+01  2.000E+04 -2.106E-01
   1   11   25     2     6    7.0949E+04 -3.1510E+03   7.4100E+04  0.000E+00  0.000E+00  0.000E+00  3.90198E+01  1.448E-01  2.000E+01  2.000E+04 -1.575E-01
   1   12   24     2     7    7.4100E+04 -2.2636E+03   7.6363E+04  0.000E+00  0.000E+00  0.000E+00  3.87731E+01  1.481E-01  2.000E+01  2.000E+04 -1.132E-01
   1   13   23     2     8    7.6363E+04 -1.3709E+03   7.7734E+04  0.000E+00  0.000E+00  0.000E+00  3.85252E+01  1.502E-01  2.000E+01  2.000E+04 -6.855E-02
   1   14   22     2     9    7.7734E+04  1.8115E+03   7.5923E+04  0.000E+00  0.000E+00  0.000E+00  3.82749E+01  1.499E-01  2.000E+01  2.000E+04  9.058E-02
   1   14   22     3     1    2.3986E+05 -8.4752E+03   2.4833E+05  0.000E+00  0.000E+00  0.000E+00  3.77606E+01  2.050E-01  2.000E+01  2.000E+04 -4.238E-01
   1   15   23     3     2    2.4833E+05 -2.3079E+03   2.5064E+05  0.000E+00  0.000E+00  0.000E+00  3.68744E+01  2.077E-01  2.000E+01  2.000E+04 -1.154E-01
   1   15   24     3     3    2.5064E+05 -1.7642E+03   2.5240E+05  0.000E+00  0.000E+00  0.000E+00  3.59865E+01  2.088E-01  2.000E+01  2.000E+04 -8.821E-02
   1   15   25     3     4    2.5240E+05 -1.7878E+03   2.5419E+05  0.000E+00  0.000E+00  0.000E+00  3.50985E+01  2.096E-01  2.000E+01  2.000E+04 -8.939E-02
   1   15   26     3     5    2.5419E+05 -2.3625E+03   2.5655E+05  0.000E+00  0.000E+00  0.000E+00  3.42107E+01  2.107E-01  2.000E+01  2.000E+04 -1.181E-01
   1   16   27     3     6    2.5655E+05 -3.1087E+03   2.5966E+05  0.000E+00  0.000E+00  0.000E+00  3.33231E+01  2.120E-01  2.000E+01  2.000E+04 -1.554E-01
   1   17   28     3     7    2.5966E+05 -3.8849E+03   2.6355E+05  0.000E+00  0.000E+00  0.000E+00  3.24360E+01  2.137E-01  2.000E+01  2.000E+04 -1.942E-01
   1   18   29     3     8    2.6355E+05 -5.4869E+03   2.6903E+05  0.000E+00  0.000E+00  0.000E+00  3.15494E+01  2.160E-01  2.000E+01  2.000E+04 -2.743E-01
   1   18   30     3     9    2.6903E+05 -4.7962E+03   2.7383E+05  0.000E+00  0.000E+00  0.000E+00  3.06630E+01  2.185E-01  2.000E+01  2.000E+04 -2.398E-01



1
              HEAD IN LAYER   1 AT END OF TIME STEP   1 IN STRESS PERIOD   10
  ---------------------------------------------------------------------------

          1      2      3      4      5      6      7      8      9     10
         11     12     13     14     15     16     17     18     19     20
         21     22     23     24     25     26     27     28     29     30
 .........................................................................
   1  ****** ****** ****** ****** ****** ****** ****** ****** ****** ******
      ****** ****** ****** ****** ****** ****** ****** ****** ****** ******
      ****** ****** ****** ****** ****** ****** ****** ****** ****** ******
   2  ****** ****** ****** ****** ****** ****** ****** ****** ****** ******
      ****** ****** ****** ****** ****** ****** ****** ****** ****** ******
      ****** ****** ****** ****** ****** ****** ****** ****** ****** ******
   3  ****** ****** ****** ****** ****** ****** ****** ****** ****** ******
      ****** ****** ****** ****** ****** ****** ****** ****** ****** ******
      ****** ****** ****** ****** ****** ****** ****** ****** ****** ******
   4  ****** ****** ****** ****** ****** ****** ****** ****** ****** ******
      ****** ****** ****** ****** ****** ****** ****** ****** ****** ******
      ****** ****** ****** ****** ****** ****** ****** ****** ****** ******
   5  ****** ****** ****** ****** ****** ****** ****** ****** ****** ******
      ****** ****** ****** ****** ****** ****** ****** ****** ****** ******
      ****** ****** ****** ****** ****** ****** ****** ****** ****** ******
   6  ****** ****** ****** ****** ****** ****** ****** ****** ****** ******
      ****** ****** ****** ****** ****** ****** ****** ****** ****** ******
      ****** ****** ****** ****** ****** ****** ****** ****** ****** ******
   7  ****** ****** ****** ****** ****** ****** ****** ****** ****** ******
      ****** ****** ****** ****** ****** ****** ****** ****** ****** ******
      ****** ****** ****** ****** ****** ****** ****** ****** ****** ******
   8  ****** ****** ****** ****** ****** ****** ****** ****** ****** ******
      ****** ****** ****** ****** ****** ****** ****** ****** ****** ******
      ****** ****** ****** ****** ****** ****** ****** ****** ****** ******
   9  ****** ****** ****** ****** ****** ****** ****** ****** ****** ******
      ****** ****** ****** ****** ****** ****** ****** ****** ****** ******
      ****** ****** ****** ****** ****** ****** ****** ****** ****** ******
  10  ****** ****** ****** ****** ****** ****** ****** ****** ****** ******
      ****** ****** ****** ****** ****** ****** ****** ****** ****** ******
      ****** ****** ****** ****** ****** ****** ****** ****** ****** ******
  11  ****** ****** ****** ****** ****** ****** ****** ****** ****** ******
      ****** ****** ****** ****** ****** ****** ****** ****** ****** ******
      ****** ****** ****** ****** ****** ****** ****** ****** ****** ******
  12  ****** ****** ****** ****** ****** ****** ****** ****** ****** ******
      ****** ****** ****** ****** ****** ****** ****** ****** ****** ******
      ****** ****** ****** ****** ****** ****** ****** ****** ****** ******
  13  ****** ****** ****** ****** ****** ****** ****** ****** ****** ******
      ****** ****** ****** ****** ****** ****** ****** ****** ****** ******
      ****** ****** ****** ****** ****** ****** ****** ****** ****** ******
  14  ****** ****** ****** ****** ****** ****** ****** ****** ****** ******
      ****** ****** ****** ****** ****** ****** ****** ****** ****** ******
      ****** ****** ****** ****** ****** ****** ****** ****** ****** ******
  15  ****** ****** ****** ****** ****** ****** ****** ****** ****** ******
      ****** ****** ****** ****** ****** ****** ****** ****** ****** ******
      ****** ****** ****** ****** ****** ****** ****** ****** ****** ******
  16  ****** ****** ****** ****** ****** ****** ****** ****** ****** ******
      ****** ****** ****** ****** ****** ****** ****** ****** ****** ******
      ****** ****** ****** ****** ****** ****** ****** ****** ****** ******
  17  ****** ****** ****** ****** ****** ****** ****** ****** ****** ******
      ****** ****** ****** ****** ****** ****** ****** ****** ****** ******
      ****** ****** ****** ****** ****** ****** ****** ****** ****** ******
  18  ****** ****** ****** ****** ****** ****** ****** ****** ****** ******
      ****** ****** ****** ****** ****** ****** ****** ****** ****** ******
      ****** ****** ****** ****** ****** ****** ****** ****** ****** ******
  19  ****** ****** ****** ****** ****** ****** ****** ****** ****** ******
      ****** ****** ****** ****** ****** ****** ****** ****** ****** ******
      ****** ****** ****** ****** ****** ****** ****** ****** ****** ******
  20  ****** ****** ****** ****** ****** ****** ****** ****** ****** ******
      ****** ****** ****** ****** ****** ****** ****** ****** ****** ******
      ****** ****** ****** ****** ****** ****** ****** ****** ****** ******
  21  ****** ****** ****** ****** ****** ****** ****** ****** ****** ******
      ****** ****** ****** ****** ****** ****** ****** ****** ****** ******
      ****** ****** ****** ****** ****** ****** ****** ****** ****** ******
  22  ****** ****** ****** ****** ****** ****** ****** ****** ****** ******
      ****** ****** ****** ****** ****** ****** ****** ****** ****** ******
      ****** ****** ****** ****** ****** ****** ****** ****** ****** ******
  23  ****** ****** ****** ****** ****** ****** ****** ****** ****** ******
      ****** ****** ****** ****** ****** ****** ****** ****** ****** ******
      ****** ****** ****** ****** ****** ****** ****** ****** ****** ******
  24  ****** ****** ****** ****** ****** ****** ****** ****** ****** ******
      ****** ****** ****** ****** ****** ****** ****** ****** ****** ******
      ****** ****** ****** ****** ****** ****** ****** ****** ****** ******
  25  ****** ****** ****** ****** ****** ****** ****** ****** ****** ******
      ****** ****** ****** ****** ****** ****** ****** ****** ****** ******
      ****** ****** ****** ****** ****** ****** ****** ****** ****** ******

 HEAD WILL BE SAVED ON UNIT   51 AT END OF TIME STEP    1, STRESS PERIOD   10
1
  VOLUMETRIC BUDGET FOR ENTIRE MODEL AT END OF TIME STEP    1, STRESS PERIOD  10
  ------------------------------------------------------------------------------

     CUMULATIVE VOLUMES      L**3       RATES FOR THIS TIME STEP      L**3/T
     ------------------                 ------------------------

           IN:                                      IN:
           ---                                      ---
             STORAGE =    24759821.6769               STORAGE =           0.0000
       CONSTANT HEAD =   148639169.6324         CONSTANT HEAD =      154614.7940
               WELLS =           0.0000                 WELLS =           0.0000
            RECHARGE =    23901600.0000              RECHARGE =       55200.0000
      STREAM LEAKAGE =     8455291.5575        STREAM LEAKAGE =        6824.6250

            TOTAL IN =   205755882.8668              TOTAL IN =      216639.4190

          OUT:                                     OUT:
          ----                                     ----
             STORAGE =     2852505.0062               STORAGE =       10975.9604
       CONSTANT HEAD =           0.0000         CONSTANT HEAD =           0.0000
               WELLS =    84352744.2931                 WELLS =       75008.8770
            RECHARGE =           0.0000              RECHARGE =           0.0000
      STREAM LEAKAGE =   118550634.3318        STREAM LEAKAGE =      130654.5798

           TOTAL OUT =   205755883.6311             TOTAL OUT =      216639.4172

            IN - OUT =          -0.7643              IN - OUT =       1.7974E-03

 PERCENT DISCREPANCY =          -0.00     PERCENT DISCREPANCY =           0.00






         TIME SUMMARY AT END OF TIME STEP    1 IN STRESS PERIOD   10
                    SECONDS     MINUTES      HOURS       DAYS        YEARS
                    -----------------------------------------------------------
   TIME STEP LENGTH 7.86240E+06 1.31040E+05  2184.0      91.000     0.24914    
 STRESS PERIOD TIME 7.86240E+06 1.31040E+05  2184.0      91.000     0.24914    
         TOTAL TIME 7.88832E+07 1.31472E+06  21912.      913.00      2.4997    
1
1
                            STRESS PERIOD NO.   11, LENGTH =   91.00000    
                            -----------------------------------------------

                              NUMBER OF TIME STEPS =     1

                               MULTIPLIER FOR DELT =     1.500

                            INITIAL TIME STEP SIZE =   91.00000    

 WELL NO.  LAYER   ROW   COL   STRESS RATE         
 --------------------------------------------------
      1      1     18     11     -0.1485E+05
      2      1     23     22     -0.3063E+05
      3      1     23     15     -0.2952E+05

      3 WELLS

                 RECHARGE =   0.00000    

 REUSING STREAM SEGMENT DATA FROM LAST STRESS PERIOD
 
 SOLVING FOR HEAD 


     7 CALLS TO PCG ROUTINE FOR TIME STEP   1 IN STRESS PERIOD   11
    26 TOTAL ITERATIONS

 OUTPUT CONTROL FOR STRESS PERIOD   11   TIME STEP    1
    SAVE BUDGET
    SAVE HEAD FOR ALL LAYERS
    PRINT HEAD FOR ALL LAYERS
 UBDSV2 SAVING "STREAMFLOW OUT  " ON UNIT  50 AT TIME STEP  1, STRESS PERIOD  11



 STREAM LISTING     PERIOD     11   STEP        1

 LAYER ROW COL. STREAM  RCH.  FLOW INTO     FLOW TO   FLOW OUT OF   OVRLND.     DIRECT     STREAM       STREAM     STREAM     STREAM   STREAMBED  STREAMBED
                SEG.NO.  NO.  STRM. RCH.    AQUIFER    STRM. RCH.    RUNOFF     PRECIP       ET          HEAD       DEPTH      WIDTH   CONDCTNC.   GRADIENT

   1   13    1     1     1    1.0000E+05 -2.6538E+03   1.0265E+05  0.000E+00  0.000E+00  0.000E+00  4.84072E+01  1.458E-01  2.000E+01  2.000E+04 -1.327E-01
   1   13    2     1     2    1.0265E+05 -4.5465E+03   1.0720E+05  0.000E+00  0.000E+00  0.000E+00  4.79330E+01  1.489E-01  2.000E+01  2.000E+04 -2.273E-01
   1   14    3     1     3    1.0720E+05 -3.5450E+03   1.1075E+05  0.000E+00  0.000E+00  0.000E+00  4.74591E+01  1.523E-01  2.000E+01  2.000E+04 -1.772E-01
   1   15    4     1     4    1.1075E+05 -3.3855E+03   1.1413E+05  0.000E+00  0.000E+00  0.000E+00  4.69847E+01  1.552E-01  2.000E+01  2.000E+04 -1.693E-01
   1   16    5     1     5    1.1413E+05 -3.5284E+03   1.1766E+05  0.000E+00  0.000E+00  0.000E+00  4.65103E+01  1.580E-01  2.000E+01  2.000E+04 -1.764E-01
   1   16    6     1     6    1.1766E+05 -2.7005E+03   1.2036E+05  0.000E+00  0.000E+00  0.000E+00  4.60356E+01  1.606E-01  2.000E+01  2.000E+04 -1.350E-01
   1   16    7     1     7    1.2036E+05 -2.5997E+03   1.2296E+05  0.000E+00  0.000E+00  0.000E+00  4.55604E+01  1.627E-01  2.000E+01  2.000E+04 -1.300E-01
   1   16    8     1     8    1.2296E+05 -2.3544E+03   1.2531E+05  0.000E+00  0.000E+00  0.000E+00  4.50851E+01  1.647E-01  2.000E+01  2.000E+04 -1.177E-01
   1   16    9     1     9    1.2531E+05 -1.8762E+03   1.2719E+05  0.000E+00  0.000E+00  0.000E+00  4.46095E+01  1.664E-01  2.000E+01  2.000E+04 -9.381E-02
   1   16   10     1    10    1.2719E+05 -1.0707E+03   1.2826E+05  0.000E+00  0.000E+00  0.000E+00  4.41334E+01  1.675E-01  2.000E+01  2.000E+04 -5.353E-02
   1   16   11     1    11    1.2826E+05 -6.6090E+01   1.2833E+05  0.000E+00  0.000E+00  0.000E+00  4.36566E+01  1.680E-01  2.000E+01  2.000E+04 -3.304E-03
   1   16   12     1    12    1.2833E+05 -8.2917E+02   1.2916E+05  0.000E+00  0.000E+00  0.000E+00  4.31797E+01  1.683E-01  2.000E+01  2.000E+04 -4.146E-02
   1   15   13     1    13    1.2916E+05 -2.3430E+03   1.3150E+05  0.000E+00  0.000E+00  0.000E+00  4.27037E+01  1.696E-01  2.000E+01  2.000E+04 -1.171E-01
   1   14   14     1    14    1.3150E+05 -2.9577E+03   1.3446E+05  0.000E+00  0.000E+00  0.000E+00  4.22284E+01  1.716E-01  2.000E+01  2.000E+04 -1.479E-01
   1   13   15     1    15    1.3446E+05 -3.5775E+03   1.3803E+05  0.000E+00  0.000E+00  0.000E+00  4.17537E+01  1.741E-01  2.000E+01  2.000E+04 -1.789E-01
   1   12   16     1    16    1.3803E+05 -5.0774E+03   1.4311E+05  0.000E+00  0.000E+00  0.000E+00  4.12797E+01  1.774E-01  2.000E+01  2.000E+04 -2.539E-01
   1   12   17     1    17    1.4311E+05 -3.2096E+03   1.4632E+05  0.000E+00  0.000E+00  0.000E+00  4.08056E+01  1.806E-01  2.000E+01  2.000E+04 -1.605E-01
   1   12   18     1    18    1.4632E+05 -3.0819E+03   1.4940E+05  0.000E+00  0.000E+00  0.000E+00  4.03306E+01  1.829E-01  2.000E+01  2.000E+04 -1.541E-01
   1   12   19     1    19    1.4940E+05 -4.1680E+03   1.5357E+05  0.000E+00  0.000E+00  0.000E+00  3.98560E+01  1.856E-01  2.000E+01  2.000E+04 -2.084E-01
   1   13   20     1    20    1.5357E+05 -2.3725E+03   1.5594E+05  0.000E+00  0.000E+00  0.000E+00  3.93812E+01  1.880E-01  2.000E+01  2.000E+04 -1.186E-01
   1   14   21     1    21    1.5594E+05 -1.3215E+03   1.5727E+05  0.000E+00  0.000E+00  0.000E+00  3.89052E+01  1.893E-01  2.000E+01  2.000E+04 -6.607E-02
   1   14   22     1    22    1.5727E+05  5.1124E+03   1.5215E+05  0.000E+00  0.000E+00  0.000E+00  3.84266E+01  1.879E-01  2.000E+01  2.000E+04  2.556E-01
   1    9   30     2     1    5.0000E+04 -2.6010E+03   5.2601E+04  0.000E+00  0.000E+00  0.000E+00  4.02427E+01  1.177E-01  2.000E+01  2.000E+04 -1.300E-01
   1    9   29     2     2    5.2601E+04 -2.9346E+03   5.5536E+04  0.000E+00  0.000E+00  0.000E+00  3.99964E+01  1.214E-01  2.000E+01  2.000E+04 -1.467E-01
   1    9   28     2     3    5.5536E+04 -3.3176E+03   5.8853E+04  0.000E+00  0.000E+00  0.000E+00  3.97506E+01  1.256E-01  2.000E+01  2.000E+04 -1.659E-01
   1    9   27     2     4    5.8853E+04 -5.9986E+03   6.4852E+04  0.000E+00  0.000E+00  0.000E+00  3.95066E+01  1.316E-01  2.000E+01  2.000E+04 -2.999E-01
   1   10   26     2     5    6.4852E+04 -3.6143E+03   6.8466E+04  0.000E+00  0.000E+00  0.000E+00  3.92627E+01  1.377E-01  2.000E+01  2.000E+04 -1.807E-01
   1   11   25     2     6    6.8466E+04 -2.5767E+03   7.1043E+04  0.000E+00  0.000E+00  0.000E+00  3.90165E+01  1.415E-01  2.000E+01  2.000E+04 -1.288E-01
   1   12   24     2     7    7.1043E+04 -1.7524E+03   7.2795E+04  0.000E+00  0.000E+00  0.000E+00  3.87691E+01  1.441E-01  2.000E+01  2.000E+04 -8.762E-02
   1   13   23     2     8    7.2795E+04 -9.6806E+02   7.3763E+04  0.000E+00  0.000E+00  0.000E+00  3.85207E+01  1.457E-01  2.000E+01  2.000E+04 -4.840E-02
   1   14   22     2     9    7.3763E+04  1.9833E+03   7.1780E+04  0.000E+00  0.000E+00  0.000E+00  3.82701E+01  1.451E-01  2.000E+01  2.000E+04  9.916E-02
   1   14   22     3     1    2.2393E+05 -8.3706E+03   2.3230E+05  0.000E+00  0.000E+00  0.000E+00  3.77524E+01  1.969E-01  2.000E+01  2.000E+04 -4.185E-01
   1   15   23     3     2    2.3230E+05 -1.8304E+03   2.3413E+05  0.000E+00  0.000E+00  0.000E+00  3.68662E+01  1.995E-01  2.000E+01  2.000E+04 -9.152E-02
   1   15   24     3     3    2.3413E+05 -1.4111E+03   2.3554E+05  0.000E+00  0.000E+00  0.000E+00  3.59781E+01  2.003E-01  2.000E+01  2.000E+04 -7.056E-02
   1   15   25     3     4    2.3554E+05 -1.4305E+03   2.3698E+05  0.000E+00  0.000E+00  0.000E+00  3.50900E+01  2.011E-01  2.000E+01  2.000E+04 -7.152E-02
   1   15   26     3     5    2.3698E+05 -1.8991E+03   2.3887E+05  0.000E+00  0.000E+00  0.000E+00  3.42019E+01  2.019E-01  2.000E+01  2.000E+04 -9.496E-02
   1   16   27     3     6    2.3887E+05 -2.5342E+03   2.4141E+05  0.000E+00  0.000E+00  0.000E+00  3.33142E+01  2.030E-01  2.000E+01  2.000E+04 -1.267E-01
   1   17   28     3     7    2.4141E+05 -3.2999E+03   2.4471E+05  0.000E+00  0.000E+00  0.000E+00  3.24267E+01  2.045E-01  2.000E+01  2.000E+04 -1.650E-01
   1   18   29     3     8    2.4471E+05 -4.9419E+03   2.4965E+05  0.000E+00  0.000E+00  0.000E+00  3.15399E+01  2.066E-01  2.000E+01  2.000E+04 -2.471E-01
   1   18   30     3     9    2.4965E+05 -4.3801E+03   2.5403E+05  0.000E+00  0.000E+00  0.000E+00  3.06534E+01  2.089E-01  2.000E+01  2.000E+04 -2.190E-01



1
              HEAD IN LAYER   1 AT END OF TIME STEP   1 IN STRESS PERIOD   11
  ---------------------------------------------------------------------------

          1      2      3      4      5      6      7      8      9     10
         11     12     13     14     15     16     17     18     19     20
         21     22     23     24     25     26     27     28     29     30
 .........................................................................
   1  ****** ****** ****** ****** ****** ****** ****** ****** ****** ******
      ****** ****** ****** ****** ****** ****** ****** ****** ****** ******
      ****** ****** ****** ****** ****** ****** ****** ****** ****** ******
   2  ****** ****** ****** ****** ****** ****** ****** ****** ****** ******
      ****** ****** ****** ****** ****** ****** ****** ****** ****** ******
      ****** ****** ****** ****** ****** ****** ****** ****** ****** ******
   3  ****** ****** ****** ****** ****** ****** ****** ****** ****** ******
      ****** ****** ****** ****** ****** ****** ****** ****** ****** ******
      ****** ****** ****** ****** ****** ****** ****** ****** ****** ******
   4  ****** ****** ****** ****** ****** ****** ****** ****** ****** ******
      ****** ****** ****** ****** ****** ****** ****** ****** ****** ******
      ****** ****** ****** ****** ****** ****** ****** ****** ****** ******
   5  ****** ****** ****** ****** ****** ****** ****** ****** ****** ******
      ****** ****** ****** ****** ****** ****** ****** ****** ****** ******
      ****** ****** ****** ****** ****** ****** ****** ****** ****** ******
   6  ****** ****** ****** ****** ****** ****** ****** ****** ****** ******
      ****** ****** ****** ****** ****** ****** ****** ****** ****** ******
      ****** ****** ****** ****** ****** ****** ****** ****** ****** ******
   7  ****** ****** ****** ****** ****** ****** ****** ****** ****** ******
      ****** ****** ****** ****** ****** ****** ****** ****** ****** ******
      ****** ****** ****** ****** ****** ****** ****** ****** ****** ******
   8  ****** ****** ****** ****** ****** ****** ****** ****** ****** ******
      ****** ****** ****** ****** ****** ****** ****** ****** ****** ******
      ****** ****** ****** ****** ****** ****** ****** ****** ****** ******
   9  ****** ****** ****** ****** ****** ****** ****** ****** ****** ******
      ****** ****** ****** ****** ****** ****** ****** ****** ****** ******
      ****** ****** ****** ****** ****** ****** ****** ****** ****** ******
  10  ****** ****** ****** ****** ****** ****** ****** ****** ****** ******
      ****** ****** ****** ****** ****** ****** ****** ****** ****** ******
      ****** ****** ****** ****** ****** ****** ****** ****** ****** ******
  11  ****** ****** ****** ****** ****** ****** ****** ****** ****** ******
      ****** ****** ****** ****** ****** ****** ****** ****** ****** ******
      ****** ****** ****** ****** ****** ****** ****** ****** ****** ******
  12  ****** ****** ****** ****** ****** ****** ****** ****** ****** ******
      ****** ****** ****** ****** ****** ****** ****** ****** ****** ******
      ****** ****** ****** ****** ****** ****** ****** ****** ****** ******
  13  ****** ****** ****** ****** ****** ****** ****** ****** ****** ******
      ****** ****** ****** ****** ****** ****** ****** ****** ****** ******
      ****** ****** ****** ****** ****** ****** ****** ****** ****** ******
  14  ****** ****** ****** ****** ****** ****** ****** ****** ****** ******
      ****** ****** ****** ****** ****** ****** ****** ****** ****** ******
      ****** ****** ****** ****** ****** ****** ****** ****** ****** ******
  15  ****** ****** ****** ****** ****** ****** ****** ****** ****** ******
      ****** ****** ****** ****** ****** ****** ****** ****** ****** ******
      ****** ****** ****** ****** ****** ****** ****** ****** ****** ******
  16  ****** ****** ****** ****** ****** ****** ****** ****** ****** ******
      ****** ****** ****** ****** ****** ****** ****** ****** ****** ******
      ****** ****** ****** ****** ****** ****** ****** ****** ****** ******
  17  ****** ****** ****** ****** ****** ****** ****** ****** ****** ******
      ****** ****** ****** ****** ****** ****** ****** ****** ****** ******
      ****** ****** ****** ****** ****** ****** ****** ****** ****** ******
  18  ****** ****** ****** ****** ****** ****** ****** ****** ****** ******
      ****** ****** ****** ****** ****** ****** ****** ****** ****** ******
      ****** ****** ****** ****** ****** ****** ****** ****** ****** ******
  19  ****** ****** ****** ****** ****** ****** ****** ****** ****** ******
      ****** ****** ****** ****** ****** ****** ****** ****** ****** ******
      ****** ****** ****** ****** ****** ****** ****** ****** ****** ******
  20  ****** ****** ****** ****** ****** ****** ****** ****** ****** ******
      ****** ****** ****** ****** ****** ****** ****** ****** ****** ******
      ****** ****** ****** ****** ****** ****** ****** ****** ****** ******
  21  ****** ****** ****** ****** ****** ****** ****** ****** ****** ******
      ****** ****** ****** ****** ****** ****** ****** ****** ****** ******
      ****** ****** ****** ****** ****** ****** ****** ****** ****** ******
  22  ****** ****** ****** ****** ****** ****** ****** ****** ****** ******
      ****** ****** ****** ****** ****** ****** ****** ****** ****** ******
      ****** ****** ****** ****** ****** ****** ****** ****** ****** ******
  23  ****** ****** ****** ****** ****** ****** ****** ****** ****** ******
      ****** ****** ****** ****** ****** ****** ****** ****** ****** ******
      ****** ****** ****** ****** ****** ****** ****** ****** ****** ******
  24  ****** ****** ****** ****** ****** ****** ****** ****** ****** ******
      ****** ****** ****** ****** ****** ****** ****** ****** ****** ******
      ****** ****** ****** ****** ****** ****** ****** ****** ****** ******
  25  ****** ****** ****** ****** ****** ****** ****** ****** ****** ******
      ****** ****** ****** ****** ****** ****** ****** ****** ****** ******
      ****** ****** ****** ****** ****** ****** ****** ****** ****** ******

 HEAD WILL BE SAVED ON UNIT   51 AT END OF TIME STEP    1, STRESS PERIOD   11
1
  VOLUMETRIC BUDGET FOR ENTIRE MODEL AT END OF TIME STEP    1, STRESS PERIOD  11
  ------------------------------------------------------------------------------

     CUMULATIVE VOLUMES      L**3       RATES FOR THIS TIME STEP      L**3/T
     ------------------                 ------------------------

           IN:                                      IN:
           ---                                      ---
             STORAGE =    25831910.2683               STORAGE =       11781.1933
       CONSTANT HEAD =   163859645.3753         CONSTANT HEAD =      167257.9752
               WELLS =           0.0000                 WELLS =           0.0000
            RECHARGE =    23901600.0000              RECHARGE =           0.0000
      STREAM LEAKAGE =     9100996.6651        STREAM LEAKAGE =        7095.6605

            TOTAL IN =   222694152.3088              TOTAL IN =      186134.8290

          OUT:                                     OUT:
          ----                                     ----
             STORAGE =     2852505.0062               STORAGE =           0.0000
       CONSTANT HEAD =           0.0000         CONSTANT HEAD =           0.0000
               WELLS =    91178552.0995                 WELLS =       75008.8770
            RECHARGE =           0.0000              RECHARGE =           0.0000
      STREAM LEAKAGE =   128663096.1653        STREAM LEAKAGE =      111125.9542

           TOTAL OUT =   222694153.2710             TOTAL OUT =      186134.8312

            IN - OUT =          -0.9623              IN - OUT =      -2.1754E-03

 PERCENT DISCREPANCY =          -0.00     PERCENT DISCREPANCY =          -0.00






         TIME SUMMARY AT END OF TIME STEP    1 IN STRESS PERIOD   11
                    SECONDS     MINUTES      HOURS       DAYS        YEARS
                    -----------------------------------------------------------
   TIME STEP LENGTH 7.86240E+06 1.31040E+05  2184.0      91.000     0.24914    
 STRESS PERIOD TIME 7.86240E+06 1.31040E+05  2184.0      91.000     0.24914    
         TOTAL TIME 8.67456E+07 1.44576E+06  24096.      1004.0      2.7488    
1
1
                            STRESS PERIOD NO.   12, LENGTH =   91.00000    
                            -----------------------------------------------

                              NUMBER OF TIME STEPS =     1

                               MULTIPLIER FOR DELT =     1.500

                            INITIAL TIME STEP SIZE =   91.00000    

 WELL NO.  LAYER   ROW   COL   STRESS RATE         
 --------------------------------------------------
      1      1     18     11     -0.1485E+05
      2      1     23     22     -0.3063E+05
      3      1     23     15     -0.2952E+05

      3 WELLS

                 RECHARGE =  1.000000E-03

 REUSING STREAM SEGMENT DATA FROM LAST STRESS PERIOD
 
 SOLVING FOR HEAD 


     6 CALLS TO PCG ROUTINE FOR TIME STEP   1 IN STRESS PERIOD   12
    23 TOTAL ITERATIONS

 OUTPUT CONTROL FOR STRESS PERIOD   12   TIME STEP    1
    SAVE BUDGET
    SAVE HEAD FOR ALL LAYERS
    PRINT HEAD FOR ALL LAYERS
 UBDSV2 SAVING "STREAMFLOW OUT  " ON UNIT  50 AT TIME STEP  1, STRESS PERIOD  12



 STREAM LISTING     PERIOD     12   STEP        1

 LAYER ROW COL. STREAM  RCH.  FLOW INTO     FLOW TO   FLOW OUT OF   OVRLND.     DIRECT     STREAM       STREAM     STREAM     STREAM   STREAMBED  STREAMBED
                SEG.NO.  NO.  STRM. RCH.    AQUIFER    STRM. RCH.    RUNOFF     PRECIP       ET          HEAD       DEPTH      WIDTH   CONDCTNC.   GRADIENT

   1   13    1     1     1    1.0000E+05 -2.8277E+03   1.0283E+05  0.000E+00  0.000E+00  0.000E+00  4.84072E+01  1.459E-01  2.000E+01  2.000E+04 -1.414E-01
   1   13    2     1     2    1.0283E+05 -4.7648E+03   1.0759E+05  0.000E+00  0.000E+00  0.000E+00  4.79332E+01  1.491E-01  2.000E+01  2.000E+04 -2.382E-01
   1   14    3     1     3    1.0759E+05 -3.7846E+03   1.1138E+05  0.000E+00  0.000E+00  0.000E+00  4.74596E+01  1.527E-01  2.000E+01  2.000E+04 -1.892E-01
   1   15    4     1     4    1.1138E+05 -3.6274E+03   1.1500E+05  0.000E+00  0.000E+00  0.000E+00  4.69854E+01  1.558E-01  2.000E+01  2.000E+04 -1.814E-01
   1   16    5     1     5    1.1500E+05 -3.7522E+03   1.1876E+05  0.000E+00  0.000E+00  0.000E+00  4.65111E+01  1.588E-01  2.000E+01  2.000E+04 -1.876E-01
   1   16    6     1     6    1.1876E+05 -2.8784E+03   1.2164E+05  0.000E+00  0.000E+00  0.000E+00  4.60365E+01  1.615E-01  2.000E+01  2.000E+04 -1.439E-01
   1   16    7     1     7    1.2164E+05 -2.7796E+03   1.2441E+05  0.000E+00  0.000E+00  0.000E+00  4.55615E+01  1.638E-01  2.000E+01  2.000E+04 -1.390E-01
   1   16    8     1     8    1.2441E+05 -2.5353E+03   1.2695E+05  0.000E+00  0.000E+00  0.000E+00  4.50864E+01  1.659E-01  2.000E+01  2.000E+04 -1.268E-01
   1   16    9     1     9    1.2695E+05 -2.0572E+03   1.2901E+05  0.000E+00  0.000E+00  0.000E+00  4.46109E+01  1.677E-01  2.000E+01  2.000E+04 -1.029E-01
   1   16   10     1    10    1.2901E+05 -1.2505E+03   1.3026E+05  0.000E+00  0.000E+00  0.000E+00  4.41349E+01  1.690E-01  2.000E+01  2.000E+04 -6.252E-02
   1   16   11     1    11    1.3026E+05 -2.4412E+02   1.3050E+05  0.000E+00  0.000E+00  0.000E+00  4.36582E+01  1.696E-01  2.000E+01  2.000E+04 -1.221E-02
   1   16   12     1    12    1.3050E+05 -1.0541E+03   1.3156E+05  0.000E+00  0.000E+00  0.000E+00  4.31815E+01  1.701E-01  2.000E+01  2.000E+04 -5.271E-02
   1   15   13     1    13    1.3156E+05 -2.5879E+03   1.3414E+05  0.000E+00  0.000E+00  0.000E+00  4.27056E+01  1.715E-01  2.000E+01  2.000E+04 -1.294E-01
   1   14   14     1    14    1.3414E+05 -3.2050E+03   1.3735E+05  0.000E+00  0.000E+00  0.000E+00  4.22306E+01  1.738E-01  2.000E+01  2.000E+04 -1.602E-01
   1   13   15     1    15    1.3735E+05 -3.8190E+03   1.4117E+05  0.000E+00  0.000E+00  0.000E+00  4.17560E+01  1.764E-01  2.000E+01  2.000E+04 -1.909E-01
   1   12   16     1    16    1.4117E+05 -5.2973E+03   1.4646E+05  0.000E+00  0.000E+00  0.000E+00  4.12822E+01  1.799E-01  2.000E+01  2.000E+04 -2.649E-01
   1   12   17     1    17    1.4646E+05 -3.3839E+03   1.4985E+05  0.000E+00  0.000E+00  0.000E+00  4.08081E+01  1.831E-01  2.000E+01  2.000E+04 -1.692E-01
   1   12   18     1    18    1.4985E+05 -3.2557E+03   1.5310E+05  0.000E+00  0.000E+00  0.000E+00  4.03333E+01  1.856E-01  2.000E+01  2.000E+04 -1.628E-01
   1   12   19     1    19    1.5310E+05 -4.3798E+03   1.5748E+05  0.000E+00  0.000E+00  0.000E+00  3.98588E+01  1.884E-01  2.000E+01  2.000E+04 -2.190E-01
   1   13   20     1    20    1.5748E+05 -2.5923E+03   1.6008E+05  0.000E+00  0.000E+00  0.000E+00  3.93841E+01  1.909E-01  2.000E+01  2.000E+04 -1.296E-01
   1   14   21     1    21    1.6008E+05 -1.5197E+03   1.6160E+05  0.000E+00  0.000E+00  0.000E+00  3.89083E+01  1.924E-01  2.000E+01  2.000E+04 -7.599E-02
   1   14   22     1    22    1.6160E+05  5.0690E+03   1.5653E+05  0.000E+00  0.000E+00  0.000E+00  3.84297E+01  1.911E-01  2.000E+01  2.000E+04  2.535E-01
   1    9   30     2     1    5.0000E+04 -2.7804E+03   5.2780E+04  0.000E+00  0.000E+00  0.000E+00  4.02428E+01  1.178E-01  2.000E+01  2.000E+04 -1.390E-01
   1    9   29     2     2    5.2780E+04 -3.1122E+03   5.5893E+04  0.000E+00  0.000E+00  0.000E+00  3.99968E+01  1.218E-01  2.000E+01  2.000E+04 -1.556E-01
   1    9   28     2     3    5.5893E+04 -3.4927E+03   5.9385E+04  0.000E+00  0.000E+00  0.000E+00  3.97512E+01  1.262E-01  2.000E+01  2.000E+04 -1.746E-01
   1    9   27     2     4    5.9385E+04 -6.2193E+03   6.5605E+04  0.000E+00  0.000E+00  0.000E+00  3.95075E+01  1.325E-01  2.000E+01  2.000E+04 -3.110E-01
   1   10   26     2     5    6.5605E+04 -3.8518E+03   6.9456E+04  0.000E+00  0.000E+00  0.000E+00  3.92638E+01  1.388E-01  2.000E+01  2.000E+04 -1.926E-01
   1   11   25     2     6    6.9456E+04 -2.8077E+03   7.2264E+04  0.000E+00  0.000E+00  0.000E+00  3.90178E+01  1.428E-01  2.000E+01  2.000E+04 -1.404E-01
   1   12   24     2     7    7.2264E+04 -1.9623E+03   7.4226E+04  0.000E+00  0.000E+00  0.000E+00  3.87707E+01  1.457E-01  2.000E+01  2.000E+04 -9.811E-02
   1   13   23     2     8    7.4226E+04 -1.1386E+03   7.5365E+04  0.000E+00  0.000E+00  0.000E+00  3.85225E+01  1.475E-01  2.000E+01  2.000E+04 -5.693E-02
   1   14   22     2     9    7.5365E+04  1.9158E+03   7.3449E+04  0.000E+00  0.000E+00  0.000E+00  3.82721E+01  1.471E-01  2.000E+01  2.000E+04  9.579E-02
   1   14   22     3     1    2.2998E+05 -8.4146E+03   2.3839E+05  0.000E+00  0.000E+00  0.000E+00  3.77556E+01  2.000E-01  2.000E+01  2.000E+04 -4.207E-01
   1   15   23     3     2    2.3839E+05 -2.0164E+03   2.4041E+05  0.000E+00  0.000E+00  0.000E+00  3.68693E+01  2.027E-01  2.000E+01  2.000E+04 -1.008E-01
   1   15   24     3     3    2.4041E+05 -1.5562E+03   2.4196E+05  0.000E+00  0.000E+00  0.000E+00  3.59813E+01  2.036E-01  2.000E+01  2.000E+04 -7.781E-02
   1   15   25     3     4    2.4196E+05 -1.5801E+03   2.4354E+05  0.000E+00  0.000E+00  0.000E+00  3.50933E+01  2.044E-01  2.000E+01  2.000E+04 -7.901E-02
   1   15   26     3     5    2.4354E+05 -2.0944E+03   2.4564E+05  0.000E+00  0.000E+00  0.000E+00  3.42053E+01  2.053E-01  2.000E+01  2.000E+04 -1.047E-01
   1   16   27     3     6    2.4564E+05 -2.7693E+03   2.4841E+05  0.000E+00  0.000E+00  0.000E+00  3.33176E+01  2.065E-01  2.000E+01  2.000E+04 -1.385E-01
   1   17   28     3     7    2.4841E+05 -3.5375E+03   2.5195E+05  0.000E+00  0.000E+00  0.000E+00  3.24303E+01  2.081E-01  2.000E+01  2.000E+04 -1.769E-01
   1   18   29     3     8    2.5195E+05 -5.1592E+03   2.5710E+05  0.000E+00  0.000E+00  0.000E+00  3.15436E+01  2.103E-01  2.000E+01  2.000E+04 -2.580E-01
   1   18   30     3     9    2.5710E+05 -4.5512E+03   2.6166E+05  0.000E+00  0.000E+00  0.000E+00  3.06571E+01  2.126E-01  2.000E+01  2.000E+04 -2.276E-01



1
              HEAD IN LAYER   1 AT END OF TIME STEP   1 IN STRESS PERIOD   12
  ---------------------------------------------------------------------------

          1      2      3      4      5      6      7      8      9     10
         11     12     13     14     15     16     17     18     19     20
         21     22     23     24     25     26     27     28     29     30
 .........................................................................
   1  ****** ****** ****** ****** ****** ****** ****** ****** ****** ******
      ****** ****** ****** ****** ****** ****** ****** ****** ****** ******
      ****** ****** ****** ****** ****** ****** ****** ****** ****** ******
   2  ****** ****** ****** ****** ****** ****** ****** ****** ****** ******
      ****** ****** ****** ****** ****** ****** ****** ****** ****** ******
      ****** ****** ****** ****** ****** ****** ****** ****** ****** ******
   3  ****** ****** ****** ****** ****** ****** ****** ****** ****** ******
      ****** ****** ****** ****** ****** ****** ****** ****** ****** ******
      ****** ****** ****** ****** ****** ****** ****** ****** ****** ******
   4  ****** ****** ****** ****** ****** ****** ****** ****** ****** ******
      ****** ****** ****** ****** ****** ****** ****** ****** ****** ******
      ****** ****** ****** ****** ****** ****** ****** ****** ****** ******
   5  ****** ****** ****** ****** ****** ****** ****** ****** ****** ******
      ****** ****** ****** ****** ****** ****** ****** ****** ****** ******
      ****** ****** ****** ****** ****** ****** ****** ****** ****** ******
   6  ****** ****** ****** ****** ****** ****** ****** ****** ****** ******
      ****** ****** ****** ****** ****** ****** ****** ****** ****** ******
      ****** ****** ****** ****** ****** ****** ****** ****** ****** ******
   7  ****** ****** ****** ****** ****** ****** ****** ****** ****** ******
      ****** ****** ****** ****** ****** ****** ****** ****** ****** ******
      ****** ****** ****** ****** ****** ****** ****** ****** ****** ******
   8  ****** ****** ****** ****** ****** ****** ****** ****** ****** ******
      ****** ****** ****** ****** ****** ****** ****** ****** ****** ******
      ****** ****** ****** ****** ****** ****** ****** ****** ****** ******
   9  ****** ****** ****** ****** ****** ****** ****** ****** ****** ******
      ****** ****** ****** ****** ****** ****** ****** ****** ****** ******
      ****** ****** ****** ****** ****** ****** ****** ****** ****** ******
  10  ****** ****** ****** ****** ****** ****** ****** ****** ****** ******
      ****** ****** ****** ****** ****** ****** ****** ****** ****** ******
      ****** ****** ****** ****** ****** ****** ****** ****** ****** ******
  11  ****** ****** ****** ****** ****** ****** ****** ****** ****** ******
      ****** ****** ****** ****** ****** ****** ****** ****** ****** ******
      ****** ****** ****** ****** ****** ****** ****** ****** ****** ******
  12  ****** ****** ****** ****** ****** ****** ****** ****** ****** ******
      ****** ****** ****** ****** ****** ****** ****** ****** ****** ******
      ****** ****** ****** ****** ****** ****** ****** ****** ****** ******
  13  ****** ****** ****** ****** ****** ****** ****** ****** ****** ******
      ****** ****** ****** ****** ****** ****** ****** ****** ****** ******
      ****** ****** ****** ****** ****** ****** ****** ****** ****** ******
  14  ****** ****** ****** ****** ****** ****** ****** ****** ****** ******
      ****** ****** ****** ****** ****** ****** ****** ****** ****** ******
      ****** ****** ****** ****** ****** ****** ****** ****** ****** ******
  15  ****** ****** ****** ****** ****** ****** ****** ****** ****** ******
      ****** ****** ****** ****** ****** ****** ****** ****** ****** ******
      ****** ****** ****** ****** ****** ****** ****** ****** ****** ******
  16  ****** ****** ****** ****** ****** ****** ****** ****** ****** ******
      ****** ****** ****** ****** ****** ****** ****** ****** ****** ******
      ****** ****** ****** ****** ****** ****** ****** ****** ****** ******
  17  ****** ****** ****** ****** ****** ****** ****** ****** ****** ******
      ****** ****** ****** ****** ****** ****** ****** ****** ****** ******
      ****** ****** ****** ****** ****** ****** ****** ****** ****** ******
  18  ****** ****** ****** ****** ****** ****** ****** ****** ****** ******
      ****** ****** ****** ****** ****** ****** ****** ****** ****** ******
      ****** ****** ****** ****** ****** ****** ****** ****** ****** ******
  19  ****** ****** ****** ****** ****** ****** ****** ****** ****** ******
      ****** ****** ****** ****** ****** ****** ****** ****** ****** ******
      ****** ****** ****** ****** ****** ****** ****** ****** ****** ******
  20  ****** ****** ****** ****** ****** ****** ****** ****** ****** ******
      ****** ****** ****** ****** ****** ****** ****** ****** ****** ******
      ****** ****** ****** ****** ****** ****** ****** ****** ****** ******
  21  ****** ****** ****** ****** ****** ****** ****** ****** ****** ******
      ****** ****** ****** ****** ****** ****** ****** ****** ****** ******
      ****** ****** ****** ****** ****** ****** ****** ****** ****** ******
  22  ****** ****** ****** ****** ****** ****** ****** ****** ****** ******
      ****** ****** ****** ****** ****** ****** ****** ****** ****** ******
      ****** ****** ****** ****** ****** ****** ****** ****** ****** ******
  23  ****** ****** ****** ****** ****** ****** ****** ****** ****** ******
      ****** ****** ****** ****** ****** ****** ****** ****** ****** ******
      ****** ****** ****** ****** ****** ****** ****** ****** ****** ******
  24  ****** ****** ****** ****** ****** ****** ****** ****** ****** ******
      ****** ****** ****** ****** ****** ****** ****** ****** ****** ******
      ****** ****** ****** ****** ****** ****** ****** ****** ****** ******
  25  ****** ****** ****** ****** ****** ****** ****** ****** ****** ******
      ****** ****** ****** ****** ****** ****** ****** ****** ****** ******
      ****** ****** ****** ****** ****** ****** ****** ****** ****** ******

 HEAD WILL BE SAVED ON UNIT   51 AT END OF TIME STEP    1, STRESS PERIOD   12
1
  VOLUMETRIC BUDGET FOR ENTIRE MODEL AT END OF TIME STEP    1, STRESS PERIOD  12
  ------------------------------------------------------------------------------

     CUMULATIVE VOLUMES      L**3       RATES FOR THIS TIME STEP      L**3/T
     ------------------                 ------------------------

           IN:                                      IN:
           ---                                      ---
             STORAGE =    25831910.2683               STORAGE =           0.0000
       CONSTANT HEAD =   178676232.4319         CONSTANT HEAD =      162819.6380
               WELLS =           0.0000                 WELLS =           0.0000
            RECHARGE =    26413200.0000              RECHARGE =       27600.0000
      STREAM LEAKAGE =     9736612.9372        STREAM LEAKAGE =        6984.7942

            TOTAL IN =   240657955.6374              TOTAL IN =      197404.4322

          OUT:                                     OUT:
          ----                                     ----
             STORAGE =     3194241.9990               STORAGE =        3755.3516
       CONSTANT HEAD =           0.0000         CONSTANT HEAD =           0.0000
               WELLS =    98004359.9059                 WELLS =       75008.8770
            RECHARGE =           0.0000              RECHARGE =           0.0000
      STREAM LEAKAGE =   139459354.6163        STREAM LEAKAGE =      118640.2028

           TOTAL OUT =   240657956.5212             TOTAL OUT =      197404.4313

            IN - OUT =          -0.8837              IN - OUT =       8.6308E-04

 PERCENT DISCREPANCY =          -0.00     PERCENT DISCREPANCY =           0.00






         TIME SUMMARY AT END OF TIME STEP    1 IN STRESS PERIOD   12
                    SECONDS     MINUTES      HOURS       DAYS        YEARS
                    -----------------------------------------------------------
   TIME STEP LENGTH 7.86240E+06 1.31040E+05  2184.0      91.000     0.24914    
 STRESS PERIOD TIME 7.86240E+06 1.31040E+05  2184.0      91.000     0.24914    
         TOTAL TIME 9.46080E+07 1.57680E+06  26280.      1095.0      2.9979    
1

 Run end date and time (yyyy/mm/dd hh:mm:ss): 2018/10/08 23:18:14
 Elapsed run time:  0.076 Seconds

