                                  MODFLOW-2005     
      U.S. GEOLOGICAL SURVEY MODULAR FINITE-DIFFERENCE GROUND-WATER FLOW MODEL
                            VERSION 1.11.00 8/8/2013

 LIST FILE: supply2.lst
                         UNIT   10

 OPENING ..\data\supply.dis
 FILE TYPE:DIS   UNIT   11   STATUS:OLD    
 FORMAT:FORMATTED              ACCESS:SEQUENTIAL          

 OPENING ..\data\supply.ba6
 FILE TYPE:BAS6   UNIT   12   STATUS:OLD    
 FORMAT:FORMATTED              ACCESS:SEQUENTIAL          

 OPENING ..\data\supply_het.bc6
 FILE TYPE:BCF6   UNIT   13   STATUS:OLD    
 FORMAT:FORMATTED              ACCESS:SEQUENTIAL          

 OPENING ..\data\supply.rch
 FILE TYPE:RCH   UNIT   15   STATUS:OLD    
 FORMAT:FORMATTED              ACCESS:SEQUENTIAL          

 OPENING ..\data\supply2.sfr
 FILE TYPE:SFR   UNIT   16   STATUS:OLD    
 FORMAT:FORMATTED              ACCESS:SEQUENTIAL          

 OPENING ..\data\supply.oc
 FILE TYPE:OC   UNIT   17   STATUS:OLD    
 FORMAT:FORMATTED              ACCESS:SEQUENTIAL          

 OPENING ..\data\supply.pcg
 FILE TYPE:PCG   UNIT   18   STATUS:OLD    
 FORMAT:FORMATTED              ACCESS:SEQUENTIAL          

 OPENING supply2.wel
 FILE TYPE:WEL   UNIT   19   STATUS:OLD    
 FORMAT:FORMATTED              ACCESS:SEQUENTIAL          

 OPENING supply2sf.cbc
 FILE TYPE:DATA(BINARY)   UNIT   50   STATUS:UNKNOWN
 FORMAT:BINARY                 ACCESS:SEQUENTIAL          

 OPENING supply2hd.bhd
 FILE TYPE:DATA(BINARY)   UNIT   51   STATUS:UNKNOWN
 FORMAT:BINARY                 ACCESS:SEQUENTIAL          

 BAS -- BASIC PACKAGE, VERSION 7, 5/2/2005 INPUT READ FROM UNIT   12
 
 MODFLOW was compiled using uniform precision
 Precision of REAL and DOUBLE PRECISION variables:          15

 DISCRETIZATION INPUT DATA READ FROM UNIT   11
    1 LAYERS        25 ROWS        30 COLUMNS
   12 STRESS PERIOD(S) IN SIMULATION
 MODEL TIME UNIT IS DAYS
 MODEL LENGTH UNIT IS UNDEFINED
  Confining bed flag for each layer:
   0

                     DELR =   200.000    

                     DELC =   200.000    

 TOP ELEVATION OF LAYER 1 =  100.0000    

   MODEL LAYER BOTTOM EL. =   0.00000     FOR LAYER   1


 STRESS PERIOD     LENGTH       TIME STEPS     MULTIPLIER FOR DELT    SS FLAG
 ----------------------------------------------------------------------------
        1         92.00000          1                    1.500         TR
        2         91.00000          1                    1.500         TR
        3         91.00000          1                    1.500         TR
        4         91.00000          1                    1.500         TR
        5         92.00000          1                    1.500         TR
        6         91.00000          1                    1.500         TR
        7         91.00000          1                    1.500         TR
        8         91.00000          1                    1.500         TR
        9         92.00000          1                    1.500         TR
       10         91.00000          1                    1.500         TR
       11         91.00000          1                    1.500         TR
       12         91.00000          1                    1.500         TR

 TRANSIENT SIMULATION



 
 #MODOFC transient water supply sample problem                                   
 #                                                                               
 THE FREE FORMAT OPTION HAS BEEN SELECTED



                     BOUNDARY ARRAY FOR LAYER   1
 READING ON UNIT   12 WITH FORMAT: (20I4)              

 AQUIFER HEAD WILL BE SET TO   0.0000     AT ALL NO-FLOW NODES (IBOUND=0).



                       INITIAL HEAD FOR LAYER   1
 READING ON UNIT   12 WITH FORMAT: (10F13.0)           

 OUTPUT CONTROL IS SPECIFIED ONLY AT TIME STEPS FOR WHICH OUTPUT IS DESIRED
 COMPACT CELL-BY-CELL BUDGET FILES WILL BE WRITTEN
 HEAD PRINT FORMAT CODE IS  18    DRAWDOWN PRINT FORMAT CODE IS   0
 HEADS WILL BE SAVED ON UNIT   51    DRAWDOWNS WILL BE SAVED ON UNIT    0

 BCF -- BLOCK-CENTERED FLOW PACKAGE, VERSION 7, 5/2/2005
         INPUT READ FROM UNIT 13
 TRANSIENT SIMULATION
 HEAD AT CELLS THAT CONVERT TO DRY=   0.0000    
 WETTING CAPABILITY IS NOT ACTIVE
      LAYER  LAYER-TYPE CODE     INTERBLOCK T
      --------------------------------------------
         1            0          0 -- HARMONIC    

 COLUMN TO ROW ANISOTROPY =  1.000000    

     PRIMARY STORAGE COEF =  5.000000E-02 FOR LAYER   1



               TRANSMIS. ALONG ROWS FOR LAYER   1
 READING ON UNIT   13 WITH FORMAT: (FREE)              

 WEL -- WELL PACKAGE, VERSION 7, 5/2/2005 INPUT READ FROM UNIT   19
 # Well package input file written by MMProc
 No named parameters
 MAXIMUM OF      4 ACTIVE WELLS AT ONE TIME


     0 Well parameters

 RCH -- RECHARGE PACKAGE, VERSION 7, 5/2/2005 INPUT READ FROM UNIT   15
 No named parameters
 OPTION 1 -- RECHARGE TO TOP LAYER


     0 Recharge parameters

 SFR7 -- STREAMFLOW ROUTING PACKAGE, VERSION 1.0.7, 2013-01-15
         INPUT READ FROM UNIT  16
 #  Supply2 test problem for GWM-VI
 #  The eighth entry in the first data line is ISTCB2 -
 #    Setting this to a negative number indicates that
 #    streamflows out of the reach will be saved to a
 #    binary file.  The absolute value of ISTCB2 is the
 #    unit to which unformatted flows will be written.
 #
 No named parameters
 Segment information will not be 
 read by reach
 No named parameters
 No specifed inflow files


 NUMBER OF STREAM REACHES IS   40

 NUMBER OF STREAM SEGMENTS IS    3

 NUMBER OF STREAM PARAMETERS IS    0

 NUMBER OF STREAM SEGMENTS DEFINED USING PARAMETERS IS              0

 MAXIMUM ERROR FOR STREAM LEAKAGE RATES IS  1.00E-04

 CONSTANT FOR MANNINGS EQUATION IS  1.2839E+05





   STREAM NETWORK DESCRIPTION: 

   LAYER    ROW    COL   SEGMENT   REACH     LENGTH
                          NUMBER   NUMBER    IN CELL        
   --------------------------------------------------
      1     13      1       1        1    2.0000E+02
      1     13      2       1        2    2.0000E+02
      1     14      3       1        3    2.0000E+02
      1     15      4       1        4    2.0000E+02
      1     16      5       1        5    2.0000E+02
      1     16      6       1        6    2.0000E+02
      1     16      7       1        7    2.0000E+02
      1     16      8       1        8    2.0000E+02
      1     16      9       1        9    2.0000E+02
      1     16     10       1       10    2.0000E+02
      1     16     11       1       11    2.0000E+02
      1     16     12       1       12    2.0000E+02
      1     15     13       1       13    2.0000E+02
      1     14     14       1       14    2.0000E+02
      1     13     15       1       15    2.0000E+02
      1     12     16       1       16    2.0000E+02
      1     12     17       1       17    2.0000E+02
      1     12     18       1       18    2.0000E+02
      1     12     19       1       19    2.0000E+02
      1     13     20       1       20    2.0000E+02
      1     14     21       1       21    2.0000E+02
      1     14     22       1       22    2.0000E+02
      1      9     30       2        1    2.0000E+02
      1      9     29       2        2    2.0000E+02
      1      9     28       2        3    2.0000E+02
      1      9     27       2        4    2.0000E+02
      1     10     26       2        5    2.0000E+02
      1     11     25       2        6    2.0000E+02
      1     12     24       2        7    2.0000E+02
      1     13     23       2        8    2.0000E+02
      1     14     22       2        9    2.0000E+02
      1     14     22       3        1    2.0000E+02
      1     15     23       3        2    2.0000E+02
      1     15     24       3        3    2.0000E+02
      1     15     25       3        4    2.0000E+02
      1     15     26       3        5    2.0000E+02
      1     16     27       3        6    2.0000E+02
      1     17     28       3        7    2.0000E+02
      1     18     29       3        8    2.0000E+02
      1     18     30       3        9    2.0000E+02




 PCG -- CONJUGATE-GRADIENT SOLUTION PACKAGE, VERSION 7, 5/2/2005
 MAXIMUM OF    500 CALLS OF SOLUTION ROUTINE
 MAXIMUM OF      5 INTERNAL ITERATIONS PER CALL TO SOLUTION ROUTINE
 MATRIX PRECONDITIONING TYPE :    1



                                    SOLUTION BY THE CONJUGATE-GRADIENT METHOD
                                   -------------------------------------------
                    MAXIMUM NUMBER OF CALLS TO PCG ROUTINE =      500
                        MAXIMUM ITERATIONS PER CALL TO PCG =        5
                               MATRIX PRECONDITIONING TYPE =        1
        RELAXATION FACTOR (ONLY USED WITH PRECOND. TYPE 1) =    0.10000E+01
 PARAMETER OF POLYNOMIAL PRECOND. = 2 (2) OR IS CALCULATED :        0
                         HEAD CHANGE CRITERION FOR CLOSURE =    0.10000E-05
                     RESIDUAL CHANGE CRITERION FOR CLOSURE =    0.10000E+01
            PCG HEAD AND RESIDUAL CHANGE PRINTOUT INTERVAL =        1
     PRINTING FROM SOLVER IS LIMITED(1) OR SUPPRESSED (>1) =        1
                            STEADY-STATE DAMPING PARAMETER =    0.10000E+01
                               TRANSIENT DAMPING PARAMETER =    0.10000E+01
1
                            STRESS PERIOD NO.    1, LENGTH =   92.00000    
                            -----------------------------------------------

                              NUMBER OF TIME STEPS =     1

                               MULTIPLIER FOR DELT =     1.500

                            INITIAL TIME STEP SIZE =   92.00000    

 WELL NO.  LAYER   ROW   COL   STRESS RATE         
 --------------------------------------------------
      1      1     15      4     -0.1117E+05
      2      1     11     22     -0.1086E+05
      3      1     18     29     -0.4636E+05
      4      1      5     18     -0.1058E+05

      4 WELLS

                 RECHARGE =  5.000000E-04



 CLASSIFICATION & COUNT OF STREAM SEGMENTS BASED ON SOURCE OF INFLOW:

                HEADWATER     DIVERSION     RECEIVES TRIBUTARY FLOW
                ---------     ---------     -----------------------
                     2              0               1



                    INPUT DATA FOR EACH STREAM SEGMENT
 ---------------------------------------------------------------------------------------------

 SEGMENT    SEG.     INFLOW   OVERLAND   STREAM    STREAM   ICALC  OUTFLOW  DIVERSION PRIORITY
    NO.    LENGTH     RATE     RUNOFF      ET       PPT.    METH.  TO SEG.  FROM SEG.    NO.

      1  4.400E+03 1.000E+05 0.000E+00 0.000E+00 0.000E+00    1        3        0        0
      2  1.800E+03 5.000E+04 0.000E+00 0.000E+00 0.000E+00    1        3        0        0
      3  1.800E+03 0.000E+00 0.000E+00 0.000E+00 0.000E+00    1        0        0        0


         STREAMBED PROPERTIES AND STREAM DIMENSIONS

 SEGMENT     BED HYD. COND.      BED THICKNESS     ELEV.-TOP OF BED     WIDTH OF STREAM     DEPTH OF STREAM    STREAM ROUGHNESS
    No.     UPPER     LOWER     UPPER     LOWER     UPPER     LOWER     UPPER     LOWER     UPPER     LOWER   CHANNEL      BANK

     1  5.000E+00 5.000E+00 1.000E+00 1.000E+00 4.850E+01 3.800E+01 2.000E+01 2.000E+01                     5.000E-02
     2  5.000E+00 5.000E+00 1.000E+00 1.000E+00 4.025E+01 3.800E+01 2.000E+01 2.000E+01                     5.000E-02
     3  5.000E+00 5.000E+00 1.000E+00 1.000E+00 3.800E+01 3.000E+01 2.000E+01 2.000E+01                     5.000E-02



 
 SOLVING FOR HEAD 


     9 CALLS TO PCG ROUTINE FOR TIME STEP   1 IN STRESS PERIOD    1
    39 TOTAL ITERATIONS

 OUTPUT CONTROL FOR STRESS PERIOD    1   TIME STEP    1
    SAVE BUDGET
    SAVE HEAD FOR ALL LAYERS
    PRINT HEAD FOR ALL LAYERS
 UBDSV2 SAVING "STREAMFLOW OUT  " ON UNIT  50 AT TIME STEP  1, STRESS PERIOD   1



 STREAM LISTING     PERIOD      1   STEP        1

 LAYER ROW COL. STREAM  RCH.  FLOW INTO     FLOW TO   FLOW OUT OF   OVRLND.     DIRECT     STREAM       STREAM     STREAM     STREAM   STREAMBED  STREAMBED
                SEG.NO.  NO.  STRM. RCH.    AQUIFER    STRM. RCH.    RUNOFF     PRECIP       ET          HEAD       DEPTH      WIDTH   CONDCTNC.   GRADIENT

   1   13    1     1     1    1.0000E+05 -6.1110E+03   1.0611E+05  0.000E+00  0.000E+00  0.000E+00  4.84087E+01  1.473E-01  2.000E+01  2.000E+04 -3.055E-01
   1   13    2     1     2    1.0611E+05 -7.5788E+03   1.1369E+05  0.000E+00  0.000E+00  0.000E+00  4.79372E+01  1.531E-01  2.000E+01  2.000E+04 -3.789E-01
   1   14    3     1     3    1.1369E+05 -2.1841E+03   1.1587E+05  0.000E+00  0.000E+00  0.000E+00  4.74639E+01  1.571E-01  2.000E+01  2.000E+04 -1.092E-01
   1   15    4     1     4    1.1587E+05  8.7755E+03   1.0710E+05  0.000E+00  0.000E+00  0.000E+00  4.69839E+01  1.544E-01  2.000E+01  2.000E+04  4.388E-01
   1   16    5     1     5    1.0710E+05 -7.1507E+03   1.1425E+05  0.000E+00  0.000E+00  0.000E+00  4.65060E+01  1.537E-01  2.000E+01  2.000E+04 -3.575E-01
   1   16    6     1     6    1.1425E+05 -4.3005E+03   1.1855E+05  0.000E+00  0.000E+00  0.000E+00  4.60335E+01  1.585E-01  2.000E+01  2.000E+04 -2.150E-01
   1   16    7     1     7    1.1855E+05 -4.1394E+03   1.2269E+05  0.000E+00  0.000E+00  0.000E+00  4.55596E+01  1.619E-01  2.000E+01  2.000E+04 -2.070E-01
   1   16    8     1     8    1.2269E+05 -4.1000E+03   1.2679E+05  0.000E+00  0.000E+00  0.000E+00  4.50856E+01  1.652E-01  2.000E+01  2.000E+04 -2.050E-01
   1   16    9     1     9    1.2679E+05 -4.0904E+03   1.3088E+05  0.000E+00  0.000E+00  0.000E+00  4.46116E+01  1.684E-01  2.000E+01  2.000E+04 -2.045E-01
   1   16   10     1    10    1.3088E+05 -4.0887E+03   1.3497E+05  0.000E+00  0.000E+00  0.000E+00  4.41375E+01  1.716E-01  2.000E+01  2.000E+04 -2.044E-01
   1   16   11     1    11    1.3497E+05 -4.1252E+03   1.3909E+05  0.000E+00  0.000E+00  0.000E+00  4.36634E+01  1.747E-01  2.000E+01  2.000E+04 -2.063E-01
   1   16   12     1    12    1.3909E+05 -7.0047E+03   1.4610E+05  0.000E+00  0.000E+00  0.000E+00  4.31903E+01  1.790E-01  2.000E+01  2.000E+04 -3.502E-01
   1   15   13     1    13    1.4610E+05 -7.2939E+03   1.5339E+05  0.000E+00  0.000E+00  0.000E+00  4.27184E+01  1.843E-01  2.000E+01  2.000E+04 -3.647E-01
   1   14   14     1    14    1.5339E+05 -7.7497E+03   1.6114E+05  0.000E+00  0.000E+00  0.000E+00  4.22466E+01  1.898E-01  2.000E+01  2.000E+04 -3.875E-01
   1   13   15     1    15    1.6114E+05 -8.0170E+03   1.6916E+05  0.000E+00  0.000E+00  0.000E+00  4.17750E+01  1.955E-01  2.000E+01  2.000E+04 -4.009E-01
   1   12   16     1    16    1.6916E+05 -8.4342E+03   1.7759E+05  0.000E+00  0.000E+00  0.000E+00  4.13035E+01  2.012E-01  2.000E+01  2.000E+04 -4.217E-01
   1   12   17     1    17    1.7759E+05 -5.9250E+03   1.8352E+05  0.000E+00  0.000E+00  0.000E+00  4.08312E+01  2.062E-01  2.000E+01  2.000E+04 -2.962E-01
   1   12   18     1    18    1.8352E+05 -5.6490E+03   1.8917E+05  0.000E+00  0.000E+00  0.000E+00  4.03579E+01  2.101E-01  2.000E+01  2.000E+04 -2.824E-01
   1   12   19     1    19    1.8917E+05 -6.4089E+03   1.9558E+05  0.000E+00  0.000E+00  0.000E+00  3.98846E+01  2.142E-01  2.000E+01  2.000E+04 -3.204E-01
   1   13   20     1    20    1.9558E+05 -5.6608E+03   2.0124E+05  0.000E+00  0.000E+00  0.000E+00  3.94114E+01  2.182E-01  2.000E+01  2.000E+04 -2.830E-01
   1   14   21     1    21    2.0124E+05 -5.8812E+03   2.0712E+05  0.000E+00  0.000E+00  0.000E+00  3.89379E+01  2.220E-01  2.000E+01  2.000E+04 -2.941E-01
   1   14   22     1    22    2.0712E+05  3.8918E+03   2.0323E+05  0.000E+00  0.000E+00  0.000E+00  3.84613E+01  2.226E-01  2.000E+01  2.000E+04  1.946E-01
   1    9   30     2     1    5.0000E+04 -4.7378E+03   5.4738E+04  0.000E+00  0.000E+00  0.000E+00  4.02441E+01  1.191E-01  2.000E+01  2.000E+04 -2.369E-01
   1    9   29     2     2    5.4738E+04 -5.0238E+03   5.9762E+04  0.000E+00  0.000E+00  0.000E+00  4.00007E+01  1.257E-01  2.000E+01  2.000E+04 -2.512E-01
   1    9   28     2     3    5.9762E+04 -5.2792E+03   6.5041E+04  0.000E+00  0.000E+00  0.000E+00  3.97573E+01  1.323E-01  2.000E+01  2.000E+04 -2.640E-01
   1    9   27     2     4    6.5041E+04 -7.8813E+03   7.2922E+04  0.000E+00  0.000E+00  0.000E+00  3.95155E+01  1.405E-01  2.000E+01  2.000E+04 -3.941E-01
   1   10   26     2     5    7.2922E+04 -6.7109E+03   7.9633E+04  0.000E+00  0.000E+00  0.000E+00  3.92743E+01  1.493E-01  2.000E+01  2.000E+04 -3.355E-01
   1   11   25     2     6    7.9633E+04 -5.6246E+03   8.5257E+04  0.000E+00  0.000E+00  0.000E+00  3.90314E+01  1.564E-01  2.000E+01  2.000E+04 -2.812E-01
   1   12   24     2     7    8.5257E+04 -4.2353E+03   8.9493E+04  0.000E+00  0.000E+00  0.000E+00  3.87870E+01  1.620E-01  2.000E+01  2.000E+04 -2.118E-01
   1   13   23     2     8    8.9493E+04 -1.2522E+03   9.0745E+04  0.000E+00  0.000E+00  0.000E+00  3.85400E+01  1.650E-01  2.000E+01  2.000E+04 -6.261E-02
   1   14   22     2     9    9.0745E+04  4.7475E+02   9.0270E+04  0.000E+00  0.000E+00  0.000E+00  3.82904E+01  1.654E-01  2.000E+01  2.000E+04  2.374E-02
   1   14   22     3     1    2.9350E+05 -9.5974E+03   3.0309E+05  0.000E+00  0.000E+00  0.000E+00  3.77868E+01  2.313E-01  2.000E+01  2.000E+04 -4.799E-01
   1   15   23     3     2    3.0309E+05 -1.9825E+03   3.0508E+05  0.000E+00  0.000E+00  0.000E+00  3.69006E+01  2.339E-01  2.000E+01  2.000E+04 -9.913E-02
   1   15   24     3     3    3.0508E+05 -1.5250E+03   3.0660E+05  0.000E+00  0.000E+00  0.000E+00  3.60125E+01  2.347E-01  2.000E+01  2.000E+04 -7.625E-02
   1   15   25     3     4    3.0660E+05 -1.5717E+03   3.0817E+05  0.000E+00  0.000E+00  0.000E+00  3.51243E+01  2.355E-01  2.000E+01  2.000E+04 -7.858E-02
   1   15   26     3     5    3.0817E+05 -1.8536E+03   3.1003E+05  0.000E+00  0.000E+00  0.000E+00  3.42362E+01  2.362E-01  2.000E+01  2.000E+04 -9.268E-02
   1   16   27     3     6    3.1003E+05 -2.0378E+03   3.1206E+05  0.000E+00  0.000E+00  0.000E+00  3.33482E+01  2.371E-01  2.000E+01  2.000E+04 -1.019E-01
   1   17   28     3     7    3.1206E+05 -2.5238E+03   3.1459E+05  0.000E+00  0.000E+00  0.000E+00  3.24604E+01  2.382E-01  2.000E+01  2.000E+04 -1.262E-01
   1   18   29     3     8    3.1459E+05  2.4662E+04   2.8993E+05  0.000E+00  0.000E+00  0.000E+00  3.15664E+01  2.331E-01  2.000E+01  2.000E+04  1.233E+00
   1   18   30     3     9    2.8993E+05 -5.8292E+02   2.9051E+05  0.000E+00  0.000E+00  0.000E+00  3.06719E+01  2.275E-01  2.000E+01  2.000E+04 -2.915E-02



1
              HEAD IN LAYER   1 AT END OF TIME STEP   1 IN STRESS PERIOD    1
  ---------------------------------------------------------------------------

          1      2      3      4      5      6      7      8      9     10
         11     12     13     14     15     16     17     18     19     20
         21     22     23     24     25     26     27     28     29     30
 .........................................................................
   1  ****** ****** ****** ****** ****** ****** ****** ****** ****** ******
      ****** ****** ****** ****** ****** ****** ****** ****** ****** ******
      ****** ****** ****** ****** ****** ****** ****** ****** ****** ******
   2  ****** ****** ****** ****** ****** ****** ****** ****** ****** ******
      ****** ****** ****** ****** ****** ****** ****** ****** ****** ******
      ****** ****** ****** ****** ****** ****** ****** ****** ****** ******
   3  ****** ****** ****** ****** ****** ****** ****** ****** ****** ******
      ****** ****** ****** ****** ****** ****** ****** ****** ****** ******
      ****** ****** ****** ****** ****** ****** ****** ****** ****** ******
   4  ****** ****** ****** ****** ****** ****** ****** ****** ****** ******
      ****** ****** ****** ****** ****** ****** ****** ****** ****** ******
      ****** ****** ****** ****** ****** ****** ****** ****** ****** ******
   5  ****** ****** ****** ****** ****** ****** ****** ****** ****** ******
      ****** ****** ****** ****** ****** ****** ****** ****** ****** ******
      ****** ****** ****** ****** ****** ****** ****** ****** ****** ******
   6  ****** ****** ****** ****** ****** ****** ****** ****** ****** ******
      ****** ****** ****** ****** ****** ****** ****** ****** ****** ******
      ****** ****** ****** ****** ****** ****** ****** ****** ****** ******
   7  ****** ****** ****** ****** ****** ****** ****** ****** ****** ******
      ****** ****** ****** ****** ****** ****** ****** ****** ****** ******
      ****** ****** ****** ****** ****** ****** ****** ****** ****** ******
   8  ****** ****** ****** ****** ****** ****** ****** ****** ****** ******
      ****** ****** ****** ****** ****** ****** ****** ****** ****** ******
      ****** ****** ****** ****** ****** ****** ****** ****** ****** ******
   9  ****** ****** ****** ****** ****** ****** ****** ****** ****** ******
      ****** ****** ****** ****** ****** ****** ****** ****** ****** ******
      ****** ****** ****** ****** ****** ****** ****** ****** ****** ******
  10  ****** ****** ****** ****** ****** ****** ****** ****** ****** ******
      ****** ****** ****** ****** ****** ****** ****** ****** ****** ******
      ****** ****** ****** ****** ****** ****** ****** ****** ****** ******
  11  ****** ****** ****** ****** ****** ****** ****** ****** ****** ******
      ****** ****** ****** ****** ****** ****** ****** ****** ****** ******
      ****** ****** ****** ****** ****** ****** ****** ****** ****** ******
  12  ****** ****** ****** ****** ****** ****** ****** ****** ****** ******
      ****** ****** ****** ****** ****** ****** ****** ****** ****** ******
      ****** ****** ****** ****** ****** ****** ****** ****** ****** ******
  13  ****** ****** ****** ****** ****** ****** ****** ****** ****** ******
      ****** ****** ****** ****** ****** ****** ****** ****** ****** ******
      ****** ****** ****** ****** ****** ****** ****** ****** ****** ******
  14  ****** ****** ****** ****** ****** ****** ****** ****** ****** ******
      ****** ****** ****** ****** ****** ****** ****** ****** ****** ******
      ****** ****** ****** ****** ****** ****** ****** ****** ****** ******
  15  ****** ****** ****** ****** ****** ****** ****** ****** ****** ******
      ****** ****** ****** ****** ****** ****** ****** ****** ****** ******
      ****** ****** ****** ****** ****** ****** ****** ****** ****** ******
  16  ****** ****** ****** ****** ****** ****** ****** ****** ****** ******
      ****** ****** ****** ****** ****** ****** ****** ****** ****** ******
      ****** ****** ****** ****** ****** ****** ****** ****** ****** ******
  17  ****** ****** ****** ****** ****** ****** ****** ****** ****** ******
      ****** ****** ****** ****** ****** ****** ****** ****** ****** ******
      ****** ****** ****** ****** ****** ****** ****** ****** ****** ******
  18  ****** ****** ****** ****** ****** ****** ****** ****** ****** ******
      ****** ****** ****** ****** ****** ****** ****** ****** ****** ******
      ****** ****** ****** ****** ****** ****** ****** ****** ****** ******
  19  ****** ****** ****** ****** ****** ****** ****** ****** ****** ******
      ****** ****** ****** ****** ****** ****** ****** ****** ****** ******
      ****** ****** ****** ****** ****** ****** ****** ****** ****** ******
  20  ****** ****** ****** ****** ****** ****** ****** ****** ****** ******
      ****** ****** ****** ****** ****** ****** ****** ****** ****** ******
      ****** ****** ****** ****** ****** ****** ****** ****** ****** ******
  21  ****** ****** ****** ****** ****** ****** ****** ****** ****** ******
      ****** ****** ****** ****** ****** ****** ****** ****** ****** ******
      ****** ****** ****** ****** ****** ****** ****** ****** ****** ******
  22  ****** ****** ****** ****** ****** ****** ****** ****** ****** ******
      ****** ****** ****** ****** ****** ****** ****** ****** ****** ******
      ****** ****** ****** ****** ****** ****** ****** ****** ****** ******
  23  ****** ****** ****** ****** ****** ****** ****** ****** ****** ******
      ****** ****** ****** ****** ****** ****** ****** ****** ****** ******
      ****** ****** ****** ****** ****** ****** ****** ****** ****** ******
  24  ****** ****** ****** ****** ****** ****** ****** ****** ****** ******
      ****** ****** ****** ****** ****** ****** ****** ****** ****** ******
      ****** ****** ****** ****** ****** ****** ****** ****** ****** ******
  25  ****** ****** ****** ****** ****** ****** ****** ****** ****** ******
      ****** ****** ****** ****** ****** ****** ****** ****** ****** ******
      ****** ****** ****** ****** ****** ****** ****** ****** ****** ******

 HEAD WILL BE SAVED ON UNIT   51 AT END OF TIME STEP    1, STRESS PERIOD    1
1
  VOLUMETRIC BUDGET FOR ENTIRE MODEL AT END OF TIME STEP    1, STRESS PERIOD   1
  ------------------------------------------------------------------------------

     CUMULATIVE VOLUMES      L**3       RATES FOR THIS TIME STEP      L**3/T
     ------------------                 ------------------------

           IN:                                      IN:
           ---                                      ---
             STORAGE =    17746574.9318               STORAGE =      192897.5536
       CONSTANT HEAD =     1175689.5920         CONSTANT HEAD =       12779.2347
               WELLS =           0.0000                 WELLS =           0.0000
            RECHARGE =     1269600.0000              RECHARGE =       13800.0000
      STREAM LEAKAGE =     3477954.9898        STREAM LEAKAGE =       37803.8586

            TOTAL IN =    23669819.5135              TOTAL IN =      257280.6469

          OUT:                                     OUT:
          ----                                     ----
             STORAGE =           0.0000               STORAGE =           0.0000
       CONSTANT HEAD =           0.0000         CONSTANT HEAD =           0.0000
               WELLS =     7265030.7963                 WELLS =       78967.7260
            RECHARGE =           0.0000              RECHARGE =           0.0000
      STREAM LEAKAGE =    16404789.2397        STREAM LEAKAGE =      178312.9265

           TOTAL OUT =    23669820.0361             TOTAL OUT =      257280.6526

            IN - OUT =          -0.5225              IN - OUT =      -5.6797E-03

 PERCENT DISCREPANCY =          -0.00     PERCENT DISCREPANCY =          -0.00






         TIME SUMMARY AT END OF TIME STEP    1 IN STRESS PERIOD    1
                    SECONDS     MINUTES      HOURS       DAYS        YEARS
                    -----------------------------------------------------------
   TIME STEP LENGTH 7.94880E+06 1.32480E+05  2208.0      92.000     0.25188    
 STRESS PERIOD TIME 7.94880E+06 1.32480E+05  2208.0      92.000     0.25188    
         TOTAL TIME 7.94880E+06 1.32480E+05  2208.0      92.000     0.25188    
1
1
                            STRESS PERIOD NO.    2, LENGTH =   91.00000    
                            -----------------------------------------------

                              NUMBER OF TIME STEPS =     1

                               MULTIPLIER FOR DELT =     1.500

                            INITIAL TIME STEP SIZE =   91.00000    

 WELL NO.  LAYER   ROW   COL   STRESS RATE         
 --------------------------------------------------
      1      1     15      4     -0.1117E+05
      2      1     11     22     -0.1086E+05
      3      1     18     29     -0.4636E+05
      4      1      5     18     -0.1058E+05

      4 WELLS

                 RECHARGE =  2.000000E-03

 REUSING STREAM SEGMENT DATA FROM LAST STRESS PERIOD
 
 SOLVING FOR HEAD 


     8 CALLS TO PCG ROUTINE FOR TIME STEP   1 IN STRESS PERIOD    2
    32 TOTAL ITERATIONS

 OUTPUT CONTROL FOR STRESS PERIOD    2   TIME STEP    1
    SAVE BUDGET
    SAVE HEAD FOR ALL LAYERS
    PRINT HEAD FOR ALL LAYERS
 UBDSV2 SAVING "STREAMFLOW OUT  " ON UNIT  50 AT TIME STEP  1, STRESS PERIOD   2



 STREAM LISTING     PERIOD      2   STEP        1

 LAYER ROW COL. STREAM  RCH.  FLOW INTO     FLOW TO   FLOW OUT OF   OVRLND.     DIRECT     STREAM       STREAM     STREAM     STREAM   STREAMBED  STREAMBED
                SEG.NO.  NO.  STRM. RCH.    AQUIFER    STRM. RCH.    RUNOFF     PRECIP       ET          HEAD       DEPTH      WIDTH   CONDCTNC.   GRADIENT

   1   13    1     1     1    1.0000E+05 -3.9826E+03   1.0398E+05  0.000E+00  0.000E+00  0.000E+00  4.84077E+01  1.464E-01  2.000E+01  2.000E+04 -1.991E-01
   1   13    2     1     2    1.0398E+05 -5.2416E+03   1.0922E+05  0.000E+00  0.000E+00  0.000E+00  4.79344E+01  1.503E-01  2.000E+01  2.000E+04 -2.621E-01
   1   14    3     1     3    1.0922E+05 -1.0984E+03   1.1032E+05  0.000E+00  0.000E+00  0.000E+00  4.74598E+01  1.530E-01  2.000E+01  2.000E+04 -5.492E-02
   1   15    4     1     4    1.1032E+05  9.9169E+03   1.0041E+05  0.000E+00  0.000E+00  0.000E+00  4.69788E+01  1.493E-01  2.000E+01  2.000E+04  4.958E-01
   1   16    5     1     5    1.0041E+05 -4.2173E+03   1.0462E+05  0.000E+00  0.000E+00  0.000E+00  4.64991E+01  1.468E-01  2.000E+01  2.000E+04 -2.109E-01
   1   16    6     1     6    1.0462E+05 -2.5045E+03   1.0713E+05  0.000E+00  0.000E+00  0.000E+00  4.60247E+01  1.497E-01  2.000E+01  2.000E+04 -1.252E-01
   1   16    7     1     7    1.0713E+05 -2.4152E+03   1.0954E+05  0.000E+00  0.000E+00  0.000E+00  4.55495E+01  1.518E-01  2.000E+01  2.000E+04 -1.208E-01
   1   16    8     1     8    1.0954E+05 -2.3883E+03   1.1193E+05  0.000E+00  0.000E+00  0.000E+00  4.50742E+01  1.538E-01  2.000E+01  2.000E+04 -1.194E-01
   1   16    9     1     9    1.1193E+05 -2.3692E+03   1.1430E+05  0.000E+00  0.000E+00  0.000E+00  4.45989E+01  1.558E-01  2.000E+01  2.000E+04 -1.185E-01
   1   16   10     1    10    1.1430E+05 -2.3464E+03   1.1665E+05  0.000E+00  0.000E+00  0.000E+00  4.41236E+01  1.577E-01  2.000E+01  2.000E+04 -1.173E-01
   1   16   11     1    11    1.1665E+05 -2.3541E+03   1.1900E+05  0.000E+00  0.000E+00  0.000E+00  4.36482E+01  1.596E-01  2.000E+01  2.000E+04 -1.177E-01
   1   16   12     1    12    1.1900E+05 -4.1278E+03   1.2313E+05  0.000E+00  0.000E+00  0.000E+00  4.31736E+01  1.622E-01  2.000E+01  2.000E+04 -2.064E-01
   1   15   13     1    13    1.2313E+05 -4.0474E+03   1.2718E+05  0.000E+00  0.000E+00  0.000E+00  4.26996E+01  1.655E-01  2.000E+01  2.000E+04 -2.024E-01
   1   14   14     1    14    1.2718E+05 -4.3572E+03   1.3153E+05  0.000E+00  0.000E+00  0.000E+00  4.22256E+01  1.688E-01  2.000E+01  2.000E+04 -2.179E-01
   1   13   15     1    15    1.3153E+05 -4.5839E+03   1.3612E+05  0.000E+00  0.000E+00  0.000E+00  4.17518E+01  1.723E-01  2.000E+01  2.000E+04 -2.292E-01
   1   12   16     1    16    1.3612E+05 -5.0710E+03   1.4119E+05  0.000E+00  0.000E+00  0.000E+00  4.12783E+01  1.760E-01  2.000E+01  2.000E+04 -2.535E-01
   1   12   17     1    17    1.4119E+05 -3.2664E+03   1.4445E+05  0.000E+00  0.000E+00  0.000E+00  4.08041E+01  1.791E-01  2.000E+01  2.000E+04 -1.633E-01
   1   12   18     1    18    1.4445E+05 -2.9655E+03   1.4742E+05  0.000E+00  0.000E+00  0.000E+00  4.03292E+01  1.815E-01  2.000E+01  2.000E+04 -1.483E-01
   1   12   19     1    19    1.4742E+05 -2.9531E+03   1.5037E+05  0.000E+00  0.000E+00  0.000E+00  3.98541E+01  1.837E-01  2.000E+01  2.000E+04 -1.477E-01
   1   13   20     1    20    1.5037E+05 -2.3531E+03   1.5273E+05  0.000E+00  0.000E+00  0.000E+00  3.93788E+01  1.856E-01  2.000E+01  2.000E+04 -1.177E-01
   1   14   21     1    21    1.5273E+05 -3.0869E+03   1.5581E+05  0.000E+00  0.000E+00  0.000E+00  3.89035E+01  1.876E-01  2.000E+01  2.000E+04 -1.543E-01
   1   14   22     1    22    1.5581E+05  4.6885E+03   1.5112E+05  0.000E+00  0.000E+00  0.000E+00  3.84257E+01  1.870E-01  2.000E+01  2.000E+04  2.344E-01
   1    9   30     2     1    5.0000E+04 -1.9318E+03   5.1932E+04  0.000E+00  0.000E+00  0.000E+00  4.02422E+01  1.172E-01  2.000E+01  2.000E+04 -9.659E-02
   1    9   29     2     2    5.1932E+04 -2.2271E+03   5.4159E+04  0.000E+00  0.000E+00  0.000E+00  3.99950E+01  1.200E-01  2.000E+01  2.000E+04 -1.114E-01
   1    9   28     2     3    5.4159E+04 -2.4867E+03   5.6646E+04  0.000E+00  0.000E+00  0.000E+00  3.97482E+01  1.232E-01  2.000E+01  2.000E+04 -1.243E-01
   1    9   27     2     4    5.6646E+04 -4.2039E+03   6.0849E+04  0.000E+00  0.000E+00  0.000E+00  3.95026E+01  1.276E-01  2.000E+01  2.000E+04 -2.102E-01
   1   10   26     2     5    6.0849E+04 -2.8753E+03   6.3725E+04  0.000E+00  0.000E+00  0.000E+00  3.92572E+01  1.322E-01  2.000E+01  2.000E+04 -1.438E-01
   1   11   25     2     6    6.3725E+04 -1.9103E+03   6.5635E+04  0.000E+00  0.000E+00  0.000E+00  3.90102E+01  1.352E-01  2.000E+01  2.000E+04 -9.551E-02
   1   12   24     2     7    6.5635E+04 -8.2442E+02   6.6460E+04  0.000E+00  0.000E+00  0.000E+00  3.87619E+01  1.369E-01  2.000E+01  2.000E+04 -4.122E-02
   1   13   23     2     8    6.6460E+04 -1.5432E+02   6.6614E+04  0.000E+00  0.000E+00  0.000E+00  3.85125E+01  1.375E-01  2.000E+01  2.000E+04 -7.716E-03
   1   14   22     2     9    6.6614E+04  1.4100E+03   6.5204E+04  0.000E+00  0.000E+00  0.000E+00  3.82618E+01  1.368E-01  2.000E+01  2.000E+04  7.050E-02
   1   14   22     3     1    2.1633E+05 -8.8532E+03   2.2518E+05  0.000E+00  0.000E+00  0.000E+00  3.77486E+01  1.930E-01  2.000E+01  2.000E+04 -4.427E-01
   1   15   23     3     2    2.2518E+05 -1.0400E+03   2.2622E+05  0.000E+00  0.000E+00  0.000E+00  3.68623E+01  1.956E-01  2.000E+01  2.000E+04 -5.200E-02
   1   15   24     3     3    2.2622E+05 -6.5334E+02   2.2687E+05  0.000E+00  0.000E+00  0.000E+00  3.59738E+01  1.961E-01  2.000E+01  2.000E+04 -3.267E-02
   1   15   25     3     4    2.2687E+05 -6.5369E+02   2.2753E+05  0.000E+00  0.000E+00  0.000E+00  3.50853E+01  1.964E-01  2.000E+01  2.000E+04 -3.268E-02
   1   15   26     3     5    2.2753E+05 -7.2006E+02   2.2825E+05  0.000E+00  0.000E+00  0.000E+00  3.41968E+01  1.968E-01  2.000E+01  2.000E+04 -3.600E-02
   1   16   27     3     6    2.2825E+05 -6.9887E+02   2.2895E+05  0.000E+00  0.000E+00  0.000E+00  3.33082E+01  1.971E-01  2.000E+01  2.000E+04 -3.494E-02
   1   17   28     3     7    2.2895E+05  2.3468E+03   2.2660E+05  0.000E+00  0.000E+00  0.000E+00  3.24189E+01  1.967E-01  2.000E+01  2.000E+04  1.173E-01
   1   18   29     3     8    2.2660E+05  2.3797E+04   2.0280E+05  0.000E+00  0.000E+00  0.000E+00  3.15232E+01  1.898E-01  2.000E+01  2.000E+04  1.190E+00
   1   18   30     3     9    2.0280E+05  4.2731E+03   1.9853E+05  0.000E+00  0.000E+00  0.000E+00  3.06267E+01  1.823E-01  2.000E+01  2.000E+04  2.137E-01



1
              HEAD IN LAYER   1 AT END OF TIME STEP   1 IN STRESS PERIOD    2
  ---------------------------------------------------------------------------

          1      2      3      4      5      6      7      8      9     10
         11     12     13     14     15     16     17     18     19     20
         21     22     23     24     25     26     27     28     29     30
 .........................................................................
   1  ****** ****** ****** ****** ****** ****** ****** ****** ****** ******
      ****** ****** ****** ****** ****** ****** ****** ****** ****** ******
      ****** ****** ****** ****** ****** ****** ****** ****** ****** ******
   2  ****** ****** ****** ****** ****** ****** ****** ****** ****** ******
      ****** ****** ****** ****** ****** ****** ****** ****** ****** ******
      ****** ****** ****** ****** ****** ****** ****** ****** ****** ******
   3  ****** ****** ****** ****** ****** ****** ****** ****** ****** ******
      ****** ****** ****** ****** ****** ****** ****** ****** ****** ******
      ****** ****** ****** ****** ****** ****** ****** ****** ****** ******
   4  ****** ****** ****** ****** ****** ****** ****** ****** ****** ******
      ****** ****** ****** ****** ****** ****** ****** ****** ****** ******
      ****** ****** ****** ****** ****** ****** ****** ****** ****** ******
   5  ****** ****** ****** ****** ****** ****** ****** ****** ****** ******
      ****** ****** ****** ****** ****** ****** ****** ****** ****** ******
      ****** ****** ****** ****** ****** ****** ****** ****** ****** ******
   6  ****** ****** ****** ****** ****** ****** ****** ****** ****** ******
      ****** ****** ****** ****** ****** ****** ****** ****** ****** ******
      ****** ****** ****** ****** ****** ****** ****** ****** ****** ******
   7  ****** ****** ****** ****** ****** ****** ****** ****** ****** ******
      ****** ****** ****** ****** ****** ****** ****** ****** ****** ******
      ****** ****** ****** ****** ****** ****** ****** ****** ****** ******
   8  ****** ****** ****** ****** ****** ****** ****** ****** ****** ******
      ****** ****** ****** ****** ****** ****** ****** ****** ****** ******
      ****** ****** ****** ****** ****** ****** ****** ****** ****** ******
   9  ****** ****** ****** ****** ****** ****** ****** ****** ****** ******
      ****** ****** ****** ****** ****** ****** ****** ****** ****** ******
      ****** ****** ****** ****** ****** ****** ****** ****** ****** ******
  10  ****** ****** ****** ****** ****** ****** ****** ****** ****** ******
      ****** ****** ****** ****** ****** ****** ****** ****** ****** ******
      ****** ****** ****** ****** ****** ****** ****** ****** ****** ******
  11  ****** ****** ****** ****** ****** ****** ****** ****** ****** ******
      ****** ****** ****** ****** ****** ****** ****** ****** ****** ******
      ****** ****** ****** ****** ****** ****** ****** ****** ****** ******
  12  ****** ****** ****** ****** ****** ****** ****** ****** ****** ******
      ****** ****** ****** ****** ****** ****** ****** ****** ****** ******
      ****** ****** ****** ****** ****** ****** ****** ****** ****** ******
  13  ****** ****** ****** ****** ****** ****** ****** ****** ****** ******
      ****** ****** ****** ****** ****** ****** ****** ****** ****** ******
      ****** ****** ****** ****** ****** ****** ****** ****** ****** ******
  14  ****** ****** ****** ****** ****** ****** ****** ****** ****** ******
      ****** ****** ****** ****** ****** ****** ****** ****** ****** ******
      ****** ****** ****** ****** ****** ****** ****** ****** ****** ******
  15  ****** ****** ****** ****** ****** ****** ****** ****** ****** ******
      ****** ****** ****** ****** ****** ****** ****** ****** ****** ******
      ****** ****** ****** ****** ****** ****** ****** ****** ****** ******
  16  ****** ****** ****** ****** ****** ****** ****** ****** ****** ******
      ****** ****** ****** ****** ****** ****** ****** ****** ****** ******
      ****** ****** ****** ****** ****** ****** ****** ****** ****** ******
  17  ****** ****** ****** ****** ****** ****** ****** ****** ****** ******
      ****** ****** ****** ****** ****** ****** ****** ****** ****** ******
      ****** ****** ****** ****** ****** ****** ****** ****** ****** ******
  18  ****** ****** ****** ****** ****** ****** ****** ****** ****** ******
      ****** ****** ****** ****** ****** ****** ****** ****** ****** ******
      ****** ****** ****** ****** ****** ****** ****** ****** ****** ******
  19  ****** ****** ****** ****** ****** ****** ****** ****** ****** ******
      ****** ****** ****** ****** ****** ****** ****** ****** ****** ******
      ****** ****** ****** ****** ****** ****** ****** ****** ****** ******
  20  ****** ****** ****** ****** ****** ****** ****** ****** ****** ******
      ****** ****** ****** ****** ****** ****** ****** ****** ****** ******
      ****** ****** ****** ****** ****** ****** ****** ****** ****** ******
  21  ****** ****** ****** ****** ****** ****** ****** ****** ****** ******
      ****** ****** ****** ****** ****** ****** ****** ****** ****** ******
      ****** ****** ****** ****** ****** ****** ****** ****** ****** ******
  22  ****** ****** ****** ****** ****** ****** ****** ****** ****** ******
      ****** ****** ****** ****** ****** ****** ****** ****** ****** ******
      ****** ****** ****** ****** ****** ****** ****** ****** ****** ******
  23  ****** ****** ****** ****** ****** ****** ****** ****** ****** ******
      ****** ****** ****** ****** ****** ****** ****** ****** ****** ******
      ****** ****** ****** ****** ****** ****** ****** ****** ****** ******
  24  ****** ****** ****** ****** ****** ****** ****** ****** ****** ******
      ****** ****** ****** ****** ****** ****** ****** ****** ****** ******
      ****** ****** ****** ****** ****** ****** ****** ****** ****** ******
  25  ****** ****** ****** ****** ****** ****** ****** ****** ****** ******
      ****** ****** ****** ****** ****** ****** ****** ****** ****** ******
      ****** ****** ****** ****** ****** ****** ****** ****** ****** ******

 HEAD WILL BE SAVED ON UNIT   51 AT END OF TIME STEP    1, STRESS PERIOD    2
1
  VOLUMETRIC BUDGET FOR ENTIRE MODEL AT END OF TIME STEP    1, STRESS PERIOD   2
  ------------------------------------------------------------------------------

     CUMULATIVE VOLUMES      L**3       RATES FOR THIS TIME STEP      L**3/T
     ------------------                 ------------------------

           IN:                                      IN:
           ---                                      ---
             STORAGE =    22733084.5181               STORAGE =       54796.8086
       CONSTANT HEAD =     2768316.9788         CONSTANT HEAD =       17501.3999
               WELLS =           0.0000                 WELLS =           0.0000
            RECHARGE =     6292800.0000              RECHARGE =       55200.0000
      STREAM LEAKAGE =     7703296.2647        STREAM LEAKAGE =       46432.3217

            TOTAL IN =    39497497.7616              TOTAL IN =      173930.5302

          OUT:                                     OUT:
          ----                                     ----
             STORAGE =           0.0000               STORAGE =           0.0000
       CONSTANT HEAD =           0.0000         CONSTANT HEAD =           0.0000
               WELLS =    14451093.8666                 WELLS =       78967.7260
            RECHARGE =           0.0000              RECHARGE =           0.0000
      STREAM LEAKAGE =    25046404.9838        STREAM LEAKAGE =       94962.8104

           TOTAL OUT =    39497498.8505             TOTAL OUT =      173930.5364

            IN - OUT =          -1.0888              IN - OUT =      -6.2231E-03

 PERCENT DISCREPANCY =          -0.00     PERCENT DISCREPANCY =          -0.00






         TIME SUMMARY AT END OF TIME STEP    1 IN STRESS PERIOD    2
                    SECONDS     MINUTES      HOURS       DAYS        YEARS
                    -----------------------------------------------------------
   TIME STEP LENGTH 7.86240E+06 1.31040E+05  2184.0      91.000     0.24914    
 STRESS PERIOD TIME 7.86240E+06 1.31040E+05  2184.0      91.000     0.24914    
         TOTAL TIME 1.58112E+07 2.63520E+05  4392.0      183.00     0.50103    
1
1
                            STRESS PERIOD NO.    3, LENGTH =   91.00000    
                            -----------------------------------------------

                              NUMBER OF TIME STEPS =     1

                               MULTIPLIER FOR DELT =     1.500

                            INITIAL TIME STEP SIZE =   91.00000    

 WELL NO.  LAYER   ROW   COL   STRESS RATE         
 --------------------------------------------------
      1      1     15      4     -0.1117E+05
      2      1     11     22     -0.1086E+05
      3      1     18     29     -0.4636E+05
      4      1      5     18     -0.1058E+05

      4 WELLS

                 RECHARGE =   0.00000    

 REUSING STREAM SEGMENT DATA FROM LAST STRESS PERIOD
 
 SOLVING FOR HEAD 


     8 CALLS TO PCG ROUTINE FOR TIME STEP   1 IN STRESS PERIOD    3
    32 TOTAL ITERATIONS

 OUTPUT CONTROL FOR STRESS PERIOD    3   TIME STEP    1
    SAVE BUDGET
    SAVE HEAD FOR ALL LAYERS
    PRINT HEAD FOR ALL LAYERS
 UBDSV2 SAVING "STREAMFLOW OUT  " ON UNIT  50 AT TIME STEP  1, STRESS PERIOD   3



 STREAM LISTING     PERIOD      3   STEP        1

 LAYER ROW COL. STREAM  RCH.  FLOW INTO     FLOW TO   FLOW OUT OF   OVRLND.     DIRECT     STREAM       STREAM     STREAM     STREAM   STREAMBED  STREAMBED
                SEG.NO.  NO.  STRM. RCH.    AQUIFER    STRM. RCH.    RUNOFF     PRECIP       ET          HEAD       DEPTH      WIDTH   CONDCTNC.   GRADIENT

   1   13    1     1     1    1.0000E+05 -2.7212E+03   1.0272E+05  0.000E+00  0.000E+00  0.000E+00  4.84072E+01  1.458E-01  2.000E+01  2.000E+04 -1.361E-01
   1   13    2     1     2    1.0272E+05 -3.8255E+03   1.0655E+05  0.000E+00  0.000E+00  0.000E+00  4.79327E+01  1.486E-01  2.000E+01  2.000E+04 -1.913E-01
   1   14    3     1     3    1.0655E+05 -6.3645E+02   1.0718E+05  0.000E+00  0.000E+00  0.000E+00  4.74573E+01  1.505E-01  2.000E+01  2.000E+04 -3.182E-02
   1   15    4     1     4    1.0718E+05  1.0423E+04   9.6760E+04  0.000E+00  0.000E+00  0.000E+00  4.69759E+01  1.464E-01  2.000E+01  2.000E+04  5.211E-01
   1   16    5     1     5    9.6760E+04 -2.4259E+03   9.9186E+04  0.000E+00  0.000E+00  0.000E+00  4.64952E+01  1.429E-01  2.000E+01  2.000E+04 -1.213E-01
   1   16    6     1     6    9.9186E+04 -1.5034E+03   1.0069E+05  0.000E+00  0.000E+00  0.000E+00  4.60196E+01  1.446E-01  2.000E+01  2.000E+04 -7.517E-02
   1   16    7     1     7    1.0069E+05 -1.4723E+03   1.0216E+05  0.000E+00  0.000E+00  0.000E+00  4.55436E+01  1.459E-01  2.000E+01  2.000E+04 -7.362E-02
   1   16    8     1     8    1.0216E+05 -1.4636E+03   1.0363E+05  0.000E+00  0.000E+00  0.000E+00  4.50676E+01  1.471E-01  2.000E+01  2.000E+04 -7.318E-02
   1   16    9     1     9    1.0363E+05 -1.4491E+03   1.0507E+05  0.000E+00  0.000E+00  0.000E+00  4.45916E+01  1.484E-01  2.000E+01  2.000E+04 -7.245E-02
   1   16   10     1    10    1.0507E+05 -1.4269E+03   1.0650E+05  0.000E+00  0.000E+00  0.000E+00  4.41155E+01  1.496E-01  2.000E+01  2.000E+04 -7.134E-02
   1   16   11     1    11    1.0650E+05 -1.4290E+03   1.0793E+05  0.000E+00  0.000E+00  0.000E+00  4.36395E+01  1.508E-01  2.000E+01  2.000E+04 -7.145E-02
   1   16   12     1    12    1.0793E+05 -2.5158E+03   1.1045E+05  0.000E+00  0.000E+00  0.000E+00  4.31638E+01  1.525E-01  2.000E+01  2.000E+04 -1.258E-01
   1   15   13     1    13    1.1045E+05 -2.3780E+03   1.1282E+05  0.000E+00  0.000E+00  0.000E+00  4.26886E+01  1.545E-01  2.000E+01  2.000E+04 -1.189E-01
   1   14   14     1    14    1.1282E+05 -2.6222E+03   1.1545E+05  0.000E+00  0.000E+00  0.000E+00  4.22134E+01  1.566E-01  2.000E+01  2.000E+04 -1.311E-01
   1   13   15     1    15    1.1545E+05 -2.8197E+03   1.1827E+05  0.000E+00  0.000E+00  0.000E+00  4.17384E+01  1.588E-01  2.000E+01  2.000E+04 -1.410E-01
   1   12   16     1    16    1.1827E+05 -3.1891E+03   1.2146E+05  0.000E+00  0.000E+00  0.000E+00  4.12635E+01  1.613E-01  2.000E+01  2.000E+04 -1.595E-01
   1   12   17     1    17    1.2146E+05 -1.9121E+03   1.2337E+05  0.000E+00  0.000E+00  0.000E+00  4.07883E+01  1.633E-01  2.000E+01  2.000E+04 -9.560E-02
   1   12   18     1    18    1.2337E+05 -1.6284E+03   1.2500E+05  0.000E+00  0.000E+00  0.000E+00  4.03125E+01  1.647E-01  2.000E+01  2.000E+04 -8.142E-02
   1   12   19     1    19    1.2500E+05 -1.2511E+03   1.2625E+05  0.000E+00  0.000E+00  0.000E+00  3.98363E+01  1.659E-01  2.000E+01  2.000E+04 -6.256E-02
   1   13   20     1    20    1.2625E+05 -8.4559E+02   1.2709E+05  0.000E+00  0.000E+00  0.000E+00  3.93599E+01  1.667E-01  2.000E+01  2.000E+04 -4.228E-02
   1   14   21     1    21    1.2709E+05 -1.5943E+03   1.2869E+05  0.000E+00  0.000E+00  0.000E+00  3.88836E+01  1.677E-01  2.000E+01  2.000E+04 -7.972E-02
   1   14   22     1    22    1.2869E+05  5.0535E+03   1.2363E+05  0.000E+00  0.000E+00  0.000E+00  3.84049E+01  1.663E-01  2.000E+01  2.000E+04  2.527E-01
   1    9   30     2     1    5.0000E+04 -6.7985E+02   5.0680E+04  0.000E+00  0.000E+00  0.000E+00  4.02413E+01  1.163E-01  2.000E+01  2.000E+04 -3.399E-02
   1    9   29     2     2    5.0680E+04 -9.7515E+02   5.1655E+04  0.000E+00  0.000E+00  0.000E+00  3.99925E+01  1.175E-01  2.000E+01  2.000E+04 -4.876E-02
   1    9   28     2     3    5.1655E+04 -1.2164E+03   5.2871E+04  0.000E+00  0.000E+00  0.000E+00  3.97440E+01  1.190E-01  2.000E+01  2.000E+04 -6.082E-02
   1    9   27     2     4    5.2871E+04 -2.3516E+03   5.5223E+04  0.000E+00  0.000E+00  0.000E+00  3.94964E+01  1.214E-01  2.000E+01  2.000E+04 -1.176E-01
   1   10   26     2     5    5.5223E+04 -1.1445E+03   5.6368E+04  0.000E+00  0.000E+00  0.000E+00  3.92487E+01  1.237E-01  2.000E+01  2.000E+04 -5.723E-02
   1   11   25     2     6    5.6368E+04 -2.9632E+02   5.6664E+04  0.000E+00  0.000E+00  0.000E+00  3.89997E+01  1.247E-01  2.000E+01  2.000E+04 -1.482E-02
   1   12   24     2     7    5.6664E+04  6.2308E+02   5.6041E+04  0.000E+00  0.000E+00  0.000E+00  3.87495E+01  1.245E-01  2.000E+01  2.000E+04  3.115E-02
   1   13   23     2     8    5.6041E+04  1.9556E+02   5.5845E+04  0.000E+00  0.000E+00  0.000E+00  3.84989E+01  1.239E-01  2.000E+01  2.000E+04  9.778E-03
   1   14   22     2     9    5.5845E+04  1.9057E+03   5.3940E+04  0.000E+00  0.000E+00  0.000E+00  3.82475E+01  1.225E-01  2.000E+01  2.000E+04  9.529E-02
   1   14   22     3     1    1.7757E+05 -8.4975E+03   1.8607E+05  0.000E+00  0.000E+00  0.000E+00  3.77274E+01  1.718E-01  2.000E+01  2.000E+04 -4.249E-01
   1   15   23     3     2    1.8607E+05 -6.4605E+02   1.8672E+05  0.000E+00  0.000E+00  0.000E+00  3.68411E+01  1.744E-01  2.000E+01  2.000E+04 -3.230E-02
   1   15   24     3     3    1.8672E+05 -3.2692E+02   1.8704E+05  0.000E+00  0.000E+00  0.000E+00  3.59525E+01  1.747E-01  2.000E+01  2.000E+04 -1.635E-02
   1   15   25     3     4    1.8704E+05 -3.0834E+02   1.8735E+05  0.000E+00  0.000E+00  0.000E+00  3.50637E+01  1.749E-01  2.000E+01  2.000E+04 -1.542E-02
   1   15   26     3     5    1.8735E+05 -3.0229E+02   1.8765E+05  0.000E+00  0.000E+00  0.000E+00  3.41750E+01  1.750E-01  2.000E+01  2.000E+04 -1.511E-02
   1   16   27     3     6    1.8765E+05 -1.9325E+02   1.8785E+05  0.000E+00  0.000E+00  0.000E+00  3.32863E+01  1.752E-01  2.000E+01  2.000E+04 -9.663E-03
   1   17   28     3     7    1.8785E+05  4.5538E+03   1.8329E+05  0.000E+00  0.000E+00  0.000E+00  3.23962E+01  1.739E-01  2.000E+01  2.000E+04  2.277E-01
   1   18   29     3     8    1.8329E+05  2.3320E+04   1.5997E+05  0.000E+00  0.000E+00  0.000E+00  3.14993E+01  1.660E-01  2.000E+01  2.000E+04  1.166E+00
   1   18   30     3     9    1.5997E+05  6.6329E+03   1.5334E+05  0.000E+00  0.000E+00  0.000E+00  3.06016E+01  1.571E-01  2.000E+01  2.000E+04  3.316E-01



1
              HEAD IN LAYER   1 AT END OF TIME STEP   1 IN STRESS PERIOD    3
  ---------------------------------------------------------------------------

          1      2      3      4      5      6      7      8      9     10
         11     12     13     14     15     16     17     18     19     20
         21     22     23     24     25     26     27     28     29     30
 .........................................................................
   1  ****** ****** ****** ****** ****** ****** ****** ****** ****** ******
      ****** ****** ****** ****** ****** ****** ****** ****** ****** ******
      ****** ****** ****** ****** ****** ****** ****** ****** ****** ******
   2  ****** ****** ****** ****** ****** ****** ****** ****** ****** ******
      ****** ****** ****** ****** ****** ****** ****** ****** ****** ******
      ****** ****** ****** ****** ****** ****** ****** ****** ****** ******
   3  ****** ****** ****** ****** ****** ****** ****** ****** ****** ******
      ****** ****** ****** ****** ****** ****** ****** ****** ****** ******
      ****** ****** ****** ****** ****** ****** ****** ****** ****** ******
   4  ****** ****** ****** ****** ****** ****** ****** ****** ****** ******
      ****** ****** ****** ****** ****** ****** ****** ****** ****** ******
      ****** ****** ****** ****** ****** ****** ****** ****** ****** ******
   5  ****** ****** ****** ****** ****** ****** ****** ****** ****** ******
      ****** ****** ****** ****** ****** ****** ****** ****** ****** ******
      ****** ****** ****** ****** ****** ****** ****** ****** ****** ******
   6  ****** ****** ****** ****** ****** ****** ****** ****** ****** ******
      ****** ****** ****** ****** ****** ****** ****** ****** ****** ******
      ****** ****** ****** ****** ****** ****** ****** ****** ****** ******
   7  ****** ****** ****** ****** ****** ****** ****** ****** ****** ******
      ****** ****** ****** ****** ****** ****** ****** ****** ****** ******
      ****** ****** ****** ****** ****** ****** ****** ****** ****** ******
   8  ****** ****** ****** ****** ****** ****** ****** ****** ****** ******
      ****** ****** ****** ****** ****** ****** ****** ****** ****** ******
      ****** ****** ****** ****** ****** ****** ****** ****** ****** ******
   9  ****** ****** ****** ****** ****** ****** ****** ****** ****** ******
      ****** ****** ****** ****** ****** ****** ****** ****** ****** ******
      ****** ****** ****** ****** ****** ****** ****** ****** ****** ******
  10  ****** ****** ****** ****** ****** ****** ****** ****** ****** ******
      ****** ****** ****** ****** ****** ****** ****** ****** ****** ******
      ****** ****** ****** ****** ****** ****** ****** ****** ****** ******
  11  ****** ****** ****** ****** ****** ****** ****** ****** ****** ******
      ****** ****** ****** ****** ****** ****** ****** ****** ****** ******
      ****** ****** ****** ****** ****** ****** ****** ****** ****** ******
  12  ****** ****** ****** ****** ****** ****** ****** ****** ****** ******
      ****** ****** ****** ****** ****** ****** ****** ****** ****** ******
      ****** ****** ****** ****** ****** ****** ****** ****** ****** ******
  13  ****** ****** ****** ****** ****** ****** ****** ****** ****** ******
      ****** ****** ****** ****** ****** ****** ****** ****** ****** ******
      ****** ****** ****** ****** ****** ****** ****** ****** ****** ******
  14  ****** ****** ****** ****** ****** ****** ****** ****** ****** ******
      ****** ****** ****** ****** ****** ****** ****** ****** ****** ******
      ****** ****** ****** ****** ****** ****** ****** ****** ****** ******
  15  ****** ****** ****** ****** ****** ****** ****** ****** ****** ******
      ****** ****** ****** ****** ****** ****** ****** ****** ****** ******
      ****** ****** ****** ****** ****** ****** ****** ****** ****** ******
  16  ****** ****** ****** ****** ****** ****** ****** ****** ****** ******
      ****** ****** ****** ****** ****** ****** ****** ****** ****** ******
      ****** ****** ****** ****** ****** ****** ****** ****** ****** ******
  17  ****** ****** ****** ****** ****** ****** ****** ****** ****** ******
      ****** ****** ****** ****** ****** ****** ****** ****** ****** ******
      ****** ****** ****** ****** ****** ****** ****** ****** ****** ******
  18  ****** ****** ****** ****** ****** ****** ****** ****** ****** ******
      ****** ****** ****** ****** ****** ****** ****** ****** ****** ******
      ****** ****** ****** ****** ****** ****** ****** ****** ****** ******
  19  ****** ****** ****** ****** ****** ****** ****** ****** ****** ******
      ****** ****** ****** ****** ****** ****** ****** ****** ****** ******
      ****** ****** ****** ****** ****** ****** ****** ****** ****** ******
  20  ****** ****** ****** ****** ****** ****** ****** ****** ****** ******
      ****** ****** ****** ****** ****** ****** ****** ****** ****** ******
      ****** ****** ****** ****** ****** ****** ****** ****** ****** ******
  21  ****** ****** ****** ****** ****** ****** ****** ****** ****** ******
      ****** ****** ****** ****** ****** ****** ****** ****** ****** ******
      ****** ****** ****** ****** ****** ****** ****** ****** ****** ******
  22  ****** ****** ****** ****** ****** ****** ****** ****** ****** ******
      ****** ****** ****** ****** ****** ****** ****** ****** ****** ******
      ****** ****** ****** ****** ****** ****** ****** ****** ****** ******
  23  ****** ****** ****** ****** ****** ****** ****** ****** ****** ******
      ****** ****** ****** ****** ****** ****** ****** ****** ****** ******
      ****** ****** ****** ****** ****** ****** ****** ****** ****** ******
  24  ****** ****** ****** ****** ****** ****** ****** ****** ****** ******
      ****** ****** ****** ****** ****** ****** ****** ****** ****** ******
      ****** ****** ****** ****** ****** ****** ****** ****** ****** ******
  25  ****** ****** ****** ****** ****** ****** ****** ****** ****** ******
      ****** ****** ****** ****** ****** ****** ****** ****** ****** ******
      ****** ****** ****** ****** ****** ****** ****** ****** ****** ******

 HEAD WILL BE SAVED ON UNIT   51 AT END OF TIME STEP    1, STRESS PERIOD    3
1
  VOLUMETRIC BUDGET FOR ENTIRE MODEL AT END OF TIME STEP    1, STRESS PERIOD   3
  ------------------------------------------------------------------------------

     CUMULATIVE VOLUMES      L**3       RATES FOR THIS TIME STEP      L**3/T
     ------------------                 ------------------------

           IN:                                      IN:
           ---                                      ---
             STORAGE =    27837374.3866               STORAGE =       56091.0975
       CONSTANT HEAD =     5154116.6958         CONSTANT HEAD =       26217.5793
               WELLS =           0.0000                 WELLS =           0.0000
            RECHARGE =     6292800.0000              RECHARGE =           0.0000
      STREAM LEAKAGE =    12499612.7724        STREAM LEAKAGE =       52706.7748

            TOTAL IN =    51783903.8548              TOTAL IN =      135015.4516

          OUT:                                     OUT:
          ----                                     ----
             STORAGE =           0.0000               STORAGE =           0.0000
       CONSTANT HEAD =           0.0000         CONSTANT HEAD =           0.0000
               WELLS =    21637156.9369                 WELLS =       78967.7260
            RECHARGE =           0.0000              RECHARGE =           0.0000
      STREAM LEAKAGE =    30146748.3890        STREAM LEAKAGE =       56047.7297

           TOTAL OUT =    51783905.3259             TOTAL OUT =      135015.4558

            IN - OUT =          -1.4711              IN - OUT =      -4.2007E-03

 PERCENT DISCREPANCY =          -0.00     PERCENT DISCREPANCY =          -0.00






         TIME SUMMARY AT END OF TIME STEP    1 IN STRESS PERIOD    3
                    SECONDS     MINUTES      HOURS       DAYS        YEARS
                    -----------------------------------------------------------
   TIME STEP LENGTH 7.86240E+06 1.31040E+05  2184.0      91.000     0.24914    
 STRESS PERIOD TIME 7.86240E+06 1.31040E+05  2184.0      91.000     0.24914    
         TOTAL TIME 2.36736E+07 3.94560E+05  6576.0      274.00     0.75017    
1
1
                            STRESS PERIOD NO.    4, LENGTH =   91.00000    
                            -----------------------------------------------

                              NUMBER OF TIME STEPS =     1

                               MULTIPLIER FOR DELT =     1.500

                            INITIAL TIME STEP SIZE =   91.00000    

 WELL NO.  LAYER   ROW   COL   STRESS RATE         
 --------------------------------------------------
      1      1     15      4     -0.1117E+05
      2      1     11     22     -0.1086E+05
      3      1     18     29     -0.4636E+05
      4      1      5     18     -0.1058E+05

      4 WELLS

                 RECHARGE =  1.000000E-03

 REUSING STREAM SEGMENT DATA FROM LAST STRESS PERIOD
 
 SOLVING FOR HEAD 


     7 CALLS TO PCG ROUTINE FOR TIME STEP   1 IN STRESS PERIOD    4
    29 TOTAL ITERATIONS

 OUTPUT CONTROL FOR STRESS PERIOD    4   TIME STEP    1
    SAVE BUDGET
    SAVE HEAD FOR ALL LAYERS
    PRINT HEAD FOR ALL LAYERS
 UBDSV2 SAVING "STREAMFLOW OUT  " ON UNIT  50 AT TIME STEP  1, STRESS PERIOD   4



 STREAM LISTING     PERIOD      4   STEP        1

 LAYER ROW COL. STREAM  RCH.  FLOW INTO     FLOW TO   FLOW OUT OF   OVRLND.     DIRECT     STREAM       STREAM     STREAM     STREAM   STREAMBED  STREAMBED
                SEG.NO.  NO.  STRM. RCH.    AQUIFER    STRM. RCH.    RUNOFF     PRECIP       ET          HEAD       DEPTH      WIDTH   CONDCTNC.   GRADIENT

   1   13    1     1     1    1.0000E+05 -2.4759E+03   1.0248E+05  0.000E+00  0.000E+00  0.000E+00  4.84071E+01  1.457E-01  2.000E+01  2.000E+04 -1.238E-01
   1   13    2     1     2    1.0248E+05 -3.5408E+03   1.0602E+05  0.000E+00  0.000E+00  0.000E+00  4.79324E+01  1.483E-01  2.000E+01  2.000E+04 -1.770E-01
   1   14    3     1     3    1.0602E+05 -6.0723E+02   1.0662E+05  0.000E+00  0.000E+00  0.000E+00  4.74569E+01  1.501E-01  2.000E+01  2.000E+04 -3.036E-02
   1   15    4     1     4    1.0662E+05  1.0461E+04   9.6163E+04  0.000E+00  0.000E+00  0.000E+00  4.69754E+01  1.459E-01  2.000E+01  2.000E+04  5.231E-01
   1   16    5     1     5    9.6163E+04 -2.1285E+03   9.8291E+04  0.000E+00  0.000E+00  0.000E+00  4.64945E+01  1.422E-01  2.000E+01  2.000E+04 -1.064E-01
   1   16    6     1     6    9.8291E+04 -1.3573E+03   9.9649E+04  0.000E+00  0.000E+00  0.000E+00  4.60188E+01  1.438E-01  2.000E+01  2.000E+04 -6.786E-02
   1   16    7     1     7    9.9649E+04 -1.3375E+03   1.0099E+05  0.000E+00  0.000E+00  0.000E+00  4.55427E+01  1.449E-01  2.000E+01  2.000E+04 -6.687E-02
   1   16    8     1     8    1.0099E+05 -1.3332E+03   1.0232E+05  0.000E+00  0.000E+00  0.000E+00  4.50665E+01  1.461E-01  2.000E+01  2.000E+04 -6.666E-02
   1   16    9     1     9    1.0232E+05 -1.3218E+03   1.0364E+05  0.000E+00  0.000E+00  0.000E+00  4.45904E+01  1.472E-01  2.000E+01  2.000E+04 -6.609E-02
   1   16   10     1    10    1.0364E+05 -1.3034E+03   1.0494E+05  0.000E+00  0.000E+00  0.000E+00  4.41143E+01  1.483E-01  2.000E+01  2.000E+04 -6.517E-02
   1   16   11     1    11    1.0494E+05 -1.3062E+03   1.0625E+05  0.000E+00  0.000E+00  0.000E+00  4.36381E+01  1.495E-01  2.000E+01  2.000E+04 -6.531E-02
   1   16   12     1    12    1.0625E+05 -2.2541E+03   1.0850E+05  0.000E+00  0.000E+00  0.000E+00  4.31623E+01  1.510E-01  2.000E+01  2.000E+04 -1.127E-01
   1   15   13     1    13    1.0850E+05 -2.1238E+03   1.1063E+05  0.000E+00  0.000E+00  0.000E+00  4.26869E+01  1.528E-01  2.000E+01  2.000E+04 -1.062E-01
   1   14   14     1    14    1.1063E+05 -2.3357E+03   1.1296E+05  0.000E+00  0.000E+00  0.000E+00  4.22115E+01  1.547E-01  2.000E+01  2.000E+04 -1.168E-01
   1   13   15     1    15    1.1296E+05 -2.4963E+03   1.1546E+05  0.000E+00  0.000E+00  0.000E+00  4.17362E+01  1.567E-01  2.000E+01  2.000E+04 -1.248E-01
   1   12   16     1    16    1.1546E+05 -2.7443E+03   1.1820E+05  0.000E+00  0.000E+00  0.000E+00  4.12611E+01  1.588E-01  2.000E+01  2.000E+04 -1.372E-01
   1   12   17     1    17    1.1820E+05 -1.6454E+03   1.1985E+05  0.000E+00  0.000E+00  0.000E+00  4.07856E+01  1.606E-01  2.000E+01  2.000E+04 -8.227E-02
   1   12   18     1    18    1.1985E+05 -1.3792E+03   1.2123E+05  0.000E+00  0.000E+00  0.000E+00  4.03095E+01  1.618E-01  2.000E+01  2.000E+04 -6.896E-02
   1   12   19     1    19    1.2123E+05 -9.3401E+02   1.2216E+05  0.000E+00  0.000E+00  0.000E+00  3.98332E+01  1.627E-01  2.000E+01  2.000E+04 -4.670E-02
   1   13   20     1    20    1.2216E+05 -6.5330E+02   1.2282E+05  0.000E+00  0.000E+00  0.000E+00  3.93566E+01  1.634E-01  2.000E+01  2.000E+04 -3.266E-02
   1   14   21     1    21    1.2282E+05 -1.3572E+03   1.2417E+05  0.000E+00  0.000E+00  0.000E+00  3.88801E+01  1.642E-01  2.000E+01  2.000E+04 -6.786E-02
   1   14   22     1    22    1.2417E+05  5.0928E+03   1.1908E+05  0.000E+00  0.000E+00  0.000E+00  3.84013E+01  1.627E-01  2.000E+01  2.000E+04  2.546E-01
   1    9   30     2     1    5.0000E+04 -5.6611E+02   5.0566E+04  0.000E+00  0.000E+00  0.000E+00  4.02413E+01  1.163E-01  2.000E+01  2.000E+04 -2.831E-02
   1    9   29     2     2    5.0566E+04 -8.5352E+02   5.1420E+04  0.000E+00  0.000E+00  0.000E+00  3.99922E+01  1.172E-01  2.000E+01  2.000E+04 -4.268E-02
   1    9   28     2     3    5.1420E+04 -1.0719E+03   5.2492E+04  0.000E+00  0.000E+00  0.000E+00  3.97436E+01  1.186E-01  2.000E+01  2.000E+04 -5.359E-02
   1    9   27     2     4    5.2492E+04 -2.0329E+03   5.4524E+04  0.000E+00  0.000E+00  0.000E+00  3.94957E+01  1.207E-01  2.000E+01  2.000E+04 -1.016E-01
   1   10   26     2     5    5.4524E+04 -9.4260E+02   5.5467E+04  0.000E+00  0.000E+00  0.000E+00  3.92477E+01  1.227E-01  2.000E+01  2.000E+04 -4.713E-02
   1   11   25     2     6    5.5467E+04 -1.3891E+02   5.5606E+04  0.000E+00  0.000E+00  0.000E+00  3.89984E+01  1.234E-01  2.000E+01  2.000E+04 -6.945E-03
   1   12   24     2     7    5.5606E+04  7.5905E+02   5.4847E+04  0.000E+00  0.000E+00  0.000E+00  3.87480E+01  1.230E-01  2.000E+01  2.000E+04  3.795E-02
   1   13   23     2     8    5.4847E+04  1.7556E+02   5.4671E+04  0.000E+00  0.000E+00  0.000E+00  3.84974E+01  1.224E-01  2.000E+01  2.000E+04  8.778E-03
   1   14   22     2     9    5.4671E+04  1.9845E+03   5.2687E+04  0.000E+00  0.000E+00  0.000E+00  3.82459E+01  1.209E-01  2.000E+01  2.000E+04  9.923E-02
   1   14   22     3     1    1.7177E+05 -8.4525E+03   1.8022E+05  0.000E+00  0.000E+00  0.000E+00  3.77241E+01  1.685E-01  2.000E+01  2.000E+04 -4.226E-01
   1   15   23     3     2    1.8022E+05 -6.2116E+02   1.8084E+05  0.000E+00  0.000E+00  0.000E+00  3.68378E+01  1.711E-01  2.000E+01  2.000E+04 -3.106E-02
   1   15   24     3     3    1.8084E+05 -3.2377E+02   1.8117E+05  0.000E+00  0.000E+00  0.000E+00  3.59491E+01  1.714E-01  2.000E+01  2.000E+04 -1.619E-02
   1   15   25     3     4    1.8117E+05 -3.0383E+02   1.8147E+05  0.000E+00  0.000E+00  0.000E+00  3.50604E+01  1.715E-01  2.000E+01  2.000E+04 -1.519E-02
   1   15   26     3     5    1.8147E+05 -3.0489E+02   1.8177E+05  0.000E+00  0.000E+00  0.000E+00  3.41717E+01  1.717E-01  2.000E+01  2.000E+04 -1.524E-02
   1   16   27     3     6    1.8177E+05 -1.7834E+02   1.8195E+05  0.000E+00  0.000E+00  0.000E+00  3.32830E+01  1.718E-01  2.000E+01  2.000E+04 -8.917E-03
   1   17   28     3     7    1.8195E+05  4.8159E+03   1.7714E+05  0.000E+00  0.000E+00  0.000E+00  3.23928E+01  1.705E-01  2.000E+01  2.000E+04  2.408E-01
   1   18   29     3     8    1.7714E+05  2.3248E+04   1.5389E+05  0.000E+00  0.000E+00  0.000E+00  3.14957E+01  1.624E-01  2.000E+01  2.000E+04  1.162E+00
   1   18   30     3     9    1.5389E+05  7.0263E+03   1.4686E+05  0.000E+00  0.000E+00  0.000E+00  3.05978E+01  1.533E-01  2.000E+01  2.000E+04  3.513E-01



1
              HEAD IN LAYER   1 AT END OF TIME STEP   1 IN STRESS PERIOD    4
  ---------------------------------------------------------------------------

          1      2      3      4      5      6      7      8      9     10
         11     12     13     14     15     16     17     18     19     20
         21     22     23     24     25     26     27     28     29     30
 .........................................................................
   1  ****** ****** ****** ****** ****** ****** ****** ****** ****** ******
      ****** ****** ****** ****** ****** ****** ****** ****** ****** ******
      ****** ****** ****** ****** ****** ****** ****** ****** ****** ******
   2  ****** ****** ****** ****** ****** ****** ****** ****** ****** ******
      ****** ****** ****** ****** ****** ****** ****** ****** ****** ******
      ****** ****** ****** ****** ****** ****** ****** ****** ****** ******
   3  ****** ****** ****** ****** ****** ****** ****** ****** ****** ******
      ****** ****** ****** ****** ****** ****** ****** ****** ****** ******
      ****** ****** ****** ****** ****** ****** ****** ****** ****** ******
   4  ****** ****** ****** ****** ****** ****** ****** ****** ****** ******
      ****** ****** ****** ****** ****** ****** ****** ****** ****** ******
      ****** ****** ****** ****** ****** ****** ****** ****** ****** ******
   5  ****** ****** ****** ****** ****** ****** ****** ****** ****** ******
      ****** ****** ****** ****** ****** ****** ****** ****** ****** ******
      ****** ****** ****** ****** ****** ****** ****** ****** ****** ******
   6  ****** ****** ****** ****** ****** ****** ****** ****** ****** ******
      ****** ****** ****** ****** ****** ****** ****** ****** ****** ******
      ****** ****** ****** ****** ****** ****** ****** ****** ****** ******
   7  ****** ****** ****** ****** ****** ****** ****** ****** ****** ******
      ****** ****** ****** ****** ****** ****** ****** ****** ****** ******
      ****** ****** ****** ****** ****** ****** ****** ****** ****** ******
   8  ****** ****** ****** ****** ****** ****** ****** ****** ****** ******
      ****** ****** ****** ****** ****** ****** ****** ****** ****** ******
      ****** ****** ****** ****** ****** ****** ****** ****** ****** ******
   9  ****** ****** ****** ****** ****** ****** ****** ****** ****** ******
      ****** ****** ****** ****** ****** ****** ****** ****** ****** ******
      ****** ****** ****** ****** ****** ****** ****** ****** ****** ******
  10  ****** ****** ****** ****** ****** ****** ****** ****** ****** ******
      ****** ****** ****** ****** ****** ****** ****** ****** ****** ******
      ****** ****** ****** ****** ****** ****** ****** ****** ****** ******
  11  ****** ****** ****** ****** ****** ****** ****** ****** ****** ******
      ****** ****** ****** ****** ****** ****** ****** ****** ****** ******
      ****** ****** ****** ****** ****** ****** ****** ****** ****** ******
  12  ****** ****** ****** ****** ****** ****** ****** ****** ****** ******
      ****** ****** ****** ****** ****** ****** ****** ****** ****** ******
      ****** ****** ****** ****** ****** ****** ****** ****** ****** ******
  13  ****** ****** ****** ****** ****** ****** ****** ****** ****** ******
      ****** ****** ****** ****** ****** ****** ****** ****** ****** ******
      ****** ****** ****** ****** ****** ****** ****** ****** ****** ******
  14  ****** ****** ****** ****** ****** ****** ****** ****** ****** ******
      ****** ****** ****** ****** ****** ****** ****** ****** ****** ******
      ****** ****** ****** ****** ****** ****** ****** ****** ****** ******
  15  ****** ****** ****** ****** ****** ****** ****** ****** ****** ******
      ****** ****** ****** ****** ****** ****** ****** ****** ****** ******
      ****** ****** ****** ****** ****** ****** ****** ****** ****** ******
  16  ****** ****** ****** ****** ****** ****** ****** ****** ****** ******
      ****** ****** ****** ****** ****** ****** ****** ****** ****** ******
      ****** ****** ****** ****** ****** ****** ****** ****** ****** ******
  17  ****** ****** ****** ****** ****** ****** ****** ****** ****** ******
      ****** ****** ****** ****** ****** ****** ****** ****** ****** ******
      ****** ****** ****** ****** ****** ****** ****** ****** ****** ******
  18  ****** ****** ****** ****** ****** ****** ****** ****** ****** ******
      ****** ****** ****** ****** ****** ****** ****** ****** ****** ******
      ****** ****** ****** ****** ****** ****** ****** ****** ****** ******
  19  ****** ****** ****** ****** ****** ****** ****** ****** ****** ******
      ****** ****** ****** ****** ****** ****** ****** ****** ****** ******
      ****** ****** ****** ****** ****** ****** ****** ****** ****** ******
  20  ****** ****** ****** ****** ****** ****** ****** ****** ****** ******
      ****** ****** ****** ****** ****** ****** ****** ****** ****** ******
      ****** ****** ****** ****** ****** ****** ****** ****** ****** ******
  21  ****** ****** ****** ****** ****** ****** ****** ****** ****** ******
      ****** ****** ****** ****** ****** ****** ****** ****** ****** ******
      ****** ****** ****** ****** ****** ****** ****** ****** ****** ******
  22  ****** ****** ****** ****** ****** ****** ****** ****** ****** ******
      ****** ****** ****** ****** ****** ****** ****** ****** ****** ******
      ****** ****** ****** ****** ****** ****** ****** ****** ****** ******
  23  ****** ****** ****** ****** ****** ****** ****** ****** ****** ******
      ****** ****** ****** ****** ****** ****** ****** ****** ****** ******
      ****** ****** ****** ****** ****** ****** ****** ****** ****** ******
  24  ****** ****** ****** ****** ****** ****** ****** ****** ****** ******
      ****** ****** ****** ****** ****** ****** ****** ****** ****** ******
      ****** ****** ****** ****** ****** ****** ****** ****** ****** ******
  25  ****** ****** ****** ****** ****** ****** ****** ****** ****** ******
      ****** ****** ****** ****** ****** ****** ****** ****** ****** ******
      ****** ****** ****** ****** ****** ****** ****** ****** ****** ******

 HEAD WILL BE SAVED ON UNIT   51 AT END OF TIME STEP    1, STRESS PERIOD    4
1
  VOLUMETRIC BUDGET FOR ENTIRE MODEL AT END OF TIME STEP    1, STRESS PERIOD   4
  ------------------------------------------------------------------------------

     CUMULATIVE VOLUMES      L**3       RATES FOR THIS TIME STEP      L**3/T
     ------------------                 ------------------------

           IN:                                      IN:
           ---                                      ---
             STORAGE =    29593198.1995               STORAGE =       19294.7672
       CONSTANT HEAD =     7787748.4354         CONSTANT HEAD =       28941.0081
               WELLS =           0.0000                 WELLS =           0.0000
            RECHARGE =     8804400.0000              RECHARGE =       27600.0000
      STREAM LEAKAGE =    17373874.6556        STREAM LEAKAGE =       53563.3174

            TOTAL IN =    63559221.2905              TOTAL IN =      129399.0927

          OUT:                                     OUT:
          ----                                     ----
             STORAGE =         527.6849               STORAGE =           5.7987
       CONSTANT HEAD =           0.0000         CONSTANT HEAD =           0.0000
               WELLS =    28823220.0072                 WELLS =       78967.7260
            RECHARGE =           0.0000              RECHARGE =           0.0000
      STREAM LEAKAGE =    34735475.3247        STREAM LEAKAGE =       50425.5707

           TOTAL OUT =    63559223.0168             TOTAL OUT =      129399.0955

            IN - OUT =          -1.7262              IN - OUT =      -2.8037E-03

 PERCENT DISCREPANCY =          -0.00     PERCENT DISCREPANCY =          -0.00






         TIME SUMMARY AT END OF TIME STEP    1 IN STRESS PERIOD    4
                    SECONDS     MINUTES      HOURS       DAYS        YEARS
                    -----------------------------------------------------------
   TIME STEP LENGTH 7.86240E+06 1.31040E+05  2184.0      91.000     0.24914    
 STRESS PERIOD TIME 7.86240E+06 1.31040E+05  2184.0      91.000     0.24914    
         TOTAL TIME 3.15360E+07 5.25600E+05  8760.0      365.00     0.99932    
1
1
                            STRESS PERIOD NO.    5, LENGTH =   92.00000    
                            -----------------------------------------------

                              NUMBER OF TIME STEPS =     1

                               MULTIPLIER FOR DELT =     1.500

                            INITIAL TIME STEP SIZE =   92.00000    

 WELL NO.  LAYER   ROW   COL   STRESS RATE         
 --------------------------------------------------
      1      1     15      4     -0.1117E+05
      2      1     11     22     -0.1086E+05
      3      1     18     29     -0.4636E+05
      4      1      5     18     -0.1058E+05

      4 WELLS

                 RECHARGE =  5.000000E-04

 REUSING STREAM SEGMENT DATA FROM LAST STRESS PERIOD
 
 SOLVING FOR HEAD 


     8 CALLS TO PCG ROUTINE FOR TIME STEP   1 IN STRESS PERIOD    5
    31 TOTAL ITERATIONS

 OUTPUT CONTROL FOR STRESS PERIOD    5   TIME STEP    1
    SAVE BUDGET
    SAVE HEAD FOR ALL LAYERS
    PRINT HEAD FOR ALL LAYERS
 UBDSV2 SAVING "STREAMFLOW OUT  " ON UNIT  50 AT TIME STEP  1, STRESS PERIOD   5



 STREAM LISTING     PERIOD      5   STEP        1

 LAYER ROW COL. STREAM  RCH.  FLOW INTO     FLOW TO   FLOW OUT OF   OVRLND.     DIRECT     STREAM       STREAM     STREAM     STREAM   STREAMBED  STREAMBED
                SEG.NO.  NO.  STRM. RCH.    AQUIFER    STRM. RCH.    RUNOFF     PRECIP       ET          HEAD       DEPTH      WIDTH   CONDCTNC.   GRADIENT

   1   13    1     1     1    1.0000E+05 -2.0519E+03   1.0205E+05  0.000E+00  0.000E+00  0.000E+00  4.84069E+01  1.455E-01  2.000E+01  2.000E+04 -1.026E-01
   1   13    2     1     2    1.0205E+05 -3.0616E+03   1.0511E+05  0.000E+00  0.000E+00  0.000E+00  4.79318E+01  1.477E-01  2.000E+01  2.000E+04 -1.531E-01
   1   14    3     1     3    1.0511E+05 -4.8423E+02   1.0560E+05  0.000E+00  0.000E+00  0.000E+00  4.74561E+01  1.493E-01  2.000E+01  2.000E+04 -2.421E-02
   1   15    4     1     4    1.0560E+05  1.0590E+04   9.5007E+04  0.000E+00  0.000E+00  0.000E+00  4.69745E+01  1.449E-01  2.000E+01  2.000E+04  5.295E-01
   1   16    5     1     5    9.5007E+04 -1.7010E+03   9.6708E+04  0.000E+00  0.000E+00  0.000E+00  4.64933E+01  1.410E-01  2.000E+01  2.000E+04 -8.505E-02
   1   16    6     1     6    9.6708E+04 -1.1065E+03   9.7815E+04  0.000E+00  0.000E+00  0.000E+00  4.60173E+01  1.423E-01  2.000E+01  2.000E+04 -5.533E-02
   1   16    7     1     7    9.7815E+04 -1.0970E+03   9.8912E+04  0.000E+00  0.000E+00  0.000E+00  4.55410E+01  1.432E-01  2.000E+01  2.000E+04 -5.485E-02
   1   16    8     1     8    9.8912E+04 -1.0963E+03   1.0001E+05  0.000E+00  0.000E+00  0.000E+00  4.50646E+01  1.442E-01  2.000E+01  2.000E+04 -5.482E-02
   1   16    9     1     9    1.0001E+05 -1.0880E+03   1.0110E+05  0.000E+00  0.000E+00  0.000E+00  4.45883E+01  1.451E-01  2.000E+01  2.000E+04 -5.440E-02
   1   16   10     1    10    1.0110E+05 -1.0733E+03   1.0217E+05  0.000E+00  0.000E+00  0.000E+00  4.41120E+01  1.461E-01  2.000E+01  2.000E+04 -5.366E-02
   1   16   11     1    11    1.0217E+05 -1.0760E+03   1.0325E+05  0.000E+00  0.000E+00  0.000E+00  4.36356E+01  1.470E-01  2.000E+01  2.000E+04 -5.380E-02
   1   16   12     1    12    1.0325E+05 -1.8399E+03   1.0509E+05  0.000E+00  0.000E+00  0.000E+00  4.31596E+01  1.482E-01  2.000E+01  2.000E+04 -9.199E-02
   1   15   13     1    13    1.0509E+05 -1.6806E+03   1.0677E+05  0.000E+00  0.000E+00  0.000E+00  4.26838E+01  1.497E-01  2.000E+01  2.000E+04 -8.403E-02
   1   14   14     1    14    1.0677E+05 -1.8590E+03   1.0863E+05  0.000E+00  0.000E+00  0.000E+00  4.22080E+01  1.512E-01  2.000E+01  2.000E+04 -9.295E-02
   1   13   15     1    15    1.0863E+05 -1.9960E+03   1.1062E+05  0.000E+00  0.000E+00  0.000E+00  4.17324E+01  1.529E-01  2.000E+01  2.000E+04 -9.980E-02
   1   12   16     1    16    1.1062E+05 -2.1856E+03   1.1281E+05  0.000E+00  0.000E+00  0.000E+00  4.12569E+01  1.546E-01  2.000E+01  2.000E+04 -1.093E-01
   1   12   17     1    17    1.1281E+05 -1.2730E+03   1.1408E+05  0.000E+00  0.000E+00  0.000E+00  4.07810E+01  1.560E-01  2.000E+01  2.000E+04 -6.365E-02
   1   12   18     1    18    1.1408E+05 -1.0247E+03   1.1510E+05  0.000E+00  0.000E+00  0.000E+00  4.03047E+01  1.570E-01  2.000E+01  2.000E+04 -5.124E-02
   1   12   19     1    19    1.1510E+05 -5.0124E+02   1.1561E+05  0.000E+00  0.000E+00  0.000E+00  3.98281E+01  1.576E-01  2.000E+01  2.000E+04 -2.506E-02
   1   13   20     1    20    1.1561E+05 -2.8639E+02   1.1589E+05  0.000E+00  0.000E+00  0.000E+00  3.93511E+01  1.579E-01  2.000E+01  2.000E+04 -1.432E-02
   1   14   21     1    21    1.1589E+05 -9.7224E+02   1.1686E+05  0.000E+00  0.000E+00  0.000E+00  3.88743E+01  1.584E-01  2.000E+01  2.000E+04 -4.861E-02
   1   14   22     1    22    1.1686E+05  5.1740E+03   1.1169E+05  0.000E+00  0.000E+00  0.000E+00  3.83953E+01  1.567E-01  2.000E+01  2.000E+04  2.587E-01
   1    9   30     2     1    5.0000E+04 -3.2133E+02   5.0321E+04  0.000E+00  0.000E+00  0.000E+00  4.02411E+01  1.161E-01  2.000E+01  2.000E+04 -1.607E-02
   1    9   29     2     2    5.0321E+04 -6.0489E+02   5.0926E+04  0.000E+00  0.000E+00  0.000E+00  3.99917E+01  1.167E-01  2.000E+01  2.000E+04 -3.024E-02
   1    9   28     2     3    5.0926E+04 -8.1035E+02   5.1737E+04  0.000E+00  0.000E+00  0.000E+00  3.97427E+01  1.177E-01  2.000E+01  2.000E+04 -4.052E-02
   1    9   27     2     4    5.1737E+04 -1.6183E+03   5.3355E+04  0.000E+00  0.000E+00  0.000E+00  3.94944E+01  1.194E-01  2.000E+01  2.000E+04 -8.091E-02
   1   10   26     2     5    5.3355E+04 -5.8068E+02   5.3936E+04  0.000E+00  0.000E+00  0.000E+00  3.92459E+01  1.209E-01  2.000E+01  2.000E+04 -2.903E-02
   1   11   25     2     6    5.3936E+04  1.9264E+02   5.3743E+04  0.000E+00  0.000E+00  0.000E+00  3.89961E+01  1.211E-01  2.000E+01  2.000E+04  9.632E-03
   1   12   24     2     7    5.3743E+04  1.0612E+03   5.2682E+04  0.000E+00  0.000E+00  0.000E+00  3.87453E+01  1.203E-01  2.000E+01  2.000E+04  5.306E-02
   1   13   23     2     8    5.2682E+04  2.4663E+02   5.2435E+04  0.000E+00  0.000E+00  0.000E+00  3.84944E+01  1.194E-01  2.000E+01  2.000E+04  1.233E-02
   1   14   22     2     9    5.2435E+04  2.1224E+03   5.0313E+04  0.000E+00  0.000E+00  0.000E+00  3.82428E+01  1.178E-01  2.000E+01  2.000E+04  1.061E-01
   1   14   22     3     1    1.6200E+05 -8.3658E+03   1.7037E+05  0.000E+00  0.000E+00  0.000E+00  3.77184E+01  1.628E-01  2.000E+01  2.000E+04 -4.183E-01
   1   15   23     3     2    1.7037E+05 -5.2073E+02   1.7089E+05  0.000E+00  0.000E+00  0.000E+00  3.68321E+01  1.654E-01  2.000E+01  2.000E+04 -2.604E-02
   1   15   24     3     3    1.7089E+05 -2.4960E+02   1.7114E+05  0.000E+00  0.000E+00  0.000E+00  3.59434E+01  1.656E-01  2.000E+01  2.000E+04 -1.248E-02
   1   15   25     3     4    1.7114E+05 -2.2971E+02   1.7137E+05  0.000E+00  0.000E+00  0.000E+00  3.50547E+01  1.658E-01  2.000E+01  2.000E+04 -1.149E-02
   1   15   26     3     5    1.7137E+05 -2.2870E+02   1.7160E+05  0.000E+00  0.000E+00  0.000E+00  3.41659E+01  1.659E-01  2.000E+01  2.000E+04 -1.143E-02
   1   16   27     3     6    1.7160E+05 -7.7206E+01   1.7167E+05  0.000E+00  0.000E+00  0.000E+00  3.32771E+01  1.660E-01  2.000E+01  2.000E+04 -3.860E-03
   1   17   28     3     7    1.7167E+05  5.2760E+03   1.6640E+05  0.000E+00  0.000E+00  0.000E+00  3.23867E+01  1.645E-01  2.000E+01  2.000E+04  2.638E-01
   1   18   29     3     8    1.6640E+05  2.3121E+04   1.4328E+05  0.000E+00  0.000E+00  0.000E+00  3.14894E+01  1.560E-01  2.000E+01  2.000E+04  1.156E+00
   1   18   30     3     9    1.4328E+05  7.5839E+03   1.3569E+05  0.000E+00  0.000E+00  0.000E+00  3.05910E+01  1.466E-01  2.000E+01  2.000E+04  3.792E-01



1
              HEAD IN LAYER   1 AT END OF TIME STEP   1 IN STRESS PERIOD    5
  ---------------------------------------------------------------------------

          1      2      3      4      5      6      7      8      9     10
         11     12     13     14     15     16     17     18     19     20
         21     22     23     24     25     26     27     28     29     30
 .........................................................................
   1  ****** ****** ****** ****** ****** ****** ****** ****** ****** ******
      ****** ****** ****** ****** ****** ****** ****** ****** ****** ******
      ****** ****** ****** ****** ****** ****** ****** ****** ****** ******
   2  ****** ****** ****** ****** ****** ****** ****** ****** ****** ******
      ****** ****** ****** ****** ****** ****** ****** ****** ****** ******
      ****** ****** ****** ****** ****** ****** ****** ****** ****** ******
   3  ****** ****** ****** ****** ****** ****** ****** ****** ****** ******
      ****** ****** ****** ****** ****** ****** ****** ****** ****** ******
      ****** ****** ****** ****** ****** ****** ****** ****** ****** ******
   4  ****** ****** ****** ****** ****** ****** ****** ****** ****** ******
      ****** ****** ****** ****** ****** ****** ****** ****** ****** ******
      ****** ****** ****** ****** ****** ****** ****** ****** ****** ******
   5  ****** ****** ****** ****** ****** ****** ****** ****** ****** ******
      ****** ****** ****** ****** ****** ****** ****** ****** ****** ******
      ****** ****** ****** ****** ****** ****** ****** ****** ****** ******
   6  ****** ****** ****** ****** ****** ****** ****** ****** ****** ******
      ****** ****** ****** ****** ****** ****** ****** ****** ****** ******
      ****** ****** ****** ****** ****** ****** ****** ****** ****** ******
   7  ****** ****** ****** ****** ****** ****** ****** ****** ****** ******
      ****** ****** ****** ****** ****** ****** ****** ****** ****** ******
      ****** ****** ****** ****** ****** ****** ****** ****** ****** ******
   8  ****** ****** ****** ****** ****** ****** ****** ****** ****** ******
      ****** ****** ****** ****** ****** ****** ****** ****** ****** ******
      ****** ****** ****** ****** ****** ****** ****** ****** ****** ******
   9  ****** ****** ****** ****** ****** ****** ****** ****** ****** ******
      ****** ****** ****** ****** ****** ****** ****** ****** ****** ******
      ****** ****** ****** ****** ****** ****** ****** ****** ****** ******
  10  ****** ****** ****** ****** ****** ****** ****** ****** ****** ******
      ****** ****** ****** ****** ****** ****** ****** ****** ****** ******
      ****** ****** ****** ****** ****** ****** ****** ****** ****** ******
  11  ****** ****** ****** ****** ****** ****** ****** ****** ****** ******
      ****** ****** ****** ****** ****** ****** ****** ****** ****** ******
      ****** ****** ****** ****** ****** ****** ****** ****** ****** ******
  12  ****** ****** ****** ****** ****** ****** ****** ****** ****** ******
      ****** ****** ****** ****** ****** ****** ****** ****** ****** ******
      ****** ****** ****** ****** ****** ****** ****** ****** ****** ******
  13  ****** ****** ****** ****** ****** ****** ****** ****** ****** ******
      ****** ****** ****** ****** ****** ****** ****** ****** ****** ******
      ****** ****** ****** ****** ****** ****** ****** ****** ****** ******
  14  ****** ****** ****** ****** ****** ****** ****** ****** ****** ******
      ****** ****** ****** ****** ****** ****** ****** ****** ****** ******
      ****** ****** ****** ****** ****** ****** ****** ****** ****** ******
  15  ****** ****** ****** ****** ****** ****** ****** ****** ****** ******
      ****** ****** ****** ****** ****** ****** ****** ****** ****** ******
      ****** ****** ****** ****** ****** ****** ****** ****** ****** ******
  16  ****** ****** ****** ****** ****** ****** ****** ****** ****** ******
      ****** ****** ****** ****** ****** ****** ****** ****** ****** ******
      ****** ****** ****** ****** ****** ****** ****** ****** ****** ******
  17  ****** ****** ****** ****** ****** ****** ****** ****** ****** ******
      ****** ****** ****** ****** ****** ****** ****** ****** ****** ******
      ****** ****** ****** ****** ****** ****** ****** ****** ****** ******
  18  ****** ****** ****** ****** ****** ****** ****** ****** ****** ******
      ****** ****** ****** ****** ****** ****** ****** ****** ****** ******
      ****** ****** ****** ****** ****** ****** ****** ****** ****** ******
  19  ****** ****** ****** ****** ****** ****** ****** ****** ****** ******
      ****** ****** ****** ****** ****** ****** ****** ****** ****** ******
      ****** ****** ****** ****** ****** ****** ****** ****** ****** ******
  20  ****** ****** ****** ****** ****** ****** ****** ****** ****** ******
      ****** ****** ****** ****** ****** ****** ****** ****** ****** ******
      ****** ****** ****** ****** ****** ****** ****** ****** ****** ******
  21  ****** ****** ****** ****** ****** ****** ****** ****** ****** ******
      ****** ****** ****** ****** ****** ****** ****** ****** ****** ******
      ****** ****** ****** ****** ****** ****** ****** ****** ****** ******
  22  ****** ****** ****** ****** ****** ****** ****** ****** ****** ******
      ****** ****** ****** ****** ****** ****** ****** ****** ****** ******
      ****** ****** ****** ****** ****** ****** ****** ****** ****** ******
  23  ****** ****** ****** ****** ****** ****** ****** ****** ****** ******
      ****** ****** ****** ****** ****** ****** ****** ****** ****** ******
      ****** ****** ****** ****** ****** ****** ****** ****** ****** ******
  24  ****** ****** ****** ****** ****** ****** ****** ****** ****** ******
      ****** ****** ****** ****** ****** ****** ****** ****** ****** ******
      ****** ****** ****** ****** ****** ****** ****** ****** ****** ******
  25  ****** ****** ****** ****** ****** ****** ****** ****** ****** ******
      ****** ****** ****** ****** ****** ****** ****** ****** ****** ******
      ****** ****** ****** ****** ****** ****** ****** ****** ****** ******

 HEAD WILL BE SAVED ON UNIT   51 AT END OF TIME STEP    1, STRESS PERIOD    5
1
  VOLUMETRIC BUDGET FOR ENTIRE MODEL AT END OF TIME STEP    1, STRESS PERIOD   5
  ------------------------------------------------------------------------------

     CUMULATIVE VOLUMES      L**3       RATES FOR THIS TIME STEP      L**3/T
     ------------------                 ------------------------

           IN:                                      IN:
           ---                                      ---
             STORAGE =    31333002.0935               STORAGE =       18910.9119
       CONSTANT HEAD =    10727224.0580         CONSTANT HEAD =       31950.8220
               WELLS =           0.0000                 WELLS =           0.0000
            RECHARGE =    10074000.0000              RECHARGE =       13800.0000
      STREAM LEAKAGE =    22467703.0350        STREAM LEAKAGE =       55367.6998

            TOTAL IN =    74601929.1866              TOTAL IN =      120029.4337

          OUT:                                     OUT:
          ----                                     ----
             STORAGE =         527.6849               STORAGE =           0.0000
       CONSTANT HEAD =           0.0000         CONSTANT HEAD =           0.0000
               WELLS =    36088250.8036                 WELLS =       78967.7260
            RECHARGE =           0.0000              RECHARGE =           0.0000
      STREAM LEAKAGE =    38513152.5883        STREAM LEAKAGE =       41061.7094

           TOTAL OUT =    74601931.0767             TOTAL OUT =      120029.4354

            IN - OUT =          -1.8902              IN - OUT =      -1.7818E-03

 PERCENT DISCREPANCY =          -0.00     PERCENT DISCREPANCY =          -0.00






         TIME SUMMARY AT END OF TIME STEP    1 IN STRESS PERIOD    5
                    SECONDS     MINUTES      HOURS       DAYS        YEARS
                    -----------------------------------------------------------
   TIME STEP LENGTH 7.94880E+06 1.32480E+05  2208.0      92.000     0.25188    
 STRESS PERIOD TIME 7.94880E+06 1.32480E+05  2208.0      92.000     0.25188    
         TOTAL TIME 3.94848E+07 6.58080E+05  10968.      457.00      1.2512    
1
1
                            STRESS PERIOD NO.    6, LENGTH =   91.00000    
                            -----------------------------------------------

                              NUMBER OF TIME STEPS =     1

                               MULTIPLIER FOR DELT =     1.500

                            INITIAL TIME STEP SIZE =   91.00000    

 WELL NO.  LAYER   ROW   COL   STRESS RATE         
 --------------------------------------------------
      1      1     15      4     -0.1117E+05
      2      1     11     22     -0.1086E+05
      3      1     18     29     -0.4636E+05
      4      1      5     18     -0.1058E+05

      4 WELLS

                 RECHARGE =  2.000000E-03

 REUSING STREAM SEGMENT DATA FROM LAST STRESS PERIOD
 
 SOLVING FOR HEAD 


     8 CALLS TO PCG ROUTINE FOR TIME STEP   1 IN STRESS PERIOD    6
    31 TOTAL ITERATIONS

 OUTPUT CONTROL FOR STRESS PERIOD    6   TIME STEP    1
    SAVE BUDGET
    SAVE HEAD FOR ALL LAYERS
    PRINT HEAD FOR ALL LAYERS
 UBDSV2 SAVING "STREAMFLOW OUT  " ON UNIT  50 AT TIME STEP  1, STRESS PERIOD   6



 STREAM LISTING     PERIOD      6   STEP        1

 LAYER ROW COL. STREAM  RCH.  FLOW INTO     FLOW TO   FLOW OUT OF   OVRLND.     DIRECT     STREAM       STREAM     STREAM     STREAM   STREAMBED  STREAMBED
                SEG.NO.  NO.  STRM. RCH.    AQUIFER    STRM. RCH.    RUNOFF     PRECIP       ET          HEAD       DEPTH      WIDTH   CONDCTNC.   GRADIENT

   1   13    1     1     1    1.0000E+05 -2.3595E+03   1.0236E+05  0.000E+00  0.000E+00  0.000E+00  4.84070E+01  1.457E-01  2.000E+01  2.000E+04 -1.180E-01
   1   13    2     1     2    1.0236E+05 -3.3982E+03   1.0576E+05  0.000E+00  0.000E+00  0.000E+00  4.79322E+01  1.481E-01  2.000E+01  2.000E+04 -1.699E-01
   1   14    3     1     3    1.0576E+05 -6.3840E+02   1.0640E+05  0.000E+00  0.000E+00  0.000E+00  4.74567E+01  1.499E-01  2.000E+01  2.000E+04 -3.192E-02
   1   15    4     1     4    1.0640E+05  1.0424E+04   9.5972E+04  0.000E+00  0.000E+00  0.000E+00  4.69752E+01  1.457E-01  2.000E+01  2.000E+04  5.212E-01
   1   16    5     1     5    9.5972E+04 -2.1993E+03   9.8171E+04  0.000E+00  0.000E+00  0.000E+00  4.64944E+01  1.421E-01  2.000E+01  2.000E+04 -1.100E-01
   1   16    6     1     6    9.8171E+04 -1.3984E+03   9.9569E+04  0.000E+00  0.000E+00  0.000E+00  4.60187E+01  1.437E-01  2.000E+01  2.000E+04 -6.992E-02
   1   16    7     1     7    9.9569E+04 -1.3734E+03   1.0094E+05  0.000E+00  0.000E+00  0.000E+00  4.55426E+01  1.449E-01  2.000E+01  2.000E+04 -6.867E-02
   1   16    8     1     8    1.0094E+05 -1.3681E+03   1.0231E+05  0.000E+00  0.000E+00  0.000E+00  4.50665E+01  1.461E-01  2.000E+01  2.000E+04 -6.840E-02
   1   16    9     1     9    1.0231E+05 -1.3593E+03   1.0367E+05  0.000E+00  0.000E+00  0.000E+00  4.45904E+01  1.472E-01  2.000E+01  2.000E+04 -6.797E-02
   1   16   10     1    10    1.0367E+05 -1.3463E+03   1.0502E+05  0.000E+00  0.000E+00  0.000E+00  4.41143E+01  1.484E-01  2.000E+01  2.000E+04 -6.732E-02
   1   16   11     1    11    1.0502E+05 -1.3525E+03   1.0637E+05  0.000E+00  0.000E+00  0.000E+00  4.36382E+01  1.495E-01  2.000E+01  2.000E+04 -6.763E-02
   1   16   12     1    12    1.0637E+05 -2.2853E+03   1.0865E+05  0.000E+00  0.000E+00  0.000E+00  4.31624E+01  1.511E-01  2.000E+01  2.000E+04 -1.143E-01
   1   15   13     1    13    1.0865E+05 -2.1318E+03   1.1079E+05  0.000E+00  0.000E+00  0.000E+00  4.26870E+01  1.529E-01  2.000E+01  2.000E+04 -1.066E-01
   1   14   14     1    14    1.1079E+05 -2.3020E+03   1.1309E+05  0.000E+00  0.000E+00  0.000E+00  4.22116E+01  1.548E-01  2.000E+01  2.000E+04 -1.151E-01
   1   13   15     1    15    1.1309E+05 -2.4162E+03   1.1550E+05  0.000E+00  0.000E+00  0.000E+00  4.17363E+01  1.567E-01  2.000E+01  2.000E+04 -1.208E-01
   1   12   16     1    16    1.1550E+05 -2.5534E+03   1.1806E+05  0.000E+00  0.000E+00  0.000E+00  4.12610E+01  1.588E-01  2.000E+01  2.000E+04 -1.277E-01
   1   12   17     1    17    1.1806E+05 -1.5770E+03   1.1963E+05  0.000E+00  0.000E+00  0.000E+00  4.07854E+01  1.604E-01  2.000E+01  2.000E+04 -7.885E-02
   1   12   18     1    18    1.1963E+05 -1.3333E+03   1.2097E+05  0.000E+00  0.000E+00  0.000E+00  4.03093E+01  1.616E-01  2.000E+01  2.000E+04 -6.666E-02
   1   12   19     1    19    1.2097E+05 -8.8361E+02   1.2185E+05  0.000E+00  0.000E+00  0.000E+00  3.98330E+01  1.625E-01  2.000E+01  2.000E+04 -4.418E-02
   1   13   20     1    20    1.2185E+05 -7.0264E+02   1.2255E+05  0.000E+00  0.000E+00  0.000E+00  3.93563E+01  1.631E-01  2.000E+01  2.000E+04 -3.513E-02
   1   14   21     1    21    1.2255E+05 -1.3808E+03   1.2394E+05  0.000E+00  0.000E+00  0.000E+00  3.88799E+01  1.640E-01  2.000E+01  2.000E+04 -6.904E-02
   1   14   22     1    22    1.2394E+05  5.0684E+03   1.1887E+05  0.000E+00  0.000E+00  0.000E+00  3.84011E+01  1.625E-01  2.000E+01  2.000E+04  2.534E-01
   1    9   30     2     1    5.0000E+04 -6.8110E+02   5.0681E+04  0.000E+00  0.000E+00  0.000E+00  4.02413E+01  1.163E-01  2.000E+01  2.000E+04 -3.405E-02
   1    9   29     2     2    5.0681E+04 -9.5992E+02   5.1641E+04  0.000E+00  0.000E+00  0.000E+00  3.99925E+01  1.175E-01  2.000E+01  2.000E+04 -4.800E-02
   1    9   28     2     3    5.1641E+04 -1.1577E+03   5.2799E+04  0.000E+00  0.000E+00  0.000E+00  3.97439E+01  1.189E-01  2.000E+01  2.000E+04 -5.788E-02
   1    9   27     2     4    5.2799E+04 -2.0530E+03   5.4852E+04  0.000E+00  0.000E+00  0.000E+00  3.94961E+01  1.211E-01  2.000E+01  2.000E+04 -1.027E-01
   1   10   26     2     5    5.4852E+04 -1.0422E+03   5.5894E+04  0.000E+00  0.000E+00  0.000E+00  3.92482E+01  1.232E-01  2.000E+01  2.000E+04 -5.211E-02
   1   11   25     2     6    5.5894E+04 -2.5503E+02   5.6149E+04  0.000E+00  0.000E+00  0.000E+00  3.89990E+01  1.240E-01  2.000E+01  2.000E+04 -1.275E-02
   1   12   24     2     7    5.6149E+04  6.5821E+02   5.5491E+04  0.000E+00  0.000E+00  0.000E+00  3.87488E+01  1.238E-01  2.000E+01  2.000E+04  3.291E-02
   1   13   23     2     8    5.5491E+04  1.0986E+02   5.5381E+04  0.000E+00  0.000E+00  0.000E+00  3.84983E+01  1.233E-01  2.000E+01  2.000E+04  5.493E-03
   1   14   22     2     9    5.5381E+04  1.9829E+03   5.3398E+04  0.000E+00  0.000E+00  0.000E+00  3.82469E+01  1.219E-01  2.000E+01  2.000E+04  9.915E-02
   1   14   22     3     1    1.7226E+05 -8.4675E+03   1.8073E+05  0.000E+00  0.000E+00  0.000E+00  3.77243E+01  1.688E-01  2.000E+01  2.000E+04 -4.234E-01
   1   15   23     3     2    1.8073E+05 -6.5730E+02   1.8139E+05  0.000E+00  0.000E+00  0.000E+00  3.68381E+01  1.714E-01  2.000E+01  2.000E+04 -3.286E-02
   1   15   24     3     3    1.8139E+05 -3.7074E+02   1.8176E+05  0.000E+00  0.000E+00  0.000E+00  3.59495E+01  1.717E-01  2.000E+01  2.000E+04 -1.854E-02
   1   15   25     3     4    1.8176E+05 -3.5519E+02   1.8212E+05  0.000E+00  0.000E+00  0.000E+00  3.50608E+01  1.719E-01  2.000E+01  2.000E+04 -1.776E-02
   1   15   26     3     5    1.8212E+05 -3.7970E+02   1.8249E+05  0.000E+00  0.000E+00  0.000E+00  3.41721E+01  1.721E-01  2.000E+01  2.000E+04 -1.898E-02
   1   16   27     3     6    1.8249E+05 -2.4790E+02   1.8274E+05  0.000E+00  0.000E+00  0.000E+00  3.32834E+01  1.723E-01  2.000E+01  2.000E+04 -1.239E-02
   1   17   28     3     7    1.8274E+05  4.6708E+03   1.7807E+05  0.000E+00  0.000E+00  0.000E+00  3.23932E+01  1.710E-01  2.000E+01  2.000E+04  2.335E-01
   1   18   29     3     8    1.7807E+05  2.3259E+04   1.5481E+05  0.000E+00  0.000E+00  0.000E+00  3.14963E+01  1.630E-01  2.000E+01  2.000E+04  1.163E+00
   1   18   30     3     9    1.5481E+05  6.9866E+03   1.4783E+05  0.000E+00  0.000E+00  0.000E+00  3.05983E+01  1.539E-01  2.000E+01  2.000E+04  3.493E-01



1
              HEAD IN LAYER   1 AT END OF TIME STEP   1 IN STRESS PERIOD    6
  ---------------------------------------------------------------------------

          1      2      3      4      5      6      7      8      9     10
         11     12     13     14     15     16     17     18     19     20
         21     22     23     24     25     26     27     28     29     30
 .........................................................................
   1  ****** ****** ****** ****** ****** ****** ****** ****** ****** ******
      ****** ****** ****** ****** ****** ****** ****** ****** ****** ******
      ****** ****** ****** ****** ****** ****** ****** ****** ****** ******
   2  ****** ****** ****** ****** ****** ****** ****** ****** ****** ******
      ****** ****** ****** ****** ****** ****** ****** ****** ****** ******
      ****** ****** ****** ****** ****** ****** ****** ****** ****** ******
   3  ****** ****** ****** ****** ****** ****** ****** ****** ****** ******
      ****** ****** ****** ****** ****** ****** ****** ****** ****** ******
      ****** ****** ****** ****** ****** ****** ****** ****** ****** ******
   4  ****** ****** ****** ****** ****** ****** ****** ****** ****** ******
      ****** ****** ****** ****** ****** ****** ****** ****** ****** ******
      ****** ****** ****** ****** ****** ****** ****** ****** ****** ******
   5  ****** ****** ****** ****** ****** ****** ****** ****** ****** ******
      ****** ****** ****** ****** ****** ****** ****** ****** ****** ******
      ****** ****** ****** ****** ****** ****** ****** ****** ****** ******
   6  ****** ****** ****** ****** ****** ****** ****** ****** ****** ******
      ****** ****** ****** ****** ****** ****** ****** ****** ****** ******
      ****** ****** ****** ****** ****** ****** ****** ****** ****** ******
   7  ****** ****** ****** ****** ****** ****** ****** ****** ****** ******
      ****** ****** ****** ****** ****** ****** ****** ****** ****** ******
      ****** ****** ****** ****** ****** ****** ****** ****** ****** ******
   8  ****** ****** ****** ****** ****** ****** ****** ****** ****** ******
      ****** ****** ****** ****** ****** ****** ****** ****** ****** ******
      ****** ****** ****** ****** ****** ****** ****** ****** ****** ******
   9  ****** ****** ****** ****** ****** ****** ****** ****** ****** ******
      ****** ****** ****** ****** ****** ****** ****** ****** ****** ******
      ****** ****** ****** ****** ****** ****** ****** ****** ****** ******
  10  ****** ****** ****** ****** ****** ****** ****** ****** ****** ******
      ****** ****** ****** ****** ****** ****** ****** ****** ****** ******
      ****** ****** ****** ****** ****** ****** ****** ****** ****** ******
  11  ****** ****** ****** ****** ****** ****** ****** ****** ****** ******
      ****** ****** ****** ****** ****** ****** ****** ****** ****** ******
      ****** ****** ****** ****** ****** ****** ****** ****** ****** ******
  12  ****** ****** ****** ****** ****** ****** ****** ****** ****** ******
      ****** ****** ****** ****** ****** ****** ****** ****** ****** ******
      ****** ****** ****** ****** ****** ****** ****** ****** ****** ******
  13  ****** ****** ****** ****** ****** ****** ****** ****** ****** ******
      ****** ****** ****** ****** ****** ****** ****** ****** ****** ******
      ****** ****** ****** ****** ****** ****** ****** ****** ****** ******
  14  ****** ****** ****** ****** ****** ****** ****** ****** ****** ******
      ****** ****** ****** ****** ****** ****** ****** ****** ****** ******
      ****** ****** ****** ****** ****** ****** ****** ****** ****** ******
  15  ****** ****** ****** ****** ****** ****** ****** ****** ****** ******
      ****** ****** ****** ****** ****** ****** ****** ****** ****** ******
      ****** ****** ****** ****** ****** ****** ****** ****** ****** ******
  16  ****** ****** ****** ****** ****** ****** ****** ****** ****** ******
      ****** ****** ****** ****** ****** ****** ****** ****** ****** ******
      ****** ****** ****** ****** ****** ****** ****** ****** ****** ******
  17  ****** ****** ****** ****** ****** ****** ****** ****** ****** ******
      ****** ****** ****** ****** ****** ****** ****** ****** ****** ******
      ****** ****** ****** ****** ****** ****** ****** ****** ****** ******
  18  ****** ****** ****** ****** ****** ****** ****** ****** ****** ******
      ****** ****** ****** ****** ****** ****** ****** ****** ****** ******
      ****** ****** ****** ****** ****** ****** ****** ****** ****** ******
  19  ****** ****** ****** ****** ****** ****** ****** ****** ****** ******
      ****** ****** ****** ****** ****** ****** ****** ****** ****** ******
      ****** ****** ****** ****** ****** ****** ****** ****** ****** ******
  20  ****** ****** ****** ****** ****** ****** ****** ****** ****** ******
      ****** ****** ****** ****** ****** ****** ****** ****** ****** ******
      ****** ****** ****** ****** ****** ****** ****** ****** ****** ******
  21  ****** ****** ****** ****** ****** ****** ****** ****** ****** ******
      ****** ****** ****** ****** ****** ****** ****** ****** ****** ******
      ****** ****** ****** ****** ****** ****** ****** ****** ****** ******
  22  ****** ****** ****** ****** ****** ****** ****** ****** ****** ******
      ****** ****** ****** ****** ****** ****** ****** ****** ****** ******
      ****** ****** ****** ****** ****** ****** ****** ****** ****** ******
  23  ****** ****** ****** ****** ****** ****** ****** ****** ****** ******
      ****** ****** ****** ****** ****** ****** ****** ****** ****** ******
      ****** ****** ****** ****** ****** ****** ****** ****** ****** ******
  24  ****** ****** ****** ****** ****** ****** ****** ****** ****** ******
      ****** ****** ****** ****** ****** ****** ****** ****** ****** ******
      ****** ****** ****** ****** ****** ****** ****** ****** ****** ******
  25  ****** ****** ****** ****** ****** ****** ****** ****** ****** ******
      ****** ****** ****** ****** ****** ****** ****** ****** ****** ******
      ****** ****** ****** ****** ****** ****** ****** ****** ****** ******

 HEAD WILL BE SAVED ON UNIT   51 AT END OF TIME STEP    1, STRESS PERIOD    6
1
  VOLUMETRIC BUDGET FOR ENTIRE MODEL AT END OF TIME STEP    1, STRESS PERIOD   6
  ------------------------------------------------------------------------------

     CUMULATIVE VOLUMES      L**3       RATES FOR THIS TIME STEP      L**3/T
     ------------------                 ------------------------

           IN:                                      IN:
           ---                                      ---
             STORAGE =    31333002.0935               STORAGE =           0.0000
       CONSTANT HEAD =    13465797.2210         CONSTANT HEAD =       30094.2106
               WELLS =           0.0000                 WELLS =           0.0000
            RECHARGE =    15097200.0000              RECHARGE =       55200.0000
      STREAM LEAKAGE =    27305274.7512        STREAM LEAKAGE =       53160.1287

            TOTAL IN =    87201274.0657              TOTAL IN =      138454.3393

          OUT:                                     OUT:
          ----                                     ----
             STORAGE =      774040.1997               STORAGE =        8500.1375
       CONSTANT HEAD =           0.0000         CONSTANT HEAD =           0.0000
               WELLS =    43274313.8739                 WELLS =       78967.7260
            RECHARGE =           0.0000              RECHARGE =           0.0000
      STREAM LEAKAGE =    43152921.7433        STREAM LEAKAGE =       50986.4742

           TOTAL OUT =    87201275.8169             TOTAL OUT =      138454.3378

            IN - OUT =          -1.7512              IN - OUT =       1.5269E-03

 PERCENT DISCREPANCY =          -0.00     PERCENT DISCREPANCY =           0.00






         TIME SUMMARY AT END OF TIME STEP    1 IN STRESS PERIOD    6
                    SECONDS     MINUTES      HOURS       DAYS        YEARS
                    -----------------------------------------------------------
   TIME STEP LENGTH 7.86240E+06 1.31040E+05  2184.0      91.000     0.24914    
 STRESS PERIOD TIME 7.86240E+06 1.31040E+05  2184.0      91.000     0.24914    
         TOTAL TIME 4.73472E+07 7.89120E+05  13152.      548.00      1.5003    
1
1
                            STRESS PERIOD NO.    7, LENGTH =   91.00000    
                            -----------------------------------------------

                              NUMBER OF TIME STEPS =     1

                               MULTIPLIER FOR DELT =     1.500

                            INITIAL TIME STEP SIZE =   91.00000    

 WELL NO.  LAYER   ROW   COL   STRESS RATE         
 --------------------------------------------------
      1      1     15      4     -0.1117E+05
      2      1     11     22     -0.1086E+05
      3      1     18     29     -0.4636E+05
      4      1      5     18     -0.1058E+05

      4 WELLS

                 RECHARGE =   0.00000    

 REUSING STREAM SEGMENT DATA FROM LAST STRESS PERIOD
 
 SOLVING FOR HEAD 


     8 CALLS TO PCG ROUTINE FOR TIME STEP   1 IN STRESS PERIOD    7
    32 TOTAL ITERATIONS

 OUTPUT CONTROL FOR STRESS PERIOD    7   TIME STEP    1
    SAVE BUDGET
    SAVE HEAD FOR ALL LAYERS
    PRINT HEAD FOR ALL LAYERS
 UBDSV2 SAVING "STREAMFLOW OUT  " ON UNIT  50 AT TIME STEP  1, STRESS PERIOD   7



 STREAM LISTING     PERIOD      7   STEP        1

 LAYER ROW COL. STREAM  RCH.  FLOW INTO     FLOW TO   FLOW OUT OF   OVRLND.     DIRECT     STREAM       STREAM     STREAM     STREAM   STREAMBED  STREAMBED
                SEG.NO.  NO.  STRM. RCH.    AQUIFER    STRM. RCH.    RUNOFF     PRECIP       ET          HEAD       DEPTH      WIDTH   CONDCTNC.   GRADIENT

   1   13    1     1     1    1.0000E+05 -1.6881E+03   1.0169E+05  0.000E+00  0.000E+00  0.000E+00  4.84067E+01  1.454E-01  2.000E+01  2.000E+04 -8.441E-02
   1   13    2     1     2    1.0169E+05 -2.6468E+03   1.0433E+05  0.000E+00  0.000E+00  0.000E+00  4.79313E+01  1.473E-01  2.000E+01  2.000E+04 -1.323E-01
   1   14    3     1     3    1.0433E+05 -3.8581E+02   1.0472E+05  0.000E+00  0.000E+00  0.000E+00  4.74554E+01  1.485E-01  2.000E+01  2.000E+04 -1.929E-02
   1   15    4     1     4    1.0472E+05  1.0687E+04   9.4033E+04  0.000E+00  0.000E+00  0.000E+00  4.69737E+01  1.441E-01  2.000E+01  2.000E+04  5.344E-01
   1   16    5     1     5    9.4033E+04 -1.4469E+03   9.5480E+04  0.000E+00  0.000E+00  0.000E+00  4.64923E+01  1.401E-01  2.000E+01  2.000E+04 -7.234E-02
   1   16    6     1     6    9.5480E+04 -9.4407E+02   9.6424E+04  0.000E+00  0.000E+00  0.000E+00  4.60161E+01  1.411E-01  2.000E+01  2.000E+04 -4.720E-02
   1   16    7     1     7    9.6424E+04 -9.3732E+02   9.7362E+04  0.000E+00  0.000E+00  0.000E+00  4.55397E+01  1.419E-01  2.000E+01  2.000E+04 -4.687E-02
   1   16    8     1     8    9.7362E+04 -9.3791E+02   9.8300E+04  0.000E+00  0.000E+00  0.000E+00  4.50632E+01  1.428E-01  2.000E+01  2.000E+04 -4.690E-02
   1   16    9     1     9    9.8300E+04 -9.3228E+02   9.9232E+04  0.000E+00  0.000E+00  0.000E+00  4.45868E+01  1.436E-01  2.000E+01  2.000E+04 -4.661E-02
   1   16   10     1    10    9.9232E+04 -9.2175E+02   1.0015E+05  0.000E+00  0.000E+00  0.000E+00  4.41103E+01  1.444E-01  2.000E+01  2.000E+04 -4.609E-02
   1   16   11     1    11    1.0015E+05 -9.2680E+02   1.0108E+05  0.000E+00  0.000E+00  0.000E+00  4.36338E+01  1.452E-01  2.000E+01  2.000E+04 -4.634E-02
   1   16   12     1    12    1.0108E+05 -1.5689E+03   1.0265E+05  0.000E+00  0.000E+00  0.000E+00  4.31576E+01  1.463E-01  2.000E+01  2.000E+04 -7.844E-02
   1   15   13     1    13    1.0265E+05 -1.3611E+03   1.0401E+05  0.000E+00  0.000E+00  0.000E+00  4.26816E+01  1.475E-01  2.000E+01  2.000E+04 -6.805E-02
   1   14   14     1    14    1.0401E+05 -1.5017E+03   1.0551E+05  0.000E+00  0.000E+00  0.000E+00  4.22056E+01  1.487E-01  2.000E+01  2.000E+04 -7.508E-02
   1   13   15     1    15    1.0551E+05 -1.6122E+03   1.0712E+05  0.000E+00  0.000E+00  0.000E+00  4.17296E+01  1.501E-01  2.000E+01  2.000E+04 -8.061E-02
   1   12   16     1    16    1.0712E+05 -1.7527E+03   1.0888E+05  0.000E+00  0.000E+00  0.000E+00  4.12538E+01  1.515E-01  2.000E+01  2.000E+04 -8.763E-02
   1   12   17     1    17    1.0888E+05 -9.9601E+02   1.0987E+05  0.000E+00  0.000E+00  0.000E+00  4.07776E+01  1.526E-01  2.000E+01  2.000E+04 -4.980E-02
   1   12   18     1    18    1.0987E+05 -7.6671E+02   1.1064E+05  0.000E+00  0.000E+00  0.000E+00  4.03011E+01  1.534E-01  2.000E+01  2.000E+04 -3.834E-02
   1   12   19     1    19    1.1064E+05 -1.9098E+02   1.1083E+05  0.000E+00  0.000E+00  0.000E+00  3.98242E+01  1.538E-01  2.000E+01  2.000E+04 -9.549E-03
   1   13   20     1    20    1.1083E+05 -3.0451E+01   1.1086E+05  0.000E+00  0.000E+00  0.000E+00  3.93471E+01  1.539E-01  2.000E+01  2.000E+04 -1.523E-03
   1   14   21     1    21    1.1086E+05 -7.1804E+02   1.1158E+05  0.000E+00  0.000E+00  0.000E+00  3.88701E+01  1.542E-01  2.000E+01  2.000E+04 -3.590E-02
   1   14   22     1    22    1.1158E+05  5.2260E+03   1.0635E+05  0.000E+00  0.000E+00  0.000E+00  3.83909E+01  1.523E-01  2.000E+01  2.000E+04  2.613E-01
   1    9   30     2     1    5.0000E+04 -1.6242E+02   5.0162E+04  0.000E+00  0.000E+00  0.000E+00  4.02410E+01  1.160E-01  2.000E+01  2.000E+04 -8.121E-03
   1    9   29     2     2    5.0162E+04 -4.4314E+02   5.0606E+04  0.000E+00  0.000E+00  0.000E+00  3.99914E+01  1.164E-01  2.000E+01  2.000E+04 -2.216E-02
   1    9   28     2     3    5.0606E+04 -6.3968E+02   5.1245E+04  0.000E+00  0.000E+00  0.000E+00  3.97421E+01  1.171E-01  2.000E+01  2.000E+04 -3.198E-02
   1    9   27     2     4    5.1245E+04 -1.3489E+03   5.2594E+04  0.000E+00  0.000E+00  0.000E+00  3.94935E+01  1.185E-01  2.000E+01  2.000E+04 -6.745E-02
   1   10   26     2     5    5.2594E+04 -3.3642E+02   5.2931E+04  0.000E+00  0.000E+00  0.000E+00  3.92447E+01  1.197E-01  2.000E+01  2.000E+04 -1.682E-02
   1   11   25     2     6    5.2931E+04  4.2114E+02   5.2509E+04  0.000E+00  0.000E+00  0.000E+00  3.89946E+01  1.196E-01  2.000E+01  2.000E+04  2.106E-02
   1   12   24     2     7    5.2509E+04  1.2739E+03   5.1236E+04  0.000E+00  0.000E+00  0.000E+00  3.87434E+01  1.184E-01  2.000E+01  2.000E+04  6.369E-02
   1   13   23     2     8    5.1236E+04  3.0228E+02   5.0933E+04  0.000E+00  0.000E+00  0.000E+00  3.84924E+01  1.174E-01  2.000E+01  2.000E+04  1.511E-02
   1   14   22     2     9    5.0933E+04  2.2197E+03   4.8714E+04  0.000E+00  0.000E+00  0.000E+00  3.82406E+01  1.156E-01  2.000E+01  2.000E+04  1.110E-01
   1   14   22     3     1    1.5507E+05 -8.3082E+03   1.6337E+05  0.000E+00  0.000E+00  0.000E+00  3.77142E+01  1.587E-01  2.000E+01  2.000E+04 -4.154E-01
   1   15   23     3     2    1.6337E+05 -4.5060E+02   1.6383E+05  0.000E+00  0.000E+00  0.000E+00  3.68279E+01  1.613E-01  2.000E+01  2.000E+04 -2.253E-02
   1   15   24     3     3    1.6383E+05 -1.9672E+02   1.6402E+05  0.000E+00  0.000E+00  0.000E+00  3.59392E+01  1.615E-01  2.000E+01  2.000E+04 -9.836E-03
   1   15   25     3     4    1.6402E+05 -1.7788E+02   1.6420E+05  0.000E+00  0.000E+00  0.000E+00  3.50505E+01  1.616E-01  2.000E+01  2.000E+04 -8.894E-03
   1   15   26     3     5    1.6420E+05 -1.7669E+02   1.6438E+05  0.000E+00  0.000E+00  0.000E+00  3.41617E+01  1.617E-01  2.000E+01  2.000E+04 -8.835E-03
   1   16   27     3     6    1.6438E+05 -7.6834E+00   1.6438E+05  0.000E+00  0.000E+00  0.000E+00  3.32728E+01  1.617E-01  2.000E+01  2.000E+04 -3.842E-04
   1   17   28     3     7    1.6438E+05  5.5722E+03   1.5881E+05  0.000E+00  0.000E+00  0.000E+00  3.23823E+01  1.601E-01  2.000E+01  2.000E+04  2.786E-01
   1   18   29     3     8    1.5881E+05  2.3029E+04   1.3578E+05  0.000E+00  0.000E+00  0.000E+00  3.14848E+01  1.514E-01  2.000E+01  2.000E+04  1.151E+00
   1   18   30     3     9    1.3578E+05  7.9429E+03   1.2784E+05  0.000E+00  0.000E+00  0.000E+00  3.05861E+01  1.417E-01  2.000E+01  2.000E+04  3.971E-01



1
              HEAD IN LAYER   1 AT END OF TIME STEP   1 IN STRESS PERIOD    7
  ---------------------------------------------------------------------------

          1      2      3      4      5      6      7      8      9     10
         11     12     13     14     15     16     17     18     19     20
         21     22     23     24     25     26     27     28     29     30
 .........................................................................
   1  ****** ****** ****** ****** ****** ****** ****** ****** ****** ******
      ****** ****** ****** ****** ****** ****** ****** ****** ****** ******
      ****** ****** ****** ****** ****** ****** ****** ****** ****** ******
   2  ****** ****** ****** ****** ****** ****** ****** ****** ****** ******
      ****** ****** ****** ****** ****** ****** ****** ****** ****** ******
      ****** ****** ****** ****** ****** ****** ****** ****** ****** ******
   3  ****** ****** ****** ****** ****** ****** ****** ****** ****** ******
      ****** ****** ****** ****** ****** ****** ****** ****** ****** ******
      ****** ****** ****** ****** ****** ****** ****** ****** ****** ******
   4  ****** ****** ****** ****** ****** ****** ****** ****** ****** ******
      ****** ****** ****** ****** ****** ****** ****** ****** ****** ******
      ****** ****** ****** ****** ****** ****** ****** ****** ****** ******
   5  ****** ****** ****** ****** ****** ****** ****** ****** ****** ******
      ****** ****** ****** ****** ****** ****** ****** ****** ****** ******
      ****** ****** ****** ****** ****** ****** ****** ****** ****** ******
   6  ****** ****** ****** ****** ****** ****** ****** ****** ****** ******
      ****** ****** ****** ****** ****** ****** ****** ****** ****** ******
      ****** ****** ****** ****** ****** ****** ****** ****** ****** ******
   7  ****** ****** ****** ****** ****** ****** ****** ****** ****** ******
      ****** ****** ****** ****** ****** ****** ****** ****** ****** ******
      ****** ****** ****** ****** ****** ****** ****** ****** ****** ******
   8  ****** ****** ****** ****** ****** ****** ****** ****** ****** ******
      ****** ****** ****** ****** ****** ****** ****** ****** ****** ******
      ****** ****** ****** ****** ****** ****** ****** ****** ****** ******
   9  ****** ****** ****** ****** ****** ****** ****** ****** ****** ******
      ****** ****** ****** ****** ****** ****** ****** ****** ****** ******
      ****** ****** ****** ****** ****** ****** ****** ****** ****** ******
  10  ****** ****** ****** ****** ****** ****** ****** ****** ****** ******
      ****** ****** ****** ****** ****** ****** ****** ****** ****** ******
      ****** ****** ****** ****** ****** ****** ****** ****** ****** ******
  11  ****** ****** ****** ****** ****** ****** ****** ****** ****** ******
      ****** ****** ****** ****** ****** ****** ****** ****** ****** ******
      ****** ****** ****** ****** ****** ****** ****** ****** ****** ******
  12  ****** ****** ****** ****** ****** ****** ****** ****** ****** ******
      ****** ****** ****** ****** ****** ****** ****** ****** ****** ******
      ****** ****** ****** ****** ****** ****** ****** ****** ****** ******
  13  ****** ****** ****** ****** ****** ****** ****** ****** ****** ******
      ****** ****** ****** ****** ****** ****** ****** ****** ****** ******
      ****** ****** ****** ****** ****** ****** ****** ****** ****** ******
  14  ****** ****** ****** ****** ****** ****** ****** ****** ****** ******
      ****** ****** ****** ****** ****** ****** ****** ****** ****** ******
      ****** ****** ****** ****** ****** ****** ****** ****** ****** ******
  15  ****** ****** ****** ****** ****** ****** ****** ****** ****** ******
      ****** ****** ****** ****** ****** ****** ****** ****** ****** ******
      ****** ****** ****** ****** ****** ****** ****** ****** ****** ******
  16  ****** ****** ****** ****** ****** ****** ****** ****** ****** ******
      ****** ****** ****** ****** ****** ****** ****** ****** ****** ******
      ****** ****** ****** ****** ****** ****** ****** ****** ****** ******
  17  ****** ****** ****** ****** ****** ****** ****** ****** ****** ******
      ****** ****** ****** ****** ****** ****** ****** ****** ****** ******
      ****** ****** ****** ****** ****** ****** ****** ****** ****** ******
  18  ****** ****** ****** ****** ****** ****** ****** ****** ****** ******
      ****** ****** ****** ****** ****** ****** ****** ****** ****** ******
      ****** ****** ****** ****** ****** ****** ****** ****** ****** ******
  19  ****** ****** ****** ****** ****** ****** ****** ****** ****** ******
      ****** ****** ****** ****** ****** ****** ****** ****** ****** ******
      ****** ****** ****** ****** ****** ****** ****** ****** ****** ******
  20  ****** ****** ****** ****** ****** ****** ****** ****** ****** ******
      ****** ****** ****** ****** ****** ****** ****** ****** ****** ******
      ****** ****** ****** ****** ****** ****** ****** ****** ****** ******
  21  ****** ****** ****** ****** ****** ****** ****** ****** ****** ******
      ****** ****** ****** ****** ****** ****** ****** ****** ****** ******
      ****** ****** ****** ****** ****** ****** ****** ****** ****** ******
  22  ****** ****** ****** ****** ****** ****** ****** ****** ****** ******
      ****** ****** ****** ****** ****** ****** ****** ****** ****** ******
      ****** ****** ****** ****** ****** ****** ****** ****** ****** ******
  23  ****** ****** ****** ****** ****** ****** ****** ****** ****** ******
      ****** ****** ****** ****** ****** ****** ****** ****** ****** ******
      ****** ****** ****** ****** ****** ****** ****** ****** ****** ******
  24  ****** ****** ****** ****** ****** ****** ****** ****** ****** ******
      ****** ****** ****** ****** ****** ****** ****** ****** ****** ******
      ****** ****** ****** ****** ****** ****** ****** ****** ****** ******
  25  ****** ****** ****** ****** ****** ****** ****** ****** ****** ******
      ****** ****** ****** ****** ****** ****** ****** ****** ****** ******
      ****** ****** ****** ****** ****** ****** ****** ****** ****** ******

 HEAD WILL BE SAVED ON UNIT   51 AT END OF TIME STEP    1, STRESS PERIOD    7
1
  VOLUMETRIC BUDGET FOR ENTIRE MODEL AT END OF TIME STEP    1, STRESS PERIOD   7
  ------------------------------------------------------------------------------

     CUMULATIVE VOLUMES      L**3       RATES FOR THIS TIME STEP      L**3/T
     ------------------                 ------------------------

           IN:                                      IN:
           ---                                      ---
             STORAGE =    33402988.2386               STORAGE =       22747.1005
       CONSTANT HEAD =    16565379.5773         CONSTANT HEAD =       34061.3446
               WELLS =           0.0000                 WELLS =           0.0000
            RECHARGE =    15097200.0000              RECHARGE =           0.0000
      STREAM LEAKAGE =    32462618.9706        STREAM LEAKAGE =       56674.1123

            TOTAL IN =    97528186.7865              TOTAL IN =      113482.5574

          OUT:                                     OUT:
          ----                                     ----
             STORAGE =      774040.1997               STORAGE =           0.0000
       CONSTANT HEAD =           0.0000         CONSTANT HEAD =           0.0000
               WELLS =    50460376.9442                 WELLS =       78967.7260
            RECHARGE =           0.0000              RECHARGE =           0.0000
      STREAM LEAKAGE =    46293771.6570        STREAM LEAKAGE =       34514.8342

           TOTAL OUT =    97528188.8009             TOTAL OUT =      113482.5603

            IN - OUT =          -2.0144              IN - OUT =      -2.8918E-03

 PERCENT DISCREPANCY =          -0.00     PERCENT DISCREPANCY =          -0.00






         TIME SUMMARY AT END OF TIME STEP    1 IN STRESS PERIOD    7
                    SECONDS     MINUTES      HOURS       DAYS        YEARS
                    -----------------------------------------------------------
   TIME STEP LENGTH 7.86240E+06 1.31040E+05  2184.0      91.000     0.24914    
 STRESS PERIOD TIME 7.86240E+06 1.31040E+05  2184.0      91.000     0.24914    
         TOTAL TIME 5.52096E+07 9.20160E+05  15336.      639.00      1.7495    
1
1
                            STRESS PERIOD NO.    8, LENGTH =   91.00000    
                            -----------------------------------------------

                              NUMBER OF TIME STEPS =     1

                               MULTIPLIER FOR DELT =     1.500

                            INITIAL TIME STEP SIZE =   91.00000    

 WELL NO.  LAYER   ROW   COL   STRESS RATE         
 --------------------------------------------------
      1      1     15      4     -0.1117E+05
      2      1     11     22     -0.1086E+05
      3      1     18     29     -0.4636E+05
      4      1      5     18     -0.1058E+05

      4 WELLS

                 RECHARGE =  1.000000E-03

 REUSING STREAM SEGMENT DATA FROM LAST STRESS PERIOD
 
 SOLVING FOR HEAD 


     7 CALLS TO PCG ROUTINE FOR TIME STEP   1 IN STRESS PERIOD    8
    28 TOTAL ITERATIONS

 OUTPUT CONTROL FOR STRESS PERIOD    8   TIME STEP    1
    SAVE BUDGET
    SAVE HEAD FOR ALL LAYERS
    PRINT HEAD FOR ALL LAYERS
 UBDSV2 SAVING "STREAMFLOW OUT  " ON UNIT  50 AT TIME STEP  1, STRESS PERIOD   8



 STREAM LISTING     PERIOD      8   STEP        1

 LAYER ROW COL. STREAM  RCH.  FLOW INTO     FLOW TO   FLOW OUT OF   OVRLND.     DIRECT     STREAM       STREAM     STREAM     STREAM   STREAMBED  STREAMBED
                SEG.NO.  NO.  STRM. RCH.    AQUIFER    STRM. RCH.    RUNOFF     PRECIP       ET          HEAD       DEPTH      WIDTH   CONDCTNC.   GRADIENT

   1   13    1     1     1    1.0000E+05 -1.7575E+03   1.0176E+05  0.000E+00  0.000E+00  0.000E+00  4.84068E+01  1.454E-01  2.000E+01  2.000E+04 -8.788E-02
   1   13    2     1     2    1.0176E+05 -2.7151E+03   1.0447E+05  0.000E+00  0.000E+00  0.000E+00  4.79314E+01  1.473E-01  2.000E+01  2.000E+04 -1.358E-01
   1   14    3     1     3    1.0447E+05 -4.4928E+02   1.0492E+05  0.000E+00  0.000E+00  0.000E+00  4.74555E+01  1.487E-01  2.000E+01  2.000E+04 -2.246E-02
   1   15    4     1     4    1.0492E+05  1.0619E+04   9.4303E+04  0.000E+00  0.000E+00  0.000E+00  4.69739E+01  1.443E-01  2.000E+01  2.000E+04  5.310E-01
   1   16    5     1     5    9.4303E+04 -1.6210E+03   9.5924E+04  0.000E+00  0.000E+00  0.000E+00  4.64926E+01  1.404E-01  2.000E+01  2.000E+04 -8.105E-02
   1   16    6     1     6    9.5924E+04 -1.0509E+03   9.6975E+04  0.000E+00  0.000E+00  0.000E+00  4.60165E+01  1.415E-01  2.000E+01  2.000E+04 -5.254E-02
   1   16    7     1     7    9.6975E+04 -1.0390E+03   9.8014E+04  0.000E+00  0.000E+00  0.000E+00  4.55402E+01  1.425E-01  2.000E+01  2.000E+04 -5.195E-02
   1   16    8     1     8    9.8014E+04 -1.0387E+03   9.9052E+04  0.000E+00  0.000E+00  0.000E+00  4.50638E+01  1.434E-01  2.000E+01  2.000E+04 -5.194E-02
   1   16    9     1     9    9.9052E+04 -1.0342E+03   1.0009E+05  0.000E+00  0.000E+00  0.000E+00  4.45875E+01  1.443E-01  2.000E+01  2.000E+04 -5.171E-02
   1   16   10     1    10    1.0009E+05 -1.0263E+03   1.0111E+05  0.000E+00  0.000E+00  0.000E+00  4.41111E+01  1.452E-01  2.000E+01  2.000E+04 -5.131E-02
   1   16   11     1    11    1.0111E+05 -1.0345E+03   1.0215E+05  0.000E+00  0.000E+00  0.000E+00  4.36347E+01  1.461E-01  2.000E+01  2.000E+04 -5.172E-02
   1   16   12     1    12    1.0215E+05 -1.7293E+03   1.0388E+05  0.000E+00  0.000E+00  0.000E+00  4.31586E+01  1.473E-01  2.000E+01  2.000E+04 -8.647E-02
   1   15   13     1    13    1.0388E+05 -1.5266E+03   1.0540E+05  0.000E+00  0.000E+00  0.000E+00  4.26827E+01  1.486E-01  2.000E+01  2.000E+04 -7.633E-02
   1   14   14     1    14    1.0540E+05 -1.6589E+03   1.0706E+05  0.000E+00  0.000E+00  0.000E+00  4.22068E+01  1.500E-01  2.000E+01  2.000E+04 -8.295E-02
   1   13   15     1    15    1.0706E+05 -1.7554E+03   1.0882E+05  0.000E+00  0.000E+00  0.000E+00  4.17310E+01  1.514E-01  2.000E+01  2.000E+04 -8.777E-02
   1   12   16     1    16    1.0882E+05 -1.8556E+03   1.1067E+05  0.000E+00  0.000E+00  0.000E+00  4.12552E+01  1.530E-01  2.000E+01  2.000E+04 -9.278E-02
   1   12   17     1    17    1.1067E+05 -1.1027E+03   1.1178E+05  0.000E+00  0.000E+00  0.000E+00  4.07792E+01  1.542E-01  2.000E+01  2.000E+04 -5.514E-02
   1   12   18     1    18    1.1178E+05 -8.8064E+02   1.1266E+05  0.000E+00  0.000E+00  0.000E+00  4.03027E+01  1.550E-01  2.000E+01  2.000E+04 -4.403E-02
   1   12   19     1    19    1.1266E+05 -3.3472E+02   1.1299E+05  0.000E+00  0.000E+00  0.000E+00  3.98260E+01  1.555E-01  2.000E+01  2.000E+04 -1.674E-02
   1   13   20     1    20    1.1299E+05 -2.0579E+02   1.1320E+05  0.000E+00  0.000E+00  0.000E+00  3.93489E+01  1.557E-01  2.000E+01  2.000E+04 -1.029E-02
   1   14   21     1    21    1.1320E+05 -8.7449E+02   1.1407E+05  0.000E+00  0.000E+00  0.000E+00  3.88721E+01  1.562E-01  2.000E+01  2.000E+04 -4.372E-02
   1   14   22     1    22    1.1407E+05  5.1788E+03   1.0889E+05  0.000E+00  0.000E+00  0.000E+00  3.83930E+01  1.544E-01  2.000E+01  2.000E+04  2.589E-01
   1    9   30     2     1    5.0000E+04 -3.2345E+02   5.0323E+04  0.000E+00  0.000E+00  0.000E+00  4.02411E+01  1.161E-01  2.000E+01  2.000E+04 -1.617E-02
   1    9   29     2     2    5.0323E+04 -6.0130E+02   5.0925E+04  0.000E+00  0.000E+00  0.000E+00  3.99917E+01  1.167E-01  2.000E+01  2.000E+04 -3.007E-02
   1    9   28     2     3    5.0925E+04 -7.9207E+02   5.1717E+04  0.000E+00  0.000E+00  0.000E+00  3.97427E+01  1.177E-01  2.000E+01  2.000E+04 -3.960E-02
   1    9   27     2     4    5.1717E+04 -1.5226E+03   5.3239E+04  0.000E+00  0.000E+00  0.000E+00  3.94943E+01  1.193E-01  2.000E+01  2.000E+04 -7.613E-02
   1   10   26     2     5    5.3239E+04 -5.3776E+02   5.3777E+04  0.000E+00  0.000E+00  0.000E+00  3.92457E+01  1.207E-01  2.000E+01  2.000E+04 -2.689E-02
   1   11   25     2     6    5.3777E+04  2.2095E+02   5.3556E+04  0.000E+00  0.000E+00  0.000E+00  3.89959E+01  1.209E-01  2.000E+01  2.000E+04  1.105E-02
   1   12   24     2     7    5.3556E+04  1.0922E+03   5.2464E+04  0.000E+00  0.000E+00  0.000E+00  3.87450E+01  1.200E-01  2.000E+01  2.000E+04  5.461E-02
   1   13   23     2     8    5.2464E+04  2.2850E+02   5.2236E+04  0.000E+00  0.000E+00  0.000E+00  3.84941E+01  1.191E-01  2.000E+01  2.000E+04  1.143E-02
   1   14   22     2     9    5.2236E+04  2.1673E+03   5.0068E+04  0.000E+00  0.000E+00  0.000E+00  3.82425E+01  1.175E-01  2.000E+01  2.000E+04  1.084E-01
   1   14   22     3     1    1.5896E+05 -8.3508E+03   1.6731E+05  0.000E+00  0.000E+00  0.000E+00  3.77166E+01  1.610E-01  2.000E+01  2.000E+04 -4.175E-01
   1   15   23     3     2    1.6731E+05 -5.1433E+02   1.6783E+05  0.000E+00  0.000E+00  0.000E+00  3.68303E+01  1.636E-01  2.000E+01  2.000E+04 -2.572E-02
   1   15   24     3     3    1.6783E+05 -2.5682E+02   1.6808E+05  0.000E+00  0.000E+00  0.000E+00  3.59416E+01  1.638E-01  2.000E+01  2.000E+04 -1.284E-02
   1   15   25     3     4    1.6808E+05 -2.3962E+02   1.6832E+05  0.000E+00  0.000E+00  0.000E+00  3.50529E+01  1.640E-01  2.000E+01  2.000E+04 -1.198E-02
   1   15   26     3     5    1.6832E+05 -2.5077E+02   1.6857E+05  0.000E+00  0.000E+00  0.000E+00  3.41641E+01  1.641E-01  2.000E+01  2.000E+04 -1.254E-02
   1   16   27     3     6    1.6857E+05 -8.9006E+01   1.6866E+05  0.000E+00  0.000E+00  0.000E+00  3.32753E+01  1.642E-01  2.000E+01  2.000E+04 -4.450E-03
   1   17   28     3     7    1.6866E+05  5.3312E+03   1.6333E+05  0.000E+00  0.000E+00  0.000E+00  3.23849E+01  1.627E-01  2.000E+01  2.000E+04  2.666E-01
   1   18   29     3     8    1.6333E+05  2.3084E+04   1.4025E+05  0.000E+00  0.000E+00  0.000E+00  3.14875E+01  1.542E-01  2.000E+01  2.000E+04  1.154E+00
   1   18   30     3     9    1.4025E+05  7.7255E+03   1.3252E+05  0.000E+00  0.000E+00  0.000E+00  3.05890E+01  1.446E-01  2.000E+01  2.000E+04  3.863E-01



1
              HEAD IN LAYER   1 AT END OF TIME STEP   1 IN STRESS PERIOD    8
  ---------------------------------------------------------------------------

          1      2      3      4      5      6      7      8      9     10
         11     12     13     14     15     16     17     18     19     20
         21     22     23     24     25     26     27     28     29     30
 .........................................................................
   1  ****** ****** ****** ****** ****** ****** ****** ****** ****** ******
      ****** ****** ****** ****** ****** ****** ****** ****** ****** ******
      ****** ****** ****** ****** ****** ****** ****** ****** ****** ******
   2  ****** ****** ****** ****** ****** ****** ****** ****** ****** ******
      ****** ****** ****** ****** ****** ****** ****** ****** ****** ******
      ****** ****** ****** ****** ****** ****** ****** ****** ****** ******
   3  ****** ****** ****** ****** ****** ****** ****** ****** ****** ******
      ****** ****** ****** ****** ****** ****** ****** ****** ****** ******
      ****** ****** ****** ****** ****** ****** ****** ****** ****** ******
   4  ****** ****** ****** ****** ****** ****** ****** ****** ****** ******
      ****** ****** ****** ****** ****** ****** ****** ****** ****** ******
      ****** ****** ****** ****** ****** ****** ****** ****** ****** ******
   5  ****** ****** ****** ****** ****** ****** ****** ****** ****** ******
      ****** ****** ****** ****** ****** ****** ****** ****** ****** ******
      ****** ****** ****** ****** ****** ****** ****** ****** ****** ******
   6  ****** ****** ****** ****** ****** ****** ****** ****** ****** ******
      ****** ****** ****** ****** ****** ****** ****** ****** ****** ******
      ****** ****** ****** ****** ****** ****** ****** ****** ****** ******
   7  ****** ****** ****** ****** ****** ****** ****** ****** ****** ******
      ****** ****** ****** ****** ****** ****** ****** ****** ****** ******
      ****** ****** ****** ****** ****** ****** ****** ****** ****** ******
   8  ****** ****** ****** ****** ****** ****** ****** ****** ****** ******
      ****** ****** ****** ****** ****** ****** ****** ****** ****** ******
      ****** ****** ****** ****** ****** ****** ****** ****** ****** ******
   9  ****** ****** ****** ****** ****** ****** ****** ****** ****** ******
      ****** ****** ****** ****** ****** ****** ****** ****** ****** ******
      ****** ****** ****** ****** ****** ****** ****** ****** ****** ******
  10  ****** ****** ****** ****** ****** ****** ****** ****** ****** ******
      ****** ****** ****** ****** ****** ****** ****** ****** ****** ******
      ****** ****** ****** ****** ****** ****** ****** ****** ****** ******
  11  ****** ****** ****** ****** ****** ****** ****** ****** ****** ******
      ****** ****** ****** ****** ****** ****** ****** ****** ****** ******
      ****** ****** ****** ****** ****** ****** ****** ****** ****** ******
  12  ****** ****** ****** ****** ****** ****** ****** ****** ****** ******
      ****** ****** ****** ****** ****** ****** ****** ****** ****** ******
      ****** ****** ****** ****** ****** ****** ****** ****** ****** ******
  13  ****** ****** ****** ****** ****** ****** ****** ****** ****** ******
      ****** ****** ****** ****** ****** ****** ****** ****** ****** ******
      ****** ****** ****** ****** ****** ****** ****** ****** ****** ******
  14  ****** ****** ****** ****** ****** ****** ****** ****** ****** ******
      ****** ****** ****** ****** ****** ****** ****** ****** ****** ******
      ****** ****** ****** ****** ****** ****** ****** ****** ****** ******
  15  ****** ****** ****** ****** ****** ****** ****** ****** ****** ******
      ****** ****** ****** ****** ****** ****** ****** ****** ****** ******
      ****** ****** ****** ****** ****** ****** ****** ****** ****** ******
  16  ****** ****** ****** ****** ****** ****** ****** ****** ****** ******
      ****** ****** ****** ****** ****** ****** ****** ****** ****** ******
      ****** ****** ****** ****** ****** ****** ****** ****** ****** ******
  17  ****** ****** ****** ****** ****** ****** ****** ****** ****** ******
      ****** ****** ****** ****** ****** ****** ****** ****** ****** ******
      ****** ****** ****** ****** ****** ****** ****** ****** ****** ******
  18  ****** ****** ****** ****** ****** ****** ****** ****** ****** ******
      ****** ****** ****** ****** ****** ****** ****** ****** ****** ******
      ****** ****** ****** ****** ****** ****** ****** ****** ****** ******
  19  ****** ****** ****** ****** ****** ****** ****** ****** ****** ******
      ****** ****** ****** ****** ****** ****** ****** ****** ****** ******
      ****** ****** ****** ****** ****** ****** ****** ****** ****** ******
  20  ****** ****** ****** ****** ****** ****** ****** ****** ****** ******
      ****** ****** ****** ****** ****** ****** ****** ****** ****** ******
      ****** ****** ****** ****** ****** ****** ****** ****** ****** ******
  21  ****** ****** ****** ****** ****** ****** ****** ****** ****** ******
      ****** ****** ****** ****** ****** ****** ****** ****** ****** ******
      ****** ****** ****** ****** ****** ****** ****** ****** ****** ******
  22  ****** ****** ****** ****** ****** ****** ****** ****** ****** ******
      ****** ****** ****** ****** ****** ****** ****** ****** ****** ******
      ****** ****** ****** ****** ****** ****** ****** ****** ****** ******
  23  ****** ****** ****** ****** ****** ****** ****** ****** ****** ******
      ****** ****** ****** ****** ****** ****** ****** ****** ****** ******
      ****** ****** ****** ****** ****** ****** ****** ****** ****** ******
  24  ****** ****** ****** ****** ****** ****** ****** ****** ****** ******
      ****** ****** ****** ****** ****** ****** ****** ****** ****** ******
      ****** ****** ****** ****** ****** ****** ****** ****** ****** ******
  25  ****** ****** ****** ****** ****** ****** ****** ****** ****** ******
      ****** ****** ****** ****** ****** ****** ****** ****** ****** ******
      ****** ****** ****** ****** ****** ****** ****** ****** ****** ******

 HEAD WILL BE SAVED ON UNIT   51 AT END OF TIME STEP    1, STRESS PERIOD    8
1
  VOLUMETRIC BUDGET FOR ENTIRE MODEL AT END OF TIME STEP    1, STRESS PERIOD   8
  ------------------------------------------------------------------------------

     CUMULATIVE VOLUMES      L**3       RATES FOR THIS TIME STEP      L**3/T
     ------------------                 ------------------------

           IN:                                      IN:
           ---                                      ---
             STORAGE =    33549478.1538               STORAGE =        1609.7793
       CONSTANT HEAD =    19640571.6994         CONSTANT HEAD =       33793.3200
               WELLS =           0.0000                 WELLS =           0.0000
            RECHARGE =    17608800.0000              RECHARGE =       27600.0000
      STREAM LEAKAGE =    37526514.0708        STREAM LEAKAGE =       55647.1989

            TOTAL IN =   108325363.9240              TOTAL IN =      118650.2982

          OUT:                                     OUT:
          ----                                     ----
             STORAGE =      911765.5420               STORAGE =        1513.4653
       CONSTANT HEAD =           0.0000         CONSTANT HEAD =           0.0000
               WELLS =    57646440.0145                 WELLS =       78967.7260
            RECHARGE =           0.0000              RECHARGE =           0.0000
      STREAM LEAKAGE =    49767160.2071        STREAM LEAKAGE =       38169.1049

           TOTAL OUT =   108325365.7635             TOTAL OUT =      118650.2963

            IN - OUT =          -1.8396              IN - OUT =       1.9209E-03

 PERCENT DISCREPANCY =          -0.00     PERCENT DISCREPANCY =           0.00






         TIME SUMMARY AT END OF TIME STEP    1 IN STRESS PERIOD    8
                    SECONDS     MINUTES      HOURS       DAYS        YEARS
                    -----------------------------------------------------------
   TIME STEP LENGTH 7.86240E+06 1.31040E+05  2184.0      91.000     0.24914    
 STRESS PERIOD TIME 7.86240E+06 1.31040E+05  2184.0      91.000     0.24914    
         TOTAL TIME 6.30720E+07 1.05120E+06  17520.      730.00      1.9986    
1
1
                            STRESS PERIOD NO.    9, LENGTH =   92.00000    
                            -----------------------------------------------

                              NUMBER OF TIME STEPS =     1

                               MULTIPLIER FOR DELT =     1.500

                            INITIAL TIME STEP SIZE =   92.00000    

 WELL NO.  LAYER   ROW   COL   STRESS RATE         
 --------------------------------------------------
      1      1     15      4     -0.1117E+05
      2      1     11     22     -0.1086E+05
      3      1     18     29     -0.4636E+05
      4      1      5     18     -0.1058E+05

      4 WELLS

                 RECHARGE =  5.000000E-04

 REUSING STREAM SEGMENT DATA FROM LAST STRESS PERIOD
 
 SOLVING FOR HEAD 


     7 CALLS TO PCG ROUTINE FOR TIME STEP   1 IN STRESS PERIOD    9
    29 TOTAL ITERATIONS

 OUTPUT CONTROL FOR STRESS PERIOD    9   TIME STEP    1
    SAVE BUDGET
    SAVE HEAD FOR ALL LAYERS
    PRINT HEAD FOR ALL LAYERS
 UBDSV2 SAVING "STREAMFLOW OUT  " ON UNIT  50 AT TIME STEP  1, STRESS PERIOD   9



 STREAM LISTING     PERIOD      9   STEP        1

 LAYER ROW COL. STREAM  RCH.  FLOW INTO     FLOW TO   FLOW OUT OF   OVRLND.     DIRECT     STREAM       STREAM     STREAM     STREAM   STREAMBED  STREAMBED
                SEG.NO.  NO.  STRM. RCH.    AQUIFER    STRM. RCH.    RUNOFF     PRECIP       ET          HEAD       DEPTH      WIDTH   CONDCTNC.   GRADIENT

   1   13    1     1     1    1.0000E+05 -1.5399E+03   1.0154E+05  0.000E+00  0.000E+00  0.000E+00  4.84067E+01  1.453E-01  2.000E+01  2.000E+04 -7.700E-02
   1   13    2     1     2    1.0154E+05 -2.4686E+03   1.0401E+05  0.000E+00  0.000E+00  0.000E+00  4.79311E+01  1.470E-01  2.000E+01  2.000E+04 -1.234E-01
   1   14    3     1     3    1.0401E+05 -3.7798E+02   1.0439E+05  0.000E+00  0.000E+00  0.000E+00  4.74551E+01  1.483E-01  2.000E+01  2.000E+04 -1.890E-02
   1   15    4     1     4    1.0439E+05  1.0691E+04   9.3695E+04  0.000E+00  0.000E+00  0.000E+00  4.69734E+01  1.438E-01  2.000E+01  2.000E+04  5.346E-01
   1   16    5     1     5    9.3695E+04 -1.4287E+03   9.5124E+04  0.000E+00  0.000E+00  0.000E+00  4.64920E+01  1.397E-01  2.000E+01  2.000E+04 -7.144E-02
   1   16    6     1     6    9.5124E+04 -9.3070E+02   9.6055E+04  0.000E+00  0.000E+00  0.000E+00  4.60158E+01  1.408E-01  2.000E+01  2.000E+04 -4.653E-02
   1   16    7     1     7    9.6055E+04 -9.2248E+02   9.6977E+04  0.000E+00  0.000E+00  0.000E+00  4.55393E+01  1.416E-01  2.000E+01  2.000E+04 -4.612E-02
   1   16    8     1     8    9.6977E+04 -9.2369E+02   9.7901E+04  0.000E+00  0.000E+00  0.000E+00  4.50629E+01  1.424E-01  2.000E+01  2.000E+04 -4.618E-02
   1   16    9     1     9    9.7901E+04 -9.2084E+02   9.8822E+04  0.000E+00  0.000E+00  0.000E+00  4.45864E+01  1.432E-01  2.000E+01  2.000E+04 -4.604E-02
   1   16   10     1    10    9.8822E+04 -9.1494E+02   9.9737E+04  0.000E+00  0.000E+00  0.000E+00  4.41099E+01  1.440E-01  2.000E+01  2.000E+04 -4.575E-02
   1   16   11     1    11    9.9737E+04 -9.2420E+02   1.0066E+05  0.000E+00  0.000E+00  0.000E+00  4.36335E+01  1.448E-01  2.000E+01  2.000E+04 -4.621E-02
   1   16   12     1    12    1.0066E+05 -1.5402E+03   1.0220E+05  0.000E+00  0.000E+00  0.000E+00  4.31573E+01  1.459E-01  2.000E+01  2.000E+04 -7.701E-02
   1   15   13     1    13    1.0220E+05 -1.3153E+03   1.0352E+05  0.000E+00  0.000E+00  0.000E+00  4.26812E+01  1.471E-01  2.000E+01  2.000E+04 -6.576E-02
   1   14   14     1    14    1.0352E+05 -1.4334E+03   1.0495E+05  0.000E+00  0.000E+00  0.000E+00  4.22051E+01  1.483E-01  2.000E+01  2.000E+04 -7.167E-02
   1   13   15     1    15    1.0495E+05 -1.5234E+03   1.0647E+05  0.000E+00  0.000E+00  0.000E+00  4.17291E+01  1.496E-01  2.000E+01  2.000E+04 -7.617E-02
   1   12   16     1    16    1.0647E+05 -1.6144E+03   1.0809E+05  0.000E+00  0.000E+00  0.000E+00  4.12532E+01  1.509E-01  2.000E+01  2.000E+04 -8.072E-02
   1   12   17     1    17    1.0809E+05 -9.3766E+02   1.0903E+05  0.000E+00  0.000E+00  0.000E+00  4.07770E+01  1.520E-01  2.000E+01  2.000E+04 -4.688E-02
   1   12   18     1    18    1.0903E+05 -7.2334E+02   1.0975E+05  0.000E+00  0.000E+00  0.000E+00  4.03004E+01  1.527E-01  2.000E+01  2.000E+04 -3.617E-02
   1   12   19     1    19    1.0975E+05 -1.4533E+02   1.0989E+05  0.000E+00  0.000E+00  0.000E+00  3.98235E+01  1.530E-01  2.000E+01  2.000E+04 -7.266E-03
   1   13   20     1    20    1.0989E+05 -3.0825E+01   1.0992E+05  0.000E+00  0.000E+00  0.000E+00  3.93463E+01  1.531E-01  2.000E+01  2.000E+04 -1.541E-03
   1   14   21     1    21    1.0992E+05 -7.0158E+02   1.1063E+05  0.000E+00  0.000E+00  0.000E+00  3.88693E+01  1.534E-01  2.000E+01  2.000E+04 -3.508E-02
   1   14   22     1    22    1.1063E+05  5.2171E+03   1.0541E+05  0.000E+00  0.000E+00  0.000E+00  3.83901E+01  1.515E-01  2.000E+01  2.000E+04  2.609E-01
   1    9   30     2     1    5.0000E+04 -1.9844E+02   5.0198E+04  0.000E+00  0.000E+00  0.000E+00  4.02410E+01  1.160E-01  2.000E+01  2.000E+04 -9.922E-03
   1    9   29     2     2    5.0198E+04 -4.7611E+02   5.0675E+04  0.000E+00  0.000E+00  0.000E+00  3.99915E+01  1.165E-01  2.000E+01  2.000E+04 -2.381E-02
   1    9   28     2     3    5.0675E+04 -6.6500E+02   5.1340E+04  0.000E+00  0.000E+00  0.000E+00  3.97423E+01  1.173E-01  2.000E+01  2.000E+04 -3.325E-02
   1    9   27     2     4    5.1340E+04 -1.3437E+03   5.2683E+04  0.000E+00  0.000E+00  0.000E+00  3.94936E+01  1.186E-01  2.000E+01  2.000E+04 -6.719E-02
   1   10   26     2     5    5.2683E+04 -3.6179E+02   5.3045E+04  0.000E+00  0.000E+00  0.000E+00  3.92448E+01  1.198E-01  2.000E+01  2.000E+04 -1.809E-02
   1   11   25     2     6    5.3045E+04  3.8916E+02   5.2656E+04  0.000E+00  0.000E+00  0.000E+00  3.89948E+01  1.198E-01  2.000E+01  2.000E+04  1.946E-02
   1   12   24     2     7    5.2656E+04  1.2466E+03   5.1409E+04  0.000E+00  0.000E+00  0.000E+00  3.87437E+01  1.187E-01  2.000E+01  2.000E+04  6.233E-02
   1   13   23     2     8    5.1409E+04  2.7584E+02   5.1133E+04  0.000E+00  0.000E+00  0.000E+00  3.84926E+01  1.176E-01  2.000E+01  2.000E+04  1.379E-02
   1   14   22     2     9    5.1133E+04  2.2321E+03   4.8901E+04  0.000E+00  0.000E+00  0.000E+00  3.82409E+01  1.159E-01  2.000E+01  2.000E+04  1.116E-01
   1   14   22     3     1    1.5431E+05 -8.3102E+03   1.6262E+05  0.000E+00  0.000E+00  0.000E+00  3.77138E+01  1.582E-01  2.000E+01  2.000E+04 -4.155E-01
   1   15   23     3     2    1.6262E+05 -4.6144E+02   1.6308E+05  0.000E+00  0.000E+00  0.000E+00  3.68275E+01  1.608E-01  2.000E+01  2.000E+04 -2.307E-02
   1   15   24     3     3    1.6308E+05 -2.1354E+02   1.6330E+05  0.000E+00  0.000E+00  0.000E+00  3.59388E+01  1.610E-01  2.000E+01  2.000E+04 -1.068E-02
   1   15   25     3     4    1.6330E+05 -1.9601E+02   1.6349E+05  0.000E+00  0.000E+00  0.000E+00  3.50500E+01  1.612E-01  2.000E+01  2.000E+04 -9.800E-03
   1   15   26     3     5    1.6349E+05 -2.0249E+02   1.6369E+05  0.000E+00  0.000E+00  0.000E+00  3.41613E+01  1.613E-01  2.000E+01  2.000E+04 -1.012E-02
   1   16   27     3     6    1.6369E+05 -3.0553E+01   1.6373E+05  0.000E+00  0.000E+00  0.000E+00  3.32725E+01  1.613E-01  2.000E+01  2.000E+04 -1.528E-03
   1   17   28     3     7    1.6373E+05  5.5547E+03   1.5817E+05  0.000E+00  0.000E+00  0.000E+00  3.23819E+01  1.597E-01  2.000E+01  2.000E+04  2.777E-01
   1   18   29     3     8    1.5817E+05  2.3021E+04   1.3515E+05  0.000E+00  0.000E+00  0.000E+00  3.14844E+01  1.510E-01  2.000E+01  2.000E+04  1.151E+00
   1   18   30     3     9    1.3515E+05  7.9723E+03   1.2718E+05  0.000E+00  0.000E+00  0.000E+00  3.05857E+01  1.412E-01  2.000E+01  2.000E+04  3.986E-01



1
              HEAD IN LAYER   1 AT END OF TIME STEP   1 IN STRESS PERIOD    9
  ---------------------------------------------------------------------------

          1      2      3      4      5      6      7      8      9     10
         11     12     13     14     15     16     17     18     19     20
         21     22     23     24     25     26     27     28     29     30
 .........................................................................
   1  ****** ****** ****** ****** ****** ****** ****** ****** ****** ******
      ****** ****** ****** ****** ****** ****** ****** ****** ****** ******
      ****** ****** ****** ****** ****** ****** ****** ****** ****** ******
   2  ****** ****** ****** ****** ****** ****** ****** ****** ****** ******
      ****** ****** ****** ****** ****** ****** ****** ****** ****** ******
      ****** ****** ****** ****** ****** ****** ****** ****** ****** ******
   3  ****** ****** ****** ****** ****** ****** ****** ****** ****** ******
      ****** ****** ****** ****** ****** ****** ****** ****** ****** ******
      ****** ****** ****** ****** ****** ****** ****** ****** ****** ******
   4  ****** ****** ****** ****** ****** ****** ****** ****** ****** ******
      ****** ****** ****** ****** ****** ****** ****** ****** ****** ******
      ****** ****** ****** ****** ****** ****** ****** ****** ****** ******
   5  ****** ****** ****** ****** ****** ****** ****** ****** ****** ******
      ****** ****** ****** ****** ****** ****** ****** ****** ****** ******
      ****** ****** ****** ****** ****** ****** ****** ****** ****** ******
   6  ****** ****** ****** ****** ****** ****** ****** ****** ****** ******
      ****** ****** ****** ****** ****** ****** ****** ****** ****** ******
      ****** ****** ****** ****** ****** ****** ****** ****** ****** ******
   7  ****** ****** ****** ****** ****** ****** ****** ****** ****** ******
      ****** ****** ****** ****** ****** ****** ****** ****** ****** ******
      ****** ****** ****** ****** ****** ****** ****** ****** ****** ******
   8  ****** ****** ****** ****** ****** ****** ****** ****** ****** ******
      ****** ****** ****** ****** ****** ****** ****** ****** ****** ******
      ****** ****** ****** ****** ****** ****** ****** ****** ****** ******
   9  ****** ****** ****** ****** ****** ****** ****** ****** ****** ******
      ****** ****** ****** ****** ****** ****** ****** ****** ****** ******
      ****** ****** ****** ****** ****** ****** ****** ****** ****** ******
  10  ****** ****** ****** ****** ****** ****** ****** ****** ****** ******
      ****** ****** ****** ****** ****** ****** ****** ****** ****** ******
      ****** ****** ****** ****** ****** ****** ****** ****** ****** ******
  11  ****** ****** ****** ****** ****** ****** ****** ****** ****** ******
      ****** ****** ****** ****** ****** ****** ****** ****** ****** ******
      ****** ****** ****** ****** ****** ****** ****** ****** ****** ******
  12  ****** ****** ****** ****** ****** ****** ****** ****** ****** ******
      ****** ****** ****** ****** ****** ****** ****** ****** ****** ******
      ****** ****** ****** ****** ****** ****** ****** ****** ****** ******
  13  ****** ****** ****** ****** ****** ****** ****** ****** ****** ******
      ****** ****** ****** ****** ****** ****** ****** ****** ****** ******
      ****** ****** ****** ****** ****** ****** ****** ****** ****** ******
  14  ****** ****** ****** ****** ****** ****** ****** ****** ****** ******
      ****** ****** ****** ****** ****** ****** ****** ****** ****** ******
      ****** ****** ****** ****** ****** ****** ****** ****** ****** ******
  15  ****** ****** ****** ****** ****** ****** ****** ****** ****** ******
      ****** ****** ****** ****** ****** ****** ****** ****** ****** ******
      ****** ****** ****** ****** ****** ****** ****** ****** ****** ******
  16  ****** ****** ****** ****** ****** ****** ****** ****** ****** ******
      ****** ****** ****** ****** ****** ****** ****** ****** ****** ******
      ****** ****** ****** ****** ****** ****** ****** ****** ****** ******
  17  ****** ****** ****** ****** ****** ****** ****** ****** ****** ******
      ****** ****** ****** ****** ****** ****** ****** ****** ****** ******
      ****** ****** ****** ****** ****** ****** ****** ****** ****** ******
  18  ****** ****** ****** ****** ****** ****** ****** ****** ****** ******
      ****** ****** ****** ****** ****** ****** ****** ****** ****** ******
      ****** ****** ****** ****** ****** ****** ****** ****** ****** ******
  19  ****** ****** ****** ****** ****** ****** ****** ****** ****** ******
      ****** ****** ****** ****** ****** ****** ****** ****** ****** ******
      ****** ****** ****** ****** ****** ****** ****** ****** ****** ******
  20  ****** ****** ****** ****** ****** ****** ****** ****** ****** ******
      ****** ****** ****** ****** ****** ****** ****** ****** ****** ******
      ****** ****** ****** ****** ****** ****** ****** ****** ****** ******
  21  ****** ****** ****** ****** ****** ****** ****** ****** ****** ******
      ****** ****** ****** ****** ****** ****** ****** ****** ****** ******
      ****** ****** ****** ****** ****** ****** ****** ****** ****** ******
  22  ****** ****** ****** ****** ****** ****** ****** ****** ****** ******
      ****** ****** ****** ****** ****** ****** ****** ****** ****** ******
      ****** ****** ****** ****** ****** ****** ****** ****** ****** ******
  23  ****** ****** ****** ****** ****** ****** ****** ****** ****** ******
      ****** ****** ****** ****** ****** ****** ****** ****** ****** ******
      ****** ****** ****** ****** ****** ****** ****** ****** ****** ******
  24  ****** ****** ****** ****** ****** ****** ****** ****** ****** ******
      ****** ****** ****** ****** ****** ****** ****** ****** ****** ******
      ****** ****** ****** ****** ****** ****** ****** ****** ****** ******
  25  ****** ****** ****** ****** ****** ****** ****** ****** ****** ******
      ****** ****** ****** ****** ****** ****** ****** ****** ****** ******
      ****** ****** ****** ****** ****** ****** ****** ****** ****** ******

 HEAD WILL BE SAVED ON UNIT   51 AT END OF TIME STEP    1, STRESS PERIOD    9
1
  VOLUMETRIC BUDGET FOR ENTIRE MODEL AT END OF TIME STEP    1, STRESS PERIOD   9
  ------------------------------------------------------------------------------

     CUMULATIVE VOLUMES      L**3       RATES FOR THIS TIME STEP      L**3/T
     ------------------                 ------------------------

           IN:                                      IN:
           ---                                      ---
             STORAGE =    34227130.3836               STORAGE =        7365.7851
       CONSTANT HEAD =    22858649.7811         CONSTANT HEAD =       34979.1096
               WELLS =           0.0000                 WELLS =           0.0000
            RECHARGE =    18878400.0000              RECHARGE =       13800.0000
      STREAM LEAKAGE =    42733694.4960        STREAM LEAKAGE =       56599.7872

            TOTAL IN =   118697874.6608              TOTAL IN =      112744.6819

          OUT:                                     OUT:
          ----                                     ----
             STORAGE =      911765.5420               STORAGE =           0.0000
       CONSTANT HEAD =           0.0000         CONSTANT HEAD =           0.0000
               WELLS =    64911470.8108                 WELLS =       78967.7260
            RECHARGE =           0.0000              RECHARGE =           0.0000
      STREAM LEAKAGE =    52874640.3951        STREAM LEAKAGE =       33776.9586

           TOTAL OUT =   118697876.7479             TOTAL OUT =      112744.6846

            IN - OUT =          -2.0872              IN - OUT =      -2.6914E-03

 PERCENT DISCREPANCY =          -0.00     PERCENT DISCREPANCY =          -0.00






         TIME SUMMARY AT END OF TIME STEP    1 IN STRESS PERIOD    9
                    SECONDS     MINUTES      HOURS       DAYS        YEARS
                    -----------------------------------------------------------
   TIME STEP LENGTH 7.94880E+06 1.32480E+05  2208.0      92.000     0.25188    
 STRESS PERIOD TIME 7.94880E+06 1.32480E+05  2208.0      92.000     0.25188    
         TOTAL TIME 7.10208E+07 1.18368E+06  19728.      822.00      2.2505    
1
1
                            STRESS PERIOD NO.   10, LENGTH =   91.00000    
                            -----------------------------------------------

                              NUMBER OF TIME STEPS =     1

                               MULTIPLIER FOR DELT =     1.500

                            INITIAL TIME STEP SIZE =   91.00000    

 WELL NO.  LAYER   ROW   COL   STRESS RATE         
 --------------------------------------------------
      1      1     15      4     -0.1117E+05
      2      1     11     22     -0.1086E+05
      3      1     18     29     -0.4636E+05
      4      1      5     18     -0.1058E+05

      4 WELLS

                 RECHARGE =  2.000000E-03

 REUSING STREAM SEGMENT DATA FROM LAST STRESS PERIOD
 
 SOLVING FOR HEAD 


     8 CALLS TO PCG ROUTINE FOR TIME STEP   1 IN STRESS PERIOD   10
    31 TOTAL ITERATIONS

 OUTPUT CONTROL FOR STRESS PERIOD   10   TIME STEP    1
    SAVE BUDGET
    SAVE HEAD FOR ALL LAYERS
    PRINT HEAD FOR ALL LAYERS
 UBDSV2 SAVING "STREAMFLOW OUT  " ON UNIT  50 AT TIME STEP  1, STRESS PERIOD  10



 STREAM LISTING     PERIOD     10   STEP        1

 LAYER ROW COL. STREAM  RCH.  FLOW INTO     FLOW TO   FLOW OUT OF   OVRLND.     DIRECT     STREAM       STREAM     STREAM     STREAM   STREAMBED  STREAMBED
                SEG.NO.  NO.  STRM. RCH.    AQUIFER    STRM. RCH.    RUNOFF     PRECIP       ET          HEAD       DEPTH      WIDTH   CONDCTNC.   GRADIENT

   1   13    1     1     1    1.0000E+05 -1.9901E+03   1.0199E+05  0.000E+00  0.000E+00  0.000E+00  4.84069E+01  1.455E-01  2.000E+01  2.000E+04 -9.950E-02
   1   13    2     1     2    1.0199E+05 -2.9674E+03   1.0496E+05  0.000E+00  0.000E+00  0.000E+00  4.79317E+01  1.476E-01  2.000E+01  2.000E+04 -1.484E-01
   1   14    3     1     3    1.0496E+05 -5.6412E+02   1.0552E+05  0.000E+00  0.000E+00  0.000E+00  4.74560E+01  1.492E-01  2.000E+01  2.000E+04 -2.821E-02
   1   15    4     1     4    1.0552E+05  1.0492E+04   9.5029E+04  0.000E+00  0.000E+00  0.000E+00  4.69744E+01  1.449E-01  2.000E+01  2.000E+04  5.246E-01
   1   16    5     1     5    9.5029E+04 -2.0477E+03   9.7077E+04  0.000E+00  0.000E+00  0.000E+00  4.64935E+01  1.412E-01  2.000E+01  2.000E+04 -1.024E-01
   1   16    6     1     6    9.7077E+04 -1.2927E+03   9.8370E+04  0.000E+00  0.000E+00  0.000E+00  4.60177E+01  1.427E-01  2.000E+01  2.000E+04 -6.464E-02
   1   16    7     1     7    9.8370E+04 -1.2667E+03   9.9637E+04  0.000E+00  0.000E+00  0.000E+00  4.55415E+01  1.438E-01  2.000E+01  2.000E+04 -6.333E-02
   1   16    8     1     8    9.9637E+04 -1.2624E+03   1.0090E+05  0.000E+00  0.000E+00  0.000E+00  4.50653E+01  1.449E-01  2.000E+01  2.000E+04 -6.312E-02
   1   16    9     1     9    1.0090E+05 -1.2580E+03   1.0216E+05  0.000E+00  0.000E+00  0.000E+00  4.45892E+01  1.460E-01  2.000E+01  2.000E+04 -6.290E-02
   1   16   10     1    10    1.0216E+05 -1.2524E+03   1.0341E+05  0.000E+00  0.000E+00  0.000E+00  4.41130E+01  1.471E-01  2.000E+01  2.000E+04 -6.262E-02
   1   16   11     1    11    1.0341E+05 -1.2652E+03   1.0467E+05  0.000E+00  0.000E+00  0.000E+00  4.36368E+01  1.481E-01  2.000E+01  2.000E+04 -6.326E-02
   1   16   12     1    12    1.0467E+05 -2.1092E+03   1.0678E+05  0.000E+00  0.000E+00  0.000E+00  4.31609E+01  1.496E-01  2.000E+01  2.000E+04 -1.055E-01
   1   15   13     1    13    1.0678E+05 -1.9007E+03   1.0868E+05  0.000E+00  0.000E+00  0.000E+00  4.26854E+01  1.513E-01  2.000E+01  2.000E+04 -9.503E-02
   1   14   14     1    14    1.0868E+05 -2.0256E+03   1.1071E+05  0.000E+00  0.000E+00  0.000E+00  4.22097E+01  1.529E-01  2.000E+01  2.000E+04 -1.013E-01
   1   13   15     1    15    1.1071E+05 -2.1052E+03   1.1282E+05  0.000E+00  0.000E+00  0.000E+00  4.17342E+01  1.546E-01  2.000E+01  2.000E+04 -1.053E-01
   1   12   16     1    16    1.1282E+05 -2.1741E+03   1.1499E+05  0.000E+00  0.000E+00  0.000E+00  4.12587E+01  1.564E-01  2.000E+01  2.000E+04 -1.087E-01
   1   12   17     1    17    1.1499E+05 -1.3620E+03   1.1635E+05  0.000E+00  0.000E+00  0.000E+00  4.07829E+01  1.579E-01  2.000E+01  2.000E+04 -6.810E-02
   1   12   18     1    18    1.1635E+05 -1.1437E+03   1.1749E+05  0.000E+00  0.000E+00  0.000E+00  4.03066E+01  1.589E-01  2.000E+01  2.000E+04 -5.719E-02
   1   12   19     1    19    1.1749E+05 -6.6263E+02   1.1816E+05  0.000E+00  0.000E+00  0.000E+00  3.98301E+01  1.596E-01  2.000E+01  2.000E+04 -3.313E-02
   1   13   20     1    20    1.1816E+05 -5.5154E+02   1.1871E+05  0.000E+00  0.000E+00  0.000E+00  3.93533E+01  1.601E-01  2.000E+01  2.000E+04 -2.758E-02
   1   14   21     1    21    1.1871E+05 -1.2265E+03   1.1994E+05  0.000E+00  0.000E+00  0.000E+00  3.88767E+01  1.608E-01  2.000E+01  2.000E+04 -6.132E-02
   1   14   22     1    22    1.1994E+05  5.0907E+03   1.1484E+05  0.000E+00  0.000E+00  0.000E+00  3.83979E+01  1.593E-01  2.000E+01  2.000E+04  2.545E-01
   1    9   30     2     1    5.0000E+04 -6.1449E+02   5.0614E+04  0.000E+00  0.000E+00  0.000E+00  4.02413E+01  1.163E-01  2.000E+01  2.000E+04 -3.072E-02
   1    9   29     2     2    5.0614E+04 -8.8963E+02   5.1504E+04  0.000E+00  0.000E+00  0.000E+00  3.99923E+01  1.173E-01  2.000E+01  2.000E+04 -4.448E-02
   1    9   28     2     3    5.1504E+04 -1.0772E+03   5.2581E+04  0.000E+00  0.000E+00  0.000E+00  3.97437E+01  1.187E-01  2.000E+01  2.000E+04 -5.386E-02
   1    9   27     2     4    5.2581E+04 -1.8966E+03   5.4478E+04  0.000E+00  0.000E+00  0.000E+00  3.94957E+01  1.207E-01  2.000E+01  2.000E+04 -9.483E-02
   1   10   26     2     5    5.4478E+04 -9.1574E+02   5.5394E+04  0.000E+00  0.000E+00  0.000E+00  3.92476E+01  1.226E-01  2.000E+01  2.000E+04 -4.579E-02
   1   11   25     2     6    5.5394E+04 -1.3997E+02   5.5534E+04  0.000E+00  0.000E+00  0.000E+00  3.89983E+01  1.233E-01  2.000E+01  2.000E+04 -6.999E-03
   1   12   24     2     7    5.5534E+04  7.6848E+02   5.4765E+04  0.000E+00  0.000E+00  0.000E+00  3.87479E+01  1.229E-01  2.000E+01  2.000E+04  3.842E-02
   1   13   23     2     8    5.4765E+04  1.2723E+02   5.4638E+04  0.000E+00  0.000E+00  0.000E+00  3.84973E+01  1.223E-01  2.000E+01  2.000E+04  6.361E-03
   1   14   22     2     9    5.4638E+04  2.0492E+03   5.2589E+04  0.000E+00  0.000E+00  0.000E+00  3.82458E+01  1.208E-01  2.000E+01  2.000E+04  1.025E-01
   1   14   22     3     1    1.6743E+05 -8.4362E+03   1.7587E+05  0.000E+00  0.000E+00  0.000E+00  3.77215E+01  1.660E-01  2.000E+01  2.000E+04 -4.218E-01
   1   15   23     3     2    1.7587E+05 -6.2399E+02   1.7649E+05  0.000E+00  0.000E+00  0.000E+00  3.68353E+01  1.686E-01  2.000E+01  2.000E+04 -3.120E-02
   1   15   24     3     3    1.7649E+05 -3.5074E+02   1.7684E+05  0.000E+00  0.000E+00  0.000E+00  3.59467E+01  1.689E-01  2.000E+01  2.000E+04 -1.754E-02
   1   15   25     3     4    1.7684E+05 -3.3674E+02   1.7718E+05  0.000E+00  0.000E+00  0.000E+00  3.50580E+01  1.691E-01  2.000E+01  2.000E+04 -1.684E-02
   1   15   26     3     5    1.7718E+05 -3.6592E+02   1.7755E+05  0.000E+00  0.000E+00  0.000E+00  3.41693E+01  1.693E-01  2.000E+01  2.000E+04 -1.830E-02
   1   16   27     3     6    1.7755E+05 -2.2233E+02   1.7777E+05  0.000E+00  0.000E+00  0.000E+00  3.32806E+01  1.695E-01  2.000E+01  2.000E+04 -1.112E-02
   1   17   28     3     7    1.7777E+05  4.8267E+03   1.7294E+05  0.000E+00  0.000E+00  0.000E+00  3.23904E+01  1.681E-01  2.000E+01  2.000E+04  2.413E-01
   1   18   29     3     8    1.7294E+05  2.3199E+04   1.4974E+05  0.000E+00  0.000E+00  0.000E+00  3.14933E+01  1.599E-01  2.000E+01  2.000E+04  1.160E+00
   1   18   30     3     9    1.4974E+05  7.2066E+03   1.4254E+05  0.000E+00  0.000E+00  0.000E+00  3.05952E+01  1.507E-01  2.000E+01  2.000E+04  3.603E-01



1
              HEAD IN LAYER   1 AT END OF TIME STEP   1 IN STRESS PERIOD   10
  ---------------------------------------------------------------------------

          1      2      3      4      5      6      7      8      9     10
         11     12     13     14     15     16     17     18     19     20
         21     22     23     24     25     26     27     28     29     30
 .........................................................................
   1  ****** ****** ****** ****** ****** ****** ****** ****** ****** ******
      ****** ****** ****** ****** ****** ****** ****** ****** ****** ******
      ****** ****** ****** ****** ****** ****** ****** ****** ****** ******
   2  ****** ****** ****** ****** ****** ****** ****** ****** ****** ******
      ****** ****** ****** ****** ****** ****** ****** ****** ****** ******
      ****** ****** ****** ****** ****** ****** ****** ****** ****** ******
   3  ****** ****** ****** ****** ****** ****** ****** ****** ****** ******
      ****** ****** ****** ****** ****** ****** ****** ****** ****** ******
      ****** ****** ****** ****** ****** ****** ****** ****** ****** ******
   4  ****** ****** ****** ****** ****** ****** ****** ****** ****** ******
      ****** ****** ****** ****** ****** ****** ****** ****** ****** ******
      ****** ****** ****** ****** ****** ****** ****** ****** ****** ******
   5  ****** ****** ****** ****** ****** ****** ****** ****** ****** ******
      ****** ****** ****** ****** ****** ****** ****** ****** ****** ******
      ****** ****** ****** ****** ****** ****** ****** ****** ****** ******
   6  ****** ****** ****** ****** ****** ****** ****** ****** ****** ******
      ****** ****** ****** ****** ****** ****** ****** ****** ****** ******
      ****** ****** ****** ****** ****** ****** ****** ****** ****** ******
   7  ****** ****** ****** ****** ****** ****** ****** ****** ****** ******
      ****** ****** ****** ****** ****** ****** ****** ****** ****** ******
      ****** ****** ****** ****** ****** ****** ****** ****** ****** ******
   8  ****** ****** ****** ****** ****** ****** ****** ****** ****** ******
      ****** ****** ****** ****** ****** ****** ****** ****** ****** ******
      ****** ****** ****** ****** ****** ****** ****** ****** ****** ******
   9  ****** ****** ****** ****** ****** ****** ****** ****** ****** ******
      ****** ****** ****** ****** ****** ****** ****** ****** ****** ******
      ****** ****** ****** ****** ****** ****** ****** ****** ****** ******
  10  ****** ****** ****** ****** ****** ****** ****** ****** ****** ******
      ****** ****** ****** ****** ****** ****** ****** ****** ****** ******
      ****** ****** ****** ****** ****** ****** ****** ****** ****** ******
  11  ****** ****** ****** ****** ****** ****** ****** ****** ****** ******
      ****** ****** ****** ****** ****** ****** ****** ****** ****** ******
      ****** ****** ****** ****** ****** ****** ****** ****** ****** ******
  12  ****** ****** ****** ****** ****** ****** ****** ****** ****** ******
      ****** ****** ****** ****** ****** ****** ****** ****** ****** ******
      ****** ****** ****** ****** ****** ****** ****** ****** ****** ******
  13  ****** ****** ****** ****** ****** ****** ****** ****** ****** ******
      ****** ****** ****** ****** ****** ****** ****** ****** ****** ******
      ****** ****** ****** ****** ****** ****** ****** ****** ****** ******
  14  ****** ****** ****** ****** ****** ****** ****** ****** ****** ******
      ****** ****** ****** ****** ****** ****** ****** ****** ****** ******
      ****** ****** ****** ****** ****** ****** ****** ****** ****** ******
  15  ****** ****** ****** ****** ****** ****** ****** ****** ****** ******
      ****** ****** ****** ****** ****** ****** ****** ****** ****** ******
      ****** ****** ****** ****** ****** ****** ****** ****** ****** ******
  16  ****** ****** ****** ****** ****** ****** ****** ****** ****** ******
      ****** ****** ****** ****** ****** ****** ****** ****** ****** ******
      ****** ****** ****** ****** ****** ****** ****** ****** ****** ******
  17  ****** ****** ****** ****** ****** ****** ****** ****** ****** ******
      ****** ****** ****** ****** ****** ****** ****** ****** ****** ******
      ****** ****** ****** ****** ****** ****** ****** ****** ****** ******
  18  ****** ****** ****** ****** ****** ****** ****** ****** ****** ******
      ****** ****** ****** ****** ****** ****** ****** ****** ****** ******
      ****** ****** ****** ****** ****** ****** ****** ****** ****** ******
  19  ****** ****** ****** ****** ****** ****** ****** ****** ****** ******
      ****** ****** ****** ****** ****** ****** ****** ****** ****** ******
      ****** ****** ****** ****** ****** ****** ****** ****** ****** ******
  20  ****** ****** ****** ****** ****** ****** ****** ****** ****** ******
      ****** ****** ****** ****** ****** ****** ****** ****** ****** ******
      ****** ****** ****** ****** ****** ****** ****** ****** ****** ******
  21  ****** ****** ****** ****** ****** ****** ****** ****** ****** ******
      ****** ****** ****** ****** ****** ****** ****** ****** ****** ******
      ****** ****** ****** ****** ****** ****** ****** ****** ****** ******
  22  ****** ****** ****** ****** ****** ****** ****** ****** ****** ******
      ****** ****** ****** ****** ****** ****** ****** ****** ****** ******
      ****** ****** ****** ****** ****** ****** ****** ****** ****** ******
  23  ****** ****** ****** ****** ****** ****** ****** ****** ****** ******
      ****** ****** ****** ****** ****** ****** ****** ****** ****** ******
      ****** ****** ****** ****** ****** ****** ****** ****** ****** ******
  24  ****** ****** ****** ****** ****** ****** ****** ****** ****** ******
      ****** ****** ****** ****** ****** ****** ****** ****** ****** ******
      ****** ****** ****** ****** ****** ****** ****** ****** ****** ******
  25  ****** ****** ****** ****** ****** ****** ****** ****** ****** ******
      ****** ****** ****** ****** ****** ****** ****** ****** ****** ******
      ****** ****** ****** ****** ****** ****** ****** ****** ****** ******

 HEAD WILL BE SAVED ON UNIT   51 AT END OF TIME STEP    1, STRESS PERIOD   10
1
  VOLUMETRIC BUDGET FOR ENTIRE MODEL AT END OF TIME STEP    1, STRESS PERIOD  10
  ------------------------------------------------------------------------------

     CUMULATIVE VOLUMES      L**3       RATES FOR THIS TIME STEP      L**3/T
     ------------------                 ------------------------

           IN:                                      IN:
           ---                                      ---
             STORAGE =    34227130.3836               STORAGE =           0.0000
       CONSTANT HEAD =    25773413.7815         CONSTANT HEAD =       32030.3736
               WELLS =           0.0000                 WELLS =           0.0000
            RECHARGE =    23901600.0000              RECHARGE =       55200.0000
      STREAM LEAKAGE =    47625832.0583        STREAM LEAKAGE =       53759.7534

            TOTAL IN =   131527976.2234              TOTAL IN =      140990.1271

          OUT:                                     OUT:
          ----                                     ----
             STORAGE =     2342744.6600               STORAGE =       15725.0453
       CONSTANT HEAD =           0.0000         CONSTANT HEAD =           0.0000
               WELLS =    72097533.8811                 WELLS =       78967.7260
            RECHARGE =           0.0000              RECHARGE =           0.0000
      STREAM LEAKAGE =    57087699.5916        STREAM LEAKAGE =       46297.3538

           TOTAL OUT =   131527978.1326             TOTAL OUT =      140990.1251

            IN - OUT =          -1.9092              IN - OUT =       1.9557E-03

 PERCENT DISCREPANCY =          -0.00     PERCENT DISCREPANCY =           0.00






         TIME SUMMARY AT END OF TIME STEP    1 IN STRESS PERIOD   10
                    SECONDS     MINUTES      HOURS       DAYS        YEARS
                    -----------------------------------------------------------
   TIME STEP LENGTH 7.86240E+06 1.31040E+05  2184.0      91.000     0.24914    
 STRESS PERIOD TIME 7.86240E+06 1.31040E+05  2184.0      91.000     0.24914    
         TOTAL TIME 7.88832E+07 1.31472E+06  21912.      913.00      2.4997    
1
1
                            STRESS PERIOD NO.   11, LENGTH =   91.00000    
                            -----------------------------------------------

                              NUMBER OF TIME STEPS =     1

                               MULTIPLIER FOR DELT =     1.500

                            INITIAL TIME STEP SIZE =   91.00000    

 WELL NO.  LAYER   ROW   COL   STRESS RATE         
 --------------------------------------------------
      1      1     15      4     -0.1117E+05
      2      1     11     22     -0.1086E+05
      3      1     18     29     -0.4636E+05
      4      1      5     18     -0.1058E+05

      4 WELLS

                 RECHARGE =   0.00000    

 REUSING STREAM SEGMENT DATA FROM LAST STRESS PERIOD
 
 SOLVING FOR HEAD 


     8 CALLS TO PCG ROUTINE FOR TIME STEP   1 IN STRESS PERIOD   11
    31 TOTAL ITERATIONS

 OUTPUT CONTROL FOR STRESS PERIOD   11   TIME STEP    1
    SAVE BUDGET
    SAVE HEAD FOR ALL LAYERS
    PRINT HEAD FOR ALL LAYERS
 UBDSV2 SAVING "STREAMFLOW OUT  " ON UNIT  50 AT TIME STEP  1, STRESS PERIOD  11



 STREAM LISTING     PERIOD     11   STEP        1

 LAYER ROW COL. STREAM  RCH.  FLOW INTO     FLOW TO   FLOW OUT OF   OVRLND.     DIRECT     STREAM       STREAM     STREAM     STREAM   STREAMBED  STREAMBED
                SEG.NO.  NO.  STRM. RCH.    AQUIFER    STRM. RCH.    RUNOFF     PRECIP       ET          HEAD       DEPTH      WIDTH   CONDCTNC.   GRADIENT

   1   13    1     1     1    1.0000E+05 -1.4206E+03   1.0142E+05  0.000E+00  0.000E+00  0.000E+00  4.84066E+01  1.453E-01  2.000E+01  2.000E+04 -7.103E-02
   1   13    2     1     2    1.0142E+05 -2.3331E+03   1.0375E+05  0.000E+00  0.000E+00  0.000E+00  4.79310E+01  1.469E-01  2.000E+01  2.000E+04 -1.167E-01
   1   14    3     1     3    1.0375E+05 -3.3293E+02   1.0409E+05  0.000E+00  0.000E+00  0.000E+00  4.74548E+01  1.480E-01  2.000E+01  2.000E+04 -1.665E-02
   1   15    4     1     4    1.0409E+05  1.0734E+04   9.3352E+04  0.000E+00  0.000E+00  0.000E+00  4.69731E+01  1.435E-01  2.000E+01  2.000E+04  5.367E-01
   1   16    5     1     5    9.3352E+04 -1.3599E+03   9.4712E+04  0.000E+00  0.000E+00  0.000E+00  4.64917E+01  1.394E-01  2.000E+01  2.000E+04 -6.799E-02
   1   16    6     1     6    9.4712E+04 -8.7829E+02   9.5591E+04  0.000E+00  0.000E+00  0.000E+00  4.60154E+01  1.404E-01  2.000E+01  2.000E+04 -4.391E-02
   1   16    7     1     7    9.5591E+04 -8.6979E+02   9.6460E+04  0.000E+00  0.000E+00  0.000E+00  4.55389E+01  1.412E-01  2.000E+01  2.000E+04 -4.349E-02
   1   16    8     1     8    9.6460E+04 -8.7105E+02   9.7331E+04  0.000E+00  0.000E+00  0.000E+00  4.50624E+01  1.419E-01  2.000E+01  2.000E+04 -4.355E-02
   1   16    9     1     9    9.7331E+04 -8.6894E+02   9.8200E+04  0.000E+00  0.000E+00  0.000E+00  4.45859E+01  1.427E-01  2.000E+01  2.000E+04 -4.345E-02
   1   16   10     1    10    9.8200E+04 -8.6437E+02   9.9065E+04  0.000E+00  0.000E+00  0.000E+00  4.41094E+01  1.435E-01  2.000E+01  2.000E+04 -4.322E-02
   1   16   11     1    11    9.9065E+04 -8.7540E+02   9.9940E+04  0.000E+00  0.000E+00  0.000E+00  4.36329E+01  1.442E-01  2.000E+01  2.000E+04 -4.377E-02
   1   16   12     1    12    9.9940E+04 -1.4632E+03   1.0140E+05  0.000E+00  0.000E+00  0.000E+00  4.31566E+01  1.452E-01  2.000E+01  2.000E+04 -7.316E-02
   1   15   13     1    13    1.0140E+05 -1.2114E+03   1.0261E+05  0.000E+00  0.000E+00  0.000E+00  4.26805E+01  1.464E-01  2.000E+01  2.000E+04 -6.057E-02
   1   14   14     1    14    1.0261E+05 -1.3183E+03   1.0393E+05  0.000E+00  0.000E+00  0.000E+00  4.22043E+01  1.475E-01  2.000E+01  2.000E+04 -6.592E-02
   1   13   15     1    15    1.0393E+05 -1.4033E+03   1.0534E+05  0.000E+00  0.000E+00  0.000E+00  4.17282E+01  1.486E-01  2.000E+01  2.000E+04 -7.016E-02
   1   12   16     1    16    1.0534E+05 -1.4952E+03   1.0683E+05  0.000E+00  0.000E+00  0.000E+00  4.12521E+01  1.499E-01  2.000E+01  2.000E+04 -7.476E-02
   1   12   17     1    17    1.0683E+05 -8.5447E+02   1.0769E+05  0.000E+00  0.000E+00  0.000E+00  4.07759E+01  1.509E-01  2.000E+01  2.000E+04 -4.272E-02
   1   12   18     1    18    1.0769E+05 -6.4397E+02   1.0833E+05  0.000E+00  0.000E+00  0.000E+00  4.02992E+01  1.515E-01  2.000E+01  2.000E+04 -3.220E-02
   1   12   19     1    19    1.0833E+05 -4.9222E+01   1.0838E+05  0.000E+00  0.000E+00  0.000E+00  3.98222E+01  1.518E-01  2.000E+01  2.000E+04 -2.461E-03
   1   13   20     1    20    1.0838E+05  6.1167E+01   1.0832E+05  0.000E+00  0.000E+00  0.000E+00  3.93450E+01  1.518E-01  2.000E+01  2.000E+04  3.058E-03
   1   14   21     1    21    1.0832E+05 -6.2919E+02   1.0895E+05  0.000E+00  0.000E+00  0.000E+00  3.88679E+01  1.520E-01  2.000E+01  2.000E+04 -3.146E-02
   1   14   22     1    22    1.0895E+05  5.2366E+03   1.0371E+05  0.000E+00  0.000E+00  0.000E+00  3.83887E+01  1.501E-01  2.000E+01  2.000E+04  2.618E-01
   1    9   30     2     1    5.0000E+04 -1.2432E+02   5.0124E+04  0.000E+00  0.000E+00  0.000E+00  4.02410E+01  1.160E-01  2.000E+01  2.000E+04 -6.216E-03
   1    9   29     2     2    5.0124E+04 -4.0268E+02   5.0527E+04  0.000E+00  0.000E+00  0.000E+00  3.99913E+01  1.163E-01  2.000E+01  2.000E+04 -2.013E-02
   1    9   28     2     3    5.0527E+04 -5.9279E+02   5.1120E+04  0.000E+00  0.000E+00  0.000E+00  3.97420E+01  1.170E-01  2.000E+01  2.000E+04 -2.964E-02
   1    9   27     2     4    5.1120E+04 -1.2555E+03   5.2375E+04  0.000E+00  0.000E+00  0.000E+00  3.94933E+01  1.183E-01  2.000E+01  2.000E+04 -6.278E-02
   1   10   26     2     5    5.2375E+04 -2.5962E+02   5.2635E+04  0.000E+00  0.000E+00  0.000E+00  3.92443E+01  1.193E-01  2.000E+01  2.000E+04 -1.298E-02
   1   11   25     2     6    5.2635E+04  4.9198E+02   5.2143E+04  0.000E+00  0.000E+00  0.000E+00  3.89942E+01  1.192E-01  2.000E+01  2.000E+04  2.460E-02
   1   12   24     2     7    5.2143E+04  1.3426E+03   5.0800E+04  0.000E+00  0.000E+00  0.000E+00  3.87429E+01  1.179E-01  2.000E+01  2.000E+04  6.713E-02
   1   13   23     2     8    5.0800E+04  3.1316E+02   5.0487E+04  0.000E+00  0.000E+00  0.000E+00  3.84918E+01  1.168E-01  2.000E+01  2.000E+04  1.566E-02
   1   14   22     2     9    5.0487E+04  2.2617E+03   4.8225E+04  0.000E+00  0.000E+00  0.000E+00  3.82400E+01  1.150E-01  2.000E+01  2.000E+04  1.131E-01
   1   14   22     3     1    1.5194E+05 -8.2908E+03   1.6023E+05  0.000E+00  0.000E+00  0.000E+00  3.77123E+01  1.568E-01  2.000E+01  2.000E+04 -4.145E-01
   1   15   23     3     2    1.6023E+05 -4.3185E+02   1.6066E+05  0.000E+00  0.000E+00  0.000E+00  3.68261E+01  1.594E-01  2.000E+01  2.000E+04 -2.159E-02
   1   15   24     3     3    1.6066E+05 -1.8553E+02   1.6084E+05  0.000E+00  0.000E+00  0.000E+00  3.59374E+01  1.596E-01  2.000E+01  2.000E+04 -9.277E-03
   1   15   25     3     4    1.6084E+05 -1.6761E+02   1.6101E+05  0.000E+00  0.000E+00  0.000E+00  3.50486E+01  1.597E-01  2.000E+01  2.000E+04 -8.380E-03
   1   15   26     3     5    1.6101E+05 -1.6915E+02   1.6118E+05  0.000E+00  0.000E+00  0.000E+00  3.41598E+01  1.598E-01  2.000E+01  2.000E+04 -8.457E-03
   1   16   27     3     6    1.6118E+05  6.6208E+00   1.6117E+05  0.000E+00  0.000E+00  0.000E+00  3.32710E+01  1.598E-01  2.000E+01  2.000E+04  3.310E-04
   1   17   28     3     7    1.6117E+05  5.6617E+03   1.5551E+05  0.000E+00  0.000E+00  0.000E+00  3.23804E+01  1.581E-01  2.000E+01  2.000E+04  2.831E-01
   1   18   29     3     8    1.5551E+05  2.2988E+04   1.3252E+05  0.000E+00  0.000E+00  0.000E+00  3.14827E+01  1.494E-01  2.000E+01  2.000E+04  1.149E+00
   1   18   30     3     9    1.3252E+05  8.0702E+03   1.2445E+05  0.000E+00  0.000E+00  0.000E+00  3.05840E+01  1.395E-01  2.000E+01  2.000E+04  4.035E-01



1
              HEAD IN LAYER   1 AT END OF TIME STEP   1 IN STRESS PERIOD   11
  ---------------------------------------------------------------------------

          1      2      3      4      5      6      7      8      9     10
         11     12     13     14     15     16     17     18     19     20
         21     22     23     24     25     26     27     28     29     30
 .........................................................................
   1  ****** ****** ****** ****** ****** ****** ****** ****** ****** ******
      ****** ****** ****** ****** ****** ****** ****** ****** ****** ******
      ****** ****** ****** ****** ****** ****** ****** ****** ****** ******
   2  ****** ****** ****** ****** ****** ****** ****** ****** ****** ******
      ****** ****** ****** ****** ****** ****** ****** ****** ****** ******
      ****** ****** ****** ****** ****** ****** ****** ****** ****** ******
   3  ****** ****** ****** ****** ****** ****** ****** ****** ****** ******
      ****** ****** ****** ****** ****** ****** ****** ****** ****** ******
      ****** ****** ****** ****** ****** ****** ****** ****** ****** ******
   4  ****** ****** ****** ****** ****** ****** ****** ****** ****** ******
      ****** ****** ****** ****** ****** ****** ****** ****** ****** ******
      ****** ****** ****** ****** ****** ****** ****** ****** ****** ******
   5  ****** ****** ****** ****** ****** ****** ****** ****** ****** ******
      ****** ****** ****** ****** ****** ****** ****** ****** ****** ******
      ****** ****** ****** ****** ****** ****** ****** ****** ****** ******
   6  ****** ****** ****** ****** ****** ****** ****** ****** ****** ******
      ****** ****** ****** ****** ****** ****** ****** ****** ****** ******
      ****** ****** ****** ****** ****** ****** ****** ****** ****** ******
   7  ****** ****** ****** ****** ****** ****** ****** ****** ****** ******
      ****** ****** ****** ****** ****** ****** ****** ****** ****** ******
      ****** ****** ****** ****** ****** ****** ****** ****** ****** ******
   8  ****** ****** ****** ****** ****** ****** ****** ****** ****** ******
      ****** ****** ****** ****** ****** ****** ****** ****** ****** ******
      ****** ****** ****** ****** ****** ****** ****** ****** ****** ******
   9  ****** ****** ****** ****** ****** ****** ****** ****** ****** ******
      ****** ****** ****** ****** ****** ****** ****** ****** ****** ******
      ****** ****** ****** ****** ****** ****** ****** ****** ****** ******
  10  ****** ****** ****** ****** ****** ****** ****** ****** ****** ******
      ****** ****** ****** ****** ****** ****** ****** ****** ****** ******
      ****** ****** ****** ****** ****** ****** ****** ****** ****** ******
  11  ****** ****** ****** ****** ****** ****** ****** ****** ****** ******
      ****** ****** ****** ****** ****** ****** ****** ****** ****** ******
      ****** ****** ****** ****** ****** ****** ****** ****** ****** ******
  12  ****** ****** ****** ****** ****** ****** ****** ****** ****** ******
      ****** ****** ****** ****** ****** ****** ****** ****** ****** ******
      ****** ****** ****** ****** ****** ****** ****** ****** ****** ******
  13  ****** ****** ****** ****** ****** ****** ****** ****** ****** ******
      ****** ****** ****** ****** ****** ****** ****** ****** ****** ******
      ****** ****** ****** ****** ****** ****** ****** ****** ****** ******
  14  ****** ****** ****** ****** ****** ****** ****** ****** ****** ******
      ****** ****** ****** ****** ****** ****** ****** ****** ****** ******
      ****** ****** ****** ****** ****** ****** ****** ****** ****** ******
  15  ****** ****** ****** ****** ****** ****** ****** ****** ****** ******
      ****** ****** ****** ****** ****** ****** ****** ****** ****** ******
      ****** ****** ****** ****** ****** ****** ****** ****** ****** ******
  16  ****** ****** ****** ****** ****** ****** ****** ****** ****** ******
      ****** ****** ****** ****** ****** ****** ****** ****** ****** ******
      ****** ****** ****** ****** ****** ****** ****** ****** ****** ******
  17  ****** ****** ****** ****** ****** ****** ****** ****** ****** ******
      ****** ****** ****** ****** ****** ****** ****** ****** ****** ******
      ****** ****** ****** ****** ****** ****** ****** ****** ****** ******
  18  ****** ****** ****** ****** ****** ****** ****** ****** ****** ******
      ****** ****** ****** ****** ****** ****** ****** ****** ****** ******
      ****** ****** ****** ****** ****** ****** ****** ****** ****** ******
  19  ****** ****** ****** ****** ****** ****** ****** ****** ****** ******
      ****** ****** ****** ****** ****** ****** ****** ****** ****** ******
      ****** ****** ****** ****** ****** ****** ****** ****** ****** ******
  20  ****** ****** ****** ****** ****** ****** ****** ****** ****** ******
      ****** ****** ****** ****** ****** ****** ****** ****** ****** ******
      ****** ****** ****** ****** ****** ****** ****** ****** ****** ******
  21  ****** ****** ****** ****** ****** ****** ****** ****** ****** ******
      ****** ****** ****** ****** ****** ****** ****** ****** ****** ******
      ****** ****** ****** ****** ****** ****** ****** ****** ****** ******
  22  ****** ****** ****** ****** ****** ****** ****** ****** ****** ******
      ****** ****** ****** ****** ****** ****** ****** ****** ****** ******
      ****** ****** ****** ****** ****** ****** ****** ****** ****** ******
  23  ****** ****** ****** ****** ****** ****** ****** ****** ****** ******
      ****** ****** ****** ****** ****** ****** ****** ****** ****** ******
      ****** ****** ****** ****** ****** ****** ****** ****** ****** ******
  24  ****** ****** ****** ****** ****** ****** ****** ****** ****** ******
      ****** ****** ****** ****** ****** ****** ****** ****** ****** ******
      ****** ****** ****** ****** ****** ****** ****** ****** ****** ******
  25  ****** ****** ****** ****** ****** ****** ****** ****** ****** ******
      ****** ****** ****** ****** ****** ****** ****** ****** ****** ******
      ****** ****** ****** ****** ****** ****** ****** ****** ****** ******

 HEAD WILL BE SAVED ON UNIT   51 AT END OF TIME STEP    1, STRESS PERIOD   11
1
  VOLUMETRIC BUDGET FOR ENTIRE MODEL AT END OF TIME STEP    1, STRESS PERIOD  11
  ------------------------------------------------------------------------------

     CUMULATIVE VOLUMES      L**3       RATES FOR THIS TIME STEP      L**3/T
     ------------------                 ------------------------

           IN:                                      IN:
           ---                                      ---
             STORAGE =    35873899.8518               STORAGE =       18096.3678
       CONSTANT HEAD =    28988089.0340         CONSTANT HEAD =       35326.1017
               WELLS =           0.0000                 WELLS =           0.0000
            RECHARGE =    23901600.0000              RECHARGE =           0.0000
      STREAM LEAKAGE =    52828115.5357        STREAM LEAKAGE =       57167.9503

            TOTAL IN =   141591704.4215              TOTAL IN =      110590.4198

          OUT:                                     OUT:
          ----                                     ----
             STORAGE =     2342744.6600               STORAGE =           0.0000
       CONSTANT HEAD =           0.0000         CONSTANT HEAD =           0.0000
               WELLS =    79283596.9514                 WELLS =       78967.7260
            RECHARGE =           0.0000              RECHARGE =           0.0000
      STREAM LEAKAGE =    59965364.9708        STREAM LEAKAGE =       31622.6965

           TOTAL OUT =   141591706.5821             TOTAL OUT =      110590.4225

            IN - OUT =          -2.1606              IN - OUT =      -2.7627E-03

 PERCENT DISCREPANCY =          -0.00     PERCENT DISCREPANCY =          -0.00






         TIME SUMMARY AT END OF TIME STEP    1 IN STRESS PERIOD   11
                    SECONDS     MINUTES      HOURS       DAYS        YEARS
                    -----------------------------------------------------------
   TIME STEP LENGTH 7.86240E+06 1.31040E+05  2184.0      91.000     0.24914    
 STRESS PERIOD TIME 7.86240E+06 1.31040E+05  2184.0      91.000     0.24914    
         TOTAL TIME 8.67456E+07 1.44576E+06  24096.      1004.0      2.7488    
1
1
                            STRESS PERIOD NO.   12, LENGTH =   91.00000    
                            -----------------------------------------------

                              NUMBER OF TIME STEPS =     1

                               MULTIPLIER FOR DELT =     1.500

                            INITIAL TIME STEP SIZE =   91.00000    

 WELL NO.  LAYER   ROW   COL   STRESS RATE         
 --------------------------------------------------
      1      1     15      4     -0.1117E+05
      2      1     11     22     -0.1086E+05
      3      1     18     29     -0.4636E+05
      4      1      5     18     -0.1058E+05

      4 WELLS

                 RECHARGE =  1.000000E-03

 REUSING STREAM SEGMENT DATA FROM LAST STRESS PERIOD
 
 SOLVING FOR HEAD 


     7 CALLS TO PCG ROUTINE FOR TIME STEP   1 IN STRESS PERIOD   12
    29 TOTAL ITERATIONS

 OUTPUT CONTROL FOR STRESS PERIOD   12   TIME STEP    1
    SAVE BUDGET
    SAVE HEAD FOR ALL LAYERS
    PRINT HEAD FOR ALL LAYERS
 UBDSV2 SAVING "STREAMFLOW OUT  " ON UNIT  50 AT TIME STEP  1, STRESS PERIOD  12



 STREAM LISTING     PERIOD     12   STEP        1

 LAYER ROW COL. STREAM  RCH.  FLOW INTO     FLOW TO   FLOW OUT OF   OVRLND.     DIRECT     STREAM       STREAM     STREAM     STREAM   STREAMBED  STREAMBED
                SEG.NO.  NO.  STRM. RCH.    AQUIFER    STRM. RCH.    RUNOFF     PRECIP       ET          HEAD       DEPTH      WIDTH   CONDCTNC.   GRADIENT

   1   13    1     1     1    1.0000E+05 -1.5636E+03   1.0156E+05  0.000E+00  0.000E+00  0.000E+00  4.84067E+01  1.453E-01  2.000E+01  2.000E+04 -7.818E-02
   1   13    2     1     2    1.0156E+05 -2.4867E+03   1.0405E+05  0.000E+00  0.000E+00  0.000E+00  4.79312E+01  1.471E-01  2.000E+01  2.000E+04 -1.243E-01
   1   14    3     1     3    1.0405E+05 -4.1126E+02   1.0446E+05  0.000E+00  0.000E+00  0.000E+00  4.74551E+01  1.483E-01  2.000E+01  2.000E+04 -2.056E-02
   1   15    4     1     4    1.0446E+05  1.0652E+04   9.3809E+04  0.000E+00  0.000E+00  0.000E+00  4.69734E+01  1.439E-01  2.000E+01  2.000E+04  5.326E-01
   1   16    5     1     5    9.3809E+04 -1.5696E+03   9.5379E+04  0.000E+00  0.000E+00  0.000E+00  4.64922E+01  1.399E-01  2.000E+01  2.000E+04 -7.848E-02
   1   16    6     1     6    9.5379E+04 -1.0086E+03   9.6388E+04  0.000E+00  0.000E+00  0.000E+00  4.60160E+01  1.410E-01  2.000E+01  2.000E+04 -5.043E-02
   1   16    7     1     7    9.6388E+04 -9.9498E+02   9.7383E+04  0.000E+00  0.000E+00  0.000E+00  4.55397E+01  1.419E-01  2.000E+01  2.000E+04 -4.975E-02
   1   16    8     1     8    9.7383E+04 -9.9519E+02   9.8378E+04  0.000E+00  0.000E+00  0.000E+00  4.50633E+01  1.428E-01  2.000E+01  2.000E+04 -4.976E-02
   1   16    9     1     9    9.8378E+04 -9.9351E+02   9.9371E+04  0.000E+00  0.000E+00  0.000E+00  4.45869E+01  1.437E-01  2.000E+01  2.000E+04 -4.968E-02
   1   16   10     1    10    9.9371E+04 -9.9029E+02   1.0036E+05  0.000E+00  0.000E+00  0.000E+00  4.41104E+01  1.445E-01  2.000E+01  2.000E+04 -4.951E-02
   1   16   11     1    11    1.0036E+05 -1.0036E+03   1.0137E+05  0.000E+00  0.000E+00  0.000E+00  4.36340E+01  1.454E-01  2.000E+01  2.000E+04 -5.018E-02
   1   16   12     1    12    1.0137E+05 -1.6646E+03   1.0303E+05  0.000E+00  0.000E+00  0.000E+00  4.31579E+01  1.466E-01  2.000E+01  2.000E+04 -8.323E-02
   1   15   13     1    13    1.0303E+05 -1.4277E+03   1.0446E+05  0.000E+00  0.000E+00  0.000E+00  4.26820E+01  1.479E-01  2.000E+01  2.000E+04 -7.139E-02
   1   14   14     1    14    1.0446E+05 -1.5350E+03   1.0599E+05  0.000E+00  0.000E+00  0.000E+00  4.22060E+01  1.491E-01  2.000E+01  2.000E+04 -7.675E-02
   1   13   15     1    15    1.0599E+05 -1.6126E+03   1.0761E+05  0.000E+00  0.000E+00  0.000E+00  4.17300E+01  1.505E-01  2.000E+01  2.000E+04 -8.063E-02
   1   12   16     1    16    1.0761E+05 -1.6779E+03   1.0928E+05  0.000E+00  0.000E+00  0.000E+00  4.12541E+01  1.519E-01  2.000E+01  2.000E+04 -8.389E-02
   1   12   17     1    17    1.0928E+05 -1.0075E+03   1.1029E+05  0.000E+00  0.000E+00  0.000E+00  4.07780E+01  1.530E-01  2.000E+01  2.000E+04 -5.037E-02
   1   12   18     1    18    1.1029E+05 -7.9920E+02   1.1109E+05  0.000E+00  0.000E+00  0.000E+00  4.03015E+01  1.537E-01  2.000E+01  2.000E+04 -3.996E-02
   1   12   19     1    19    1.1109E+05 -2.4120E+02   1.1133E+05  0.000E+00  0.000E+00  0.000E+00  3.98246E+01  1.542E-01  2.000E+01  2.000E+04 -1.206E-02
   1   13   20     1    20    1.1133E+05 -1.4883E+02   1.1148E+05  0.000E+00  0.000E+00  0.000E+00  3.93475E+01  1.543E-01  2.000E+01  2.000E+04 -7.442E-03
   1   14   21     1    21    1.1148E+05 -8.2278E+02   1.1230E+05  0.000E+00  0.000E+00  0.000E+00  3.88706E+01  1.547E-01  2.000E+01  2.000E+04 -4.114E-02
   1   14   22     1    22    1.1230E+05  5.1839E+03   1.0712E+05  0.000E+00  0.000E+00  0.000E+00  3.83916E+01  1.529E-01  2.000E+01  2.000E+04  2.592E-01
   1    9   30     2     1    5.0000E+04 -3.0059E+02   5.0301E+04  0.000E+00  0.000E+00  0.000E+00  4.02411E+01  1.161E-01  2.000E+01  2.000E+04 -1.503E-02
   1    9   29     2     2    5.0301E+04 -5.7689E+02   5.0877E+04  0.000E+00  0.000E+00  0.000E+00  3.99917E+01  1.167E-01  2.000E+01  2.000E+04 -2.884E-02
   1    9   28     2     3    5.0877E+04 -7.6346E+02   5.1641E+04  0.000E+00  0.000E+00  0.000E+00  3.97426E+01  1.176E-01  2.000E+01  2.000E+04 -3.817E-02
   1    9   27     2     4    5.1641E+04 -1.4644E+03   5.3105E+04  0.000E+00  0.000E+00  0.000E+00  3.94941E+01  1.191E-01  2.000E+01  2.000E+04 -7.322E-02
   1   10   26     2     5    5.3105E+04 -4.8913E+02   5.3594E+04  0.000E+00  0.000E+00  0.000E+00  3.92455E+01  1.205E-01  2.000E+01  2.000E+04 -2.446E-02
   1   11   25     2     6    5.3594E+04  2.6636E+02   5.3328E+04  0.000E+00  0.000E+00  0.000E+00  3.89956E+01  1.206E-01  2.000E+01  2.000E+04  1.332E-02
   1   12   24     2     7    5.3328E+04  1.1367E+03   5.2191E+04  0.000E+00  0.000E+00  0.000E+00  3.87447E+01  1.197E-01  2.000E+01  2.000E+04  5.684E-02
   1   13   23     2     8    5.2191E+04  2.3557E+02   5.1956E+04  0.000E+00  0.000E+00  0.000E+00  3.84937E+01  1.187E-01  2.000E+01  2.000E+04  1.178E-02
   1   14   22     2     9    5.1956E+04  2.1938E+03   4.9762E+04  0.000E+00  0.000E+00  0.000E+00  3.82421E+01  1.171E-01  2.000E+01  2.000E+04  1.097E-01
   1   14   22     3     1    1.5688E+05 -8.3409E+03   1.6522E+05  0.000E+00  0.000E+00  0.000E+00  3.77153E+01  1.598E-01  2.000E+01  2.000E+04 -4.170E-01
   1   15   23     3     2    1.6522E+05 -5.0376E+02   1.6573E+05  0.000E+00  0.000E+00  0.000E+00  3.68290E+01  1.624E-01  2.000E+01  2.000E+04 -2.519E-02
   1   15   24     3     3    1.6573E+05 -2.5052E+02   1.6598E+05  0.000E+00  0.000E+00  0.000E+00  3.59404E+01  1.626E-01  2.000E+01  2.000E+04 -1.253E-02
   1   15   25     3     4    1.6598E+05 -2.3384E+02   1.6621E+05  0.000E+00  0.000E+00  0.000E+00  3.50516E+01  1.627E-01  2.000E+01  2.000E+04 -1.169E-02
   1   15   26     3     5    1.6621E+05 -2.4655E+02   1.6646E+05  0.000E+00  0.000E+00  0.000E+00  3.41629E+01  1.629E-01  2.000E+01  2.000E+04 -1.233E-02
   1   16   27     3     6    1.6646E+05 -8.0912E+01   1.6654E+05  0.000E+00  0.000E+00  0.000E+00  3.32741E+01  1.630E-01  2.000E+01  2.000E+04 -4.046E-03
   1   17   28     3     7    1.6654E+05  5.3829E+03   1.6115E+05  0.000E+00  0.000E+00  0.000E+00  3.23836E+01  1.614E-01  2.000E+01  2.000E+04  2.691E-01
   1   18   29     3     8    1.6115E+05  2.3057E+04   1.3810E+05  0.000E+00  0.000E+00  0.000E+00  3.14862E+01  1.529E-01  2.000E+01  2.000E+04  1.153E+00
   1   18   30     3     9    1.3810E+05  7.7994E+03   1.3030E+05  0.000E+00  0.000E+00  0.000E+00  3.05876E+01  1.432E-01  2.000E+01  2.000E+04  3.900E-01



1
              HEAD IN LAYER   1 AT END OF TIME STEP   1 IN STRESS PERIOD   12
  ---------------------------------------------------------------------------

          1      2      3      4      5      6      7      8      9     10
         11     12     13     14     15     16     17     18     19     20
         21     22     23     24     25     26     27     28     29     30
 .........................................................................
   1  ****** ****** ****** ****** ****** ****** ****** ****** ****** ******
      ****** ****** ****** ****** ****** ****** ****** ****** ****** ******
      ****** ****** ****** ****** ****** ****** ****** ****** ****** ******
   2  ****** ****** ****** ****** ****** ****** ****** ****** ****** ******
      ****** ****** ****** ****** ****** ****** ****** ****** ****** ******
      ****** ****** ****** ****** ****** ****** ****** ****** ****** ******
   3  ****** ****** ****** ****** ****** ****** ****** ****** ****** ******
      ****** ****** ****** ****** ****** ****** ****** ****** ****** ******
      ****** ****** ****** ****** ****** ****** ****** ****** ****** ******
   4  ****** ****** ****** ****** ****** ****** ****** ****** ****** ******
      ****** ****** ****** ****** ****** ****** ****** ****** ****** ******
      ****** ****** ****** ****** ****** ****** ****** ****** ****** ******
   5  ****** ****** ****** ****** ****** ****** ****** ****** ****** ******
      ****** ****** ****** ****** ****** ****** ****** ****** ****** ******
      ****** ****** ****** ****** ****** ****** ****** ****** ****** ******
   6  ****** ****** ****** ****** ****** ****** ****** ****** ****** ******
      ****** ****** ****** ****** ****** ****** ****** ****** ****** ******
      ****** ****** ****** ****** ****** ****** ****** ****** ****** ******
   7  ****** ****** ****** ****** ****** ****** ****** ****** ****** ******
      ****** ****** ****** ****** ****** ****** ****** ****** ****** ******
      ****** ****** ****** ****** ****** ****** ****** ****** ****** ******
   8  ****** ****** ****** ****** ****** ****** ****** ****** ****** ******
      ****** ****** ****** ****** ****** ****** ****** ****** ****** ******
      ****** ****** ****** ****** ****** ****** ****** ****** ****** ******
   9  ****** ****** ****** ****** ****** ****** ****** ****** ****** ******
      ****** ****** ****** ****** ****** ****** ****** ****** ****** ******
      ****** ****** ****** ****** ****** ****** ****** ****** ****** ******
  10  ****** ****** ****** ****** ****** ****** ****** ****** ****** ******
      ****** ****** ****** ****** ****** ****** ****** ****** ****** ******
      ****** ****** ****** ****** ****** ****** ****** ****** ****** ******
  11  ****** ****** ****** ****** ****** ****** ****** ****** ****** ******
      ****** ****** ****** ****** ****** ****** ****** ****** ****** ******
      ****** ****** ****** ****** ****** ****** ****** ****** ****** ******
  12  ****** ****** ****** ****** ****** ****** ****** ****** ****** ******
      ****** ****** ****** ****** ****** ****** ****** ****** ****** ******
      ****** ****** ****** ****** ****** ****** ****** ****** ****** ******
  13  ****** ****** ****** ****** ****** ****** ****** ****** ****** ******
      ****** ****** ****** ****** ****** ****** ****** ****** ****** ******
      ****** ****** ****** ****** ****** ****** ****** ****** ****** ******
  14  ****** ****** ****** ****** ****** ****** ****** ****** ****** ******
      ****** ****** ****** ****** ****** ****** ****** ****** ****** ******
      ****** ****** ****** ****** ****** ****** ****** ****** ****** ******
  15  ****** ****** ****** ****** ****** ****** ****** ****** ****** ******
      ****** ****** ****** ****** ****** ****** ****** ****** ****** ******
      ****** ****** ****** ****** ****** ****** ****** ****** ****** ******
  16  ****** ****** ****** ****** ****** ****** ****** ****** ****** ******
      ****** ****** ****** ****** ****** ****** ****** ****** ****** ******
      ****** ****** ****** ****** ****** ****** ****** ****** ****** ******
  17  ****** ****** ****** ****** ****** ****** ****** ****** ****** ******
      ****** ****** ****** ****** ****** ****** ****** ****** ****** ******
      ****** ****** ****** ****** ****** ****** ****** ****** ****** ******
  18  ****** ****** ****** ****** ****** ****** ****** ****** ****** ******
      ****** ****** ****** ****** ****** ****** ****** ****** ****** ******
      ****** ****** ****** ****** ****** ****** ****** ****** ****** ******
  19  ****** ****** ****** ****** ****** ****** ****** ****** ****** ******
      ****** ****** ****** ****** ****** ****** ****** ****** ****** ******
      ****** ****** ****** ****** ****** ****** ****** ****** ****** ******
  20  ****** ****** ****** ****** ****** ****** ****** ****** ****** ******
      ****** ****** ****** ****** ****** ****** ****** ****** ****** ******
      ****** ****** ****** ****** ****** ****** ****** ****** ****** ******
  21  ****** ****** ****** ****** ****** ****** ****** ****** ****** ******
      ****** ****** ****** ****** ****** ****** ****** ****** ****** ******
      ****** ****** ****** ****** ****** ****** ****** ****** ****** ******
  22  ****** ****** ****** ****** ****** ****** ****** ****** ****** ******
      ****** ****** ****** ****** ****** ****** ****** ****** ****** ******
      ****** ****** ****** ****** ****** ****** ****** ****** ****** ******
  23  ****** ****** ****** ****** ****** ****** ****** ****** ****** ******
      ****** ****** ****** ****** ****** ****** ****** ****** ****** ******
      ****** ****** ****** ****** ****** ****** ****** ****** ****** ******
  24  ****** ****** ****** ****** ****** ****** ****** ****** ****** ******
      ****** ****** ****** ****** ****** ****** ****** ****** ****** ******
      ****** ****** ****** ****** ****** ****** ****** ****** ****** ******
  25  ****** ****** ****** ****** ****** ****** ****** ****** ****** ******
      ****** ****** ****** ****** ****** ****** ****** ****** ****** ******
      ****** ****** ****** ****** ****** ****** ****** ****** ****** ******

 HEAD WILL BE SAVED ON UNIT   51 AT END OF TIME STEP    1, STRESS PERIOD   12
1
  VOLUMETRIC BUDGET FOR ENTIRE MODEL AT END OF TIME STEP    1, STRESS PERIOD  12
  ------------------------------------------------------------------------------

     CUMULATIVE VOLUMES      L**3       RATES FOR THIS TIME STEP      L**3/T
     ------------------                 ------------------------

           IN:                                      IN:
           ---                                      ---
             STORAGE =    35875322.2226               STORAGE =          15.6304
       CONSTANT HEAD =    32139984.6119         CONSTANT HEAD =       34636.2151
               WELLS =           0.0000                 WELLS =           0.0000
            RECHARGE =    26413200.0000              RECHARGE =       27600.0000
      STREAM LEAKAGE =    57915732.3750        STREAM LEAKAGE =       55907.8774

            TOTAL IN =   152344239.2095              TOTAL IN =      118159.7229

          OUT:                                     OUT:
          ----                                     ----
             STORAGE =     2614518.7183               STORAGE =        2986.5281
       CONSTANT HEAD =           0.0000         CONSTANT HEAD =           0.0000
               WELLS =    86469660.0217                 WELLS =       78967.7260
            RECHARGE =           0.0000              RECHARGE =           0.0000
      STREAM LEAKAGE =    63260062.4079        STREAM LEAKAGE =       36205.4663

           TOTAL OUT =   152344241.1478             TOTAL OUT =      118159.7205

            IN - OUT =          -1.9384              IN - OUT =       2.4423E-03

 PERCENT DISCREPANCY =          -0.00     PERCENT DISCREPANCY =           0.00






         TIME SUMMARY AT END OF TIME STEP    1 IN STRESS PERIOD   12
                    SECONDS     MINUTES      HOURS       DAYS        YEARS
                    -----------------------------------------------------------
   TIME STEP LENGTH 7.86240E+06 1.31040E+05  2184.0      91.000     0.24914    
 STRESS PERIOD TIME 7.86240E+06 1.31040E+05  2184.0      91.000     0.24914    
         TOTAL TIME 9.46080E+07 1.57680E+06  26280.      1095.0      2.9979    
1

 Run end date and time (yyyy/mm/dd hh:mm:ss): 2019/02/13 17:55:47
 Elapsed run time:  0.107 Seconds

