                                  MODFLOW-2005     
      U.S. GEOLOGICAL SURVEY MODULAR FINITE-DIFFERENCE GROUND-WATER FLOW MODEL
                            VERSION 1.11.00 8/8/2013

 LIST FILE: supply2.lst
                         UNIT   10

 OPENING ..\data\supply.dis
 FILE TYPE:DIS   UNIT   11   STATUS:OLD    
 FORMAT:FORMATTED              ACCESS:SEQUENTIAL          

 OPENING ..\data\supply.ba6
 FILE TYPE:BAS6   UNIT   12   STATUS:OLD    
 FORMAT:FORMATTED              ACCESS:SEQUENTIAL          

 OPENING ..\data\supply.bc6
 FILE TYPE:BCF6   UNIT   13   STATUS:OLD    
 FORMAT:FORMATTED              ACCESS:SEQUENTIAL          

 OPENING ..\data\supply.rch
 FILE TYPE:RCH   UNIT   15   STATUS:OLD    
 FORMAT:FORMATTED              ACCESS:SEQUENTIAL          

 OPENING ..\data\supply2.sfr
 FILE TYPE:SFR   UNIT   16   STATUS:OLD    
 FORMAT:FORMATTED              ACCESS:SEQUENTIAL          

 OPENING ..\data\supply.oc
 FILE TYPE:OC   UNIT   17   STATUS:OLD    
 FORMAT:FORMATTED              ACCESS:SEQUENTIAL          

 OPENING ..\data\supply.pcg
 FILE TYPE:PCG   UNIT   18   STATUS:OLD    
 FORMAT:FORMATTED              ACCESS:SEQUENTIAL          

 OPENING supply2.wel
 FILE TYPE:WEL   UNIT   19   STATUS:OLD    
 FORMAT:FORMATTED              ACCESS:SEQUENTIAL          

 OPENING supply2sf.cbc
 FILE TYPE:DATA(BINARY)   UNIT   50   STATUS:UNKNOWN
 FORMAT:BINARY                 ACCESS:SEQUENTIAL          

 OPENING supply2hd.bhd
 FILE TYPE:DATA(BINARY)   UNIT   51   STATUS:UNKNOWN
 FORMAT:BINARY                 ACCESS:SEQUENTIAL          

 BAS -- BASIC PACKAGE, VERSION 7, 5/2/2005 INPUT READ FROM UNIT   12
 
 MODFLOW was compiled using uniform precision
 Precision of REAL and DOUBLE PRECISION variables:          15

 DISCRETIZATION INPUT DATA READ FROM UNIT   11
    1 LAYERS        25 ROWS        30 COLUMNS
   12 STRESS PERIOD(S) IN SIMULATION
 MODEL TIME UNIT IS DAYS
 MODEL LENGTH UNIT IS UNDEFINED
  Confining bed flag for each layer:
   0

                     DELR =   200.000    

                     DELC =   200.000    

 TOP ELEVATION OF LAYER 1 =  100.0000    

   MODEL LAYER BOTTOM EL. =   0.00000     FOR LAYER   1


 STRESS PERIOD     LENGTH       TIME STEPS     MULTIPLIER FOR DELT    SS FLAG
 ----------------------------------------------------------------------------
        1         92.00000          1                    1.500         TR
        2         91.00000          1                    1.500         TR
        3         91.00000          1                    1.500         TR
        4         91.00000          1                    1.500         TR
        5         92.00000          1                    1.500         TR
        6         91.00000          1                    1.500         TR
        7         91.00000          1                    1.500         TR
        8         91.00000          1                    1.500         TR
        9         92.00000          1                    1.500         TR
       10         91.00000          1                    1.500         TR
       11         91.00000          1                    1.500         TR
       12         91.00000          1                    1.500         TR

 TRANSIENT SIMULATION



 
 #MODOFC transient water supply sample problem                                   
 #                                                                               
 THE FREE FORMAT OPTION HAS BEEN SELECTED



                     BOUNDARY ARRAY FOR LAYER   1
 READING ON UNIT   12 WITH FORMAT: (20I4)              

 AQUIFER HEAD WILL BE SET TO   0.0000     AT ALL NO-FLOW NODES (IBOUND=0).



                       INITIAL HEAD FOR LAYER   1
 READING ON UNIT   12 WITH FORMAT: (10F13.0)           

 OUTPUT CONTROL IS SPECIFIED ONLY AT TIME STEPS FOR WHICH OUTPUT IS DESIRED
 COMPACT CELL-BY-CELL BUDGET FILES WILL BE WRITTEN
 HEAD PRINT FORMAT CODE IS  18    DRAWDOWN PRINT FORMAT CODE IS   0
 HEADS WILL BE SAVED ON UNIT   51    DRAWDOWNS WILL BE SAVED ON UNIT    0

 BCF -- BLOCK-CENTERED FLOW PACKAGE, VERSION 7, 5/2/2005
         INPUT READ FROM UNIT 13
 TRANSIENT SIMULATION
 HEAD AT CELLS THAT CONVERT TO DRY=   0.0000    
 WETTING CAPABILITY IS NOT ACTIVE
      LAYER  LAYER-TYPE CODE     INTERBLOCK T
      --------------------------------------------
         1            0          0 -- HARMONIC    

 COLUMN TO ROW ANISOTROPY =  1.000000    

     PRIMARY STORAGE COEF =  5.000000E-02 FOR LAYER   1

     TRANSMIS. ALONG ROWS =   500.000     FOR LAYER   1

 WEL -- WELL PACKAGE, VERSION 7, 5/2/2005 INPUT READ FROM UNIT   19
 # Well package input file written by MMProc
 No named parameters
 MAXIMUM OF      6 ACTIVE WELLS AT ONE TIME


     0 Well parameters

 RCH -- RECHARGE PACKAGE, VERSION 7, 5/2/2005 INPUT READ FROM UNIT   15
 No named parameters
 OPTION 1 -- RECHARGE TO TOP LAYER


     0 Recharge parameters

 SFR7 -- STREAMFLOW ROUTING PACKAGE, VERSION 1.0.7, 2013-01-15
         INPUT READ FROM UNIT  16
 #  Supply2 test problem for GWM-VI
 #  The eighth entry in the first data line is ISTCB2 -
 #    Setting this to a negative number indicates that
 #    streamflows out of the reach will be saved to a
 #    binary file.  The absolute value of ISTCB2 is the
 #    unit to which unformatted flows will be written.
 #
 No named parameters
 Segment information will not be 
 read by reach
 No named parameters
 No specifed inflow files


 NUMBER OF STREAM REACHES IS   40

 NUMBER OF STREAM SEGMENTS IS    3

 NUMBER OF STREAM PARAMETERS IS    0

 NUMBER OF STREAM SEGMENTS DEFINED USING PARAMETERS IS              0

 MAXIMUM ERROR FOR STREAM LEAKAGE RATES IS  1.00E-04

 CONSTANT FOR MANNINGS EQUATION IS  1.2839E+05





   STREAM NETWORK DESCRIPTION: 

   LAYER    ROW    COL   SEGMENT   REACH     LENGTH
                          NUMBER   NUMBER    IN CELL        
   --------------------------------------------------
      1     13      1       1        1    2.0000E+02
      1     13      2       1        2    2.0000E+02
      1     14      3       1        3    2.0000E+02
      1     15      4       1        4    2.0000E+02
      1     16      5       1        5    2.0000E+02
      1     16      6       1        6    2.0000E+02
      1     16      7       1        7    2.0000E+02
      1     16      8       1        8    2.0000E+02
      1     16      9       1        9    2.0000E+02
      1     16     10       1       10    2.0000E+02
      1     16     11       1       11    2.0000E+02
      1     16     12       1       12    2.0000E+02
      1     15     13       1       13    2.0000E+02
      1     14     14       1       14    2.0000E+02
      1     13     15       1       15    2.0000E+02
      1     12     16       1       16    2.0000E+02
      1     12     17       1       17    2.0000E+02
      1     12     18       1       18    2.0000E+02
      1     12     19       1       19    2.0000E+02
      1     13     20       1       20    2.0000E+02
      1     14     21       1       21    2.0000E+02
      1     14     22       1       22    2.0000E+02
      1      9     30       2        1    2.0000E+02
      1      9     29       2        2    2.0000E+02
      1      9     28       2        3    2.0000E+02
      1      9     27       2        4    2.0000E+02
      1     10     26       2        5    2.0000E+02
      1     11     25       2        6    2.0000E+02
      1     12     24       2        7    2.0000E+02
      1     13     23       2        8    2.0000E+02
      1     14     22       2        9    2.0000E+02
      1     14     22       3        1    2.0000E+02
      1     15     23       3        2    2.0000E+02
      1     15     24       3        3    2.0000E+02
      1     15     25       3        4    2.0000E+02
      1     15     26       3        5    2.0000E+02
      1     16     27       3        6    2.0000E+02
      1     17     28       3        7    2.0000E+02
      1     18     29       3        8    2.0000E+02
      1     18     30       3        9    2.0000E+02




 PCG -- CONJUGATE-GRADIENT SOLUTION PACKAGE, VERSION 7, 5/2/2005
 MAXIMUM OF    500 CALLS OF SOLUTION ROUTINE
 MAXIMUM OF      5 INTERNAL ITERATIONS PER CALL TO SOLUTION ROUTINE
 MATRIX PRECONDITIONING TYPE :    1



                                    SOLUTION BY THE CONJUGATE-GRADIENT METHOD
                                   -------------------------------------------
                    MAXIMUM NUMBER OF CALLS TO PCG ROUTINE =      500
                        MAXIMUM ITERATIONS PER CALL TO PCG =        5
                               MATRIX PRECONDITIONING TYPE =        1
        RELAXATION FACTOR (ONLY USED WITH PRECOND. TYPE 1) =    0.10000E+01
 PARAMETER OF POLYNOMIAL PRECOND. = 2 (2) OR IS CALCULATED :        0
                         HEAD CHANGE CRITERION FOR CLOSURE =    0.10000E-05
                     RESIDUAL CHANGE CRITERION FOR CLOSURE =    0.10000E+01
            PCG HEAD AND RESIDUAL CHANGE PRINTOUT INTERVAL =        1
     PRINTING FROM SOLVER IS LIMITED(1) OR SUPPRESSED (>1) =        1
                            STEADY-STATE DAMPING PARAMETER =    0.10000E+01
                               TRANSIENT DAMPING PARAMETER =    0.10000E+01
1
                            STRESS PERIOD NO.    1, LENGTH =   92.00000    
                            -----------------------------------------------

                              NUMBER OF TIME STEPS =     1

                               MULTIPLIER FOR DELT =     1.500

                            INITIAL TIME STEP SIZE =   92.00000    

 WELL NO.  LAYER   ROW   COL   STRESS RATE         
 --------------------------------------------------
      1      1      5     14     -0.2595E+05
      2      1      4     17     -0.2695E+05
      3      1      3     26     -0.3390E+05

      3 WELLS

                 RECHARGE =  5.000000E-04



 CLASSIFICATION & COUNT OF STREAM SEGMENTS BASED ON SOURCE OF INFLOW:

                HEADWATER     DIVERSION     RECEIVES TRIBUTARY FLOW
                ---------     ---------     -----------------------
                     2              0               1



                    INPUT DATA FOR EACH STREAM SEGMENT
 ---------------------------------------------------------------------------------------------

 SEGMENT    SEG.     INFLOW   OVERLAND   STREAM    STREAM   ICALC  OUTFLOW  DIVERSION PRIORITY
    NO.    LENGTH     RATE     RUNOFF      ET       PPT.    METH.  TO SEG.  FROM SEG.    NO.

      1  4.400E+03 1.000E+05 0.000E+00 0.000E+00 0.000E+00    1        3        0        0
      2  1.800E+03 5.000E+04 0.000E+00 0.000E+00 0.000E+00    1        3        0        0
      3  1.800E+03 0.000E+00 0.000E+00 0.000E+00 0.000E+00    1        0        0        0


         STREAMBED PROPERTIES AND STREAM DIMENSIONS

 SEGMENT     BED HYD. COND.      BED THICKNESS     ELEV.-TOP OF BED     WIDTH OF STREAM     DEPTH OF STREAM    STREAM ROUGHNESS
    No.     UPPER     LOWER     UPPER     LOWER     UPPER     LOWER     UPPER     LOWER     UPPER     LOWER   CHANNEL      BANK

     1  5.000E+00 5.000E+00 1.000E+00 1.000E+00 4.850E+01 3.800E+01 2.000E+01 2.000E+01                     5.000E-02
     2  5.000E+00 5.000E+00 1.000E+00 1.000E+00 4.025E+01 3.800E+01 2.000E+01 2.000E+01                     5.000E-02
     3  5.000E+00 5.000E+00 1.000E+00 1.000E+00 3.800E+01 3.000E+01 2.000E+01 2.000E+01                     5.000E-02



 
 SOLVING FOR HEAD 


     8 CALLS TO PCG ROUTINE FOR TIME STEP   1 IN STRESS PERIOD    1
    34 TOTAL ITERATIONS

 OUTPUT CONTROL FOR STRESS PERIOD    1   TIME STEP    1
    SAVE BUDGET
    SAVE HEAD FOR ALL LAYERS
    PRINT HEAD FOR ALL LAYERS
 UBDSV2 SAVING "STREAMFLOW OUT  " ON UNIT  50 AT TIME STEP  1, STRESS PERIOD   1



 STREAM LISTING     PERIOD      1   STEP        1

 LAYER ROW COL. STREAM  RCH.  FLOW INTO     FLOW TO   FLOW OUT OF   OVRLND.     DIRECT     STREAM       STREAM     STREAM     STREAM   STREAMBED  STREAMBED
                SEG.NO.  NO.  STRM. RCH.    AQUIFER    STRM. RCH.    RUNOFF     PRECIP       ET          HEAD       DEPTH      WIDTH   CONDCTNC.   GRADIENT

   1   13    1     1     1    1.0000E+05 -5.6978E+03   1.0570E+05  0.000E+00  0.000E+00  0.000E+00  4.84085E+01  1.471E-01  2.000E+01  2.000E+04 -2.849E-01
   1   13    2     1     2    1.0570E+05 -8.4895E+03   1.1419E+05  0.000E+00  0.000E+00  0.000E+00  4.79372E+01  1.531E-01  2.000E+01  2.000E+04 -4.245E-01
   1   14    3     1     3    1.1419E+05 -7.7915E+03   1.2198E+05  0.000E+00  0.000E+00  0.000E+00  4.74666E+01  1.598E-01  2.000E+01  2.000E+04 -3.896E-01
   1   15    4     1     4    1.2198E+05 -7.6371E+03   1.2962E+05  0.000E+00  0.000E+00  0.000E+00  4.69956E+01  1.660E-01  2.000E+01  2.000E+04 -3.819E-01
   1   16    5     1     5    1.2962E+05 -7.4711E+03   1.3709E+05  0.000E+00  0.000E+00  0.000E+00  4.65242E+01  1.719E-01  2.000E+01  2.000E+04 -3.736E-01
   1   16    6     1     6    1.3709E+05 -5.9559E+03   1.4304E+05  0.000E+00  0.000E+00  0.000E+00  4.60521E+01  1.771E-01  2.000E+01  2.000E+04 -2.978E-01
   1   16    7     1     7    1.4304E+05 -6.0781E+03   1.4912E+05  0.000E+00  0.000E+00  0.000E+00  4.55793E+01  1.816E-01  2.000E+01  2.000E+04 -3.039E-01
   1   16    8     1     8    1.4912E+05 -6.1491E+03   1.5527E+05  0.000E+00  0.000E+00  0.000E+00  4.51066E+01  1.861E-01  2.000E+01  2.000E+04 -3.075E-01
   1   16    9     1     9    1.5527E+05 -6.1534E+03   1.6142E+05  0.000E+00  0.000E+00  0.000E+00  4.46338E+01  1.906E-01  2.000E+01  2.000E+04 -3.077E-01
   1   16   10     1    10    1.6142E+05 -6.0988E+03   1.6752E+05  0.000E+00  0.000E+00  0.000E+00  4.41609E+01  1.950E-01  2.000E+01  2.000E+04 -3.049E-01
   1   16   11     1    11    1.6752E+05 -6.0257E+03   1.7355E+05  0.000E+00  0.000E+00  0.000E+00  4.36879E+01  1.993E-01  2.000E+01  2.000E+04 -3.013E-01
   1   16   12     1    12    1.7355E+05 -7.8706E+03   1.8142E+05  0.000E+00  0.000E+00  0.000E+00  4.32155E+01  2.041E-01  2.000E+01  2.000E+04 -3.935E-01
   1   15   13     1    13    1.8142E+05 -8.0188E+03   1.8944E+05  0.000E+00  0.000E+00  0.000E+00  4.27436E+01  2.095E-01  2.000E+01  2.000E+04 -4.009E-01
   1   14   14     1    14    1.8944E+05 -8.0890E+03   1.9753E+05  0.000E+00  0.000E+00  0.000E+00  4.22718E+01  2.149E-01  2.000E+01  2.000E+04 -4.044E-01
   1   13   15     1    15    1.9753E+05 -8.0514E+03   2.0558E+05  0.000E+00  0.000E+00  0.000E+00  4.17998E+01  2.203E-01  2.000E+01  2.000E+04 -4.026E-01
   1   12   16     1    16    2.0558E+05 -8.2486E+03   2.1383E+05  0.000E+00  0.000E+00  0.000E+00  4.13278E+01  2.256E-01  2.000E+01  2.000E+04 -4.124E-01
   1   12   17     1    17    2.1383E+05 -5.9212E+03   2.1975E+05  0.000E+00  0.000E+00  0.000E+00  4.08551E+01  2.301E-01  2.000E+01  2.000E+04 -2.961E-01
   1   12   18     1    18    2.1975E+05 -5.8264E+03   2.2557E+05  0.000E+00  0.000E+00  0.000E+00  4.03816E+01  2.338E-01  2.000E+01  2.000E+04 -2.913E-01
   1   12   19     1    19    2.2557E+05 -7.3559E+03   2.3293E+05  0.000E+00  0.000E+00  0.000E+00  3.99084E+01  2.380E-01  2.000E+01  2.000E+04 -3.678E-01
   1   13   20     1    20    2.3293E+05 -6.4541E+03   2.3938E+05  0.000E+00  0.000E+00  0.000E+00  3.94354E+01  2.422E-01  2.000E+01  2.000E+04 -3.227E-01
   1   14   21     1    21    2.3938E+05 -5.5858E+03   2.4497E+05  0.000E+00  0.000E+00  0.000E+00  3.89618E+01  2.459E-01  2.000E+01  2.000E+04 -2.793E-01
   1   14   22     1    22    2.4497E+05  4.4008E+03   2.4057E+05  0.000E+00  0.000E+00  0.000E+00  3.84849E+01  2.463E-01  2.000E+01  2.000E+04  2.200E-01
   1    9   30     2     1    5.0000E+04 -4.9964E+03   5.4996E+04  0.000E+00  0.000E+00  0.000E+00  4.02443E+01  1.193E-01  2.000E+01  2.000E+04 -2.498E-01
   1    9   29     2     2    5.4996E+04 -5.2428E+03   6.0239E+04  0.000E+00  0.000E+00  0.000E+00  4.00012E+01  1.262E-01  2.000E+01  2.000E+04 -2.621E-01
   1    9   28     2     3    6.0239E+04 -5.4566E+03   6.5696E+04  0.000E+00  0.000E+00  0.000E+00  3.97581E+01  1.331E-01  2.000E+01  2.000E+04 -2.728E-01
   1    9   27     2     4    6.5696E+04 -8.2943E+03   7.3990E+04  0.000E+00  0.000E+00  0.000E+00  3.95166E+01  1.416E-01  2.000E+01  2.000E+04 -4.147E-01
   1   10   26     2     5    7.3990E+04 -6.9445E+03   8.0935E+04  0.000E+00  0.000E+00  0.000E+00  3.92757E+01  1.507E-01  2.000E+01  2.000E+04 -3.472E-01
   1   11   25     2     6    8.0935E+04 -6.0461E+03   8.6981E+04  0.000E+00  0.000E+00  0.000E+00  3.90331E+01  1.581E-01  2.000E+01  2.000E+04 -3.023E-01
   1   12   24     2     7    8.6981E+04 -4.9418E+03   9.1923E+04  0.000E+00  0.000E+00  0.000E+00  3.87893E+01  1.643E-01  2.000E+01  2.000E+04 -2.471E-01
   1   13   23     2     8    9.1923E+04 -3.5479E+03   9.5470E+04  0.000E+00  0.000E+00  0.000E+00  3.85439E+01  1.689E-01  2.000E+01  2.000E+04 -1.774E-01
   1   14   22     2     9    9.5470E+04  6.1183E+02   9.4859E+04  0.000E+00  0.000E+00  0.000E+00  3.82955E+01  1.705E-01  2.000E+01  2.000E+04  3.059E-02
   1   14   22     3     1    3.3543E+05 -9.1835E+03   3.4461E+05  0.000E+00  0.000E+00  0.000E+00  3.78057E+01  2.502E-01  2.000E+01  2.000E+04 -4.592E-01
   1   15   23     3     2    3.4461E+05 -6.0476E+03   3.5066E+05  0.000E+00  0.000E+00  0.000E+00  3.69202E+01  2.535E-01  2.000E+01  2.000E+04 -3.024E-01
   1   15   24     3     3    3.5066E+05 -4.3719E+03   3.5503E+05  0.000E+00  0.000E+00  0.000E+00  3.60335E+01  2.558E-01  2.000E+01  2.000E+04 -2.186E-01
   1   15   25     3     4    3.5503E+05 -4.3601E+03   3.5939E+05  0.000E+00  0.000E+00  0.000E+00  3.51466E+01  2.577E-01  2.000E+01  2.000E+04 -2.180E-01
   1   15   26     3     5    3.5939E+05 -5.6734E+03   3.6506E+05  0.000E+00  0.000E+00  0.000E+00  3.42598E+01  2.598E-01  2.000E+01  2.000E+04 -2.837E-01
   1   16   27     3     6    3.6506E+05 -7.2938E+03   3.7236E+05  0.000E+00  0.000E+00  0.000E+00  3.33737E+01  2.626E-01  2.000E+01  2.000E+04 -3.647E-01
   1   17   28     3     7    3.7236E+05 -8.0763E+03   3.8043E+05  0.000E+00  0.000E+00  0.000E+00  3.24881E+01  2.659E-01  2.000E+01  2.000E+04 -4.038E-01
   1   18   29     3     8    3.8043E+05 -9.1263E+03   3.8956E+05  0.000E+00  0.000E+00  0.000E+00  3.16028E+01  2.695E-01  2.000E+01  2.000E+04 -4.563E-01
   1   18   30     3     9    3.8956E+05 -7.5410E+03   3.9710E+05  0.000E+00  0.000E+00  0.000E+00  3.07174E+01  2.730E-01  2.000E+01  2.000E+04 -3.770E-01



1
              HEAD IN LAYER   1 AT END OF TIME STEP   1 IN STRESS PERIOD    1
  ---------------------------------------------------------------------------

          1      2      3      4      5      6      7      8      9     10
         11     12     13     14     15     16     17     18     19     20
         21     22     23     24     25     26     27     28     29     30
 .........................................................................
   1  ****** ****** ****** ****** ****** ****** ****** ****** ****** ******
      ****** ****** ****** ****** ****** ****** ****** ****** ****** ******
      ****** ****** ****** ****** ****** ****** ****** ****** ****** ******
   2  ****** ****** ****** ****** ****** ****** ****** ****** ****** ******
      ****** ****** ****** ****** ****** ****** ****** ****** ****** ******
      ****** ****** ****** ****** ****** ****** ****** ****** ****** ******
   3  ****** ****** ****** ****** ****** ****** ****** ****** ****** ******
      ****** ****** ****** ****** ****** ****** ****** ****** ****** ******
      ****** ****** ****** ****** ****** ****** ****** ****** ****** ******
   4  ****** ****** ****** ****** ****** ****** ****** ****** ****** ******
      ****** ****** ****** ****** ****** ****** ****** ****** ****** ******
      ****** ****** ****** ****** ****** ****** ****** ****** ****** ******
   5  ****** ****** ****** ****** ****** ****** ****** ****** ****** ******
      ****** ****** ****** ****** ****** ****** ****** ****** ****** ******
      ****** ****** ****** ****** ****** ****** ****** ****** ****** ******
   6  ****** ****** ****** ****** ****** ****** ****** ****** ****** ******
      ****** ****** ****** ****** ****** ****** ****** ****** ****** ******
      ****** ****** ****** ****** ****** ****** ****** ****** ****** ******
   7  ****** ****** ****** ****** ****** ****** ****** ****** ****** ******
      ****** ****** ****** ****** ****** ****** ****** ****** ****** ******
      ****** ****** ****** ****** ****** ****** ****** ****** ****** ******
   8  ****** ****** ****** ****** ****** ****** ****** ****** ****** ******
      ****** ****** ****** ****** ****** ****** ****** ****** ****** ******
      ****** ****** ****** ****** ****** ****** ****** ****** ****** ******
   9  ****** ****** ****** ****** ****** ****** ****** ****** ****** ******
      ****** ****** ****** ****** ****** ****** ****** ****** ****** ******
      ****** ****** ****** ****** ****** ****** ****** ****** ****** ******
  10  ****** ****** ****** ****** ****** ****** ****** ****** ****** ******
      ****** ****** ****** ****** ****** ****** ****** ****** ****** ******
      ****** ****** ****** ****** ****** ****** ****** ****** ****** ******
  11  ****** ****** ****** ****** ****** ****** ****** ****** ****** ******
      ****** ****** ****** ****** ****** ****** ****** ****** ****** ******
      ****** ****** ****** ****** ****** ****** ****** ****** ****** ******
  12  ****** ****** ****** ****** ****** ****** ****** ****** ****** ******
      ****** ****** ****** ****** ****** ****** ****** ****** ****** ******
      ****** ****** ****** ****** ****** ****** ****** ****** ****** ******
  13  ****** ****** ****** ****** ****** ****** ****** ****** ****** ******
      ****** ****** ****** ****** ****** ****** ****** ****** ****** ******
      ****** ****** ****** ****** ****** ****** ****** ****** ****** ******
  14  ****** ****** ****** ****** ****** ****** ****** ****** ****** ******
      ****** ****** ****** ****** ****** ****** ****** ****** ****** ******
      ****** ****** ****** ****** ****** ****** ****** ****** ****** ******
  15  ****** ****** ****** ****** ****** ****** ****** ****** ****** ******
      ****** ****** ****** ****** ****** ****** ****** ****** ****** ******
      ****** ****** ****** ****** ****** ****** ****** ****** ****** ******
  16  ****** ****** ****** ****** ****** ****** ****** ****** ****** ******
      ****** ****** ****** ****** ****** ****** ****** ****** ****** ******
      ****** ****** ****** ****** ****** ****** ****** ****** ****** ******
  17  ****** ****** ****** ****** ****** ****** ****** ****** ****** ******
      ****** ****** ****** ****** ****** ****** ****** ****** ****** ******
      ****** ****** ****** ****** ****** ****** ****** ****** ****** ******
  18  ****** ****** ****** ****** ****** ****** ****** ****** ****** ******
      ****** ****** ****** ****** ****** ****** ****** ****** ****** ******
      ****** ****** ****** ****** ****** ****** ****** ****** ****** ******
  19  ****** ****** ****** ****** ****** ****** ****** ****** ****** ******
      ****** ****** ****** ****** ****** ****** ****** ****** ****** ******
      ****** ****** ****** ****** ****** ****** ****** ****** ****** ******
  20  ****** ****** ****** ****** ****** ****** ****** ****** ****** ******
      ****** ****** ****** ****** ****** ****** ****** ****** ****** ******
      ****** ****** ****** ****** ****** ****** ****** ****** ****** ******
  21  ****** ****** ****** ****** ****** ****** ****** ****** ****** ******
      ****** ****** ****** ****** ****** ****** ****** ****** ****** ******
      ****** ****** ****** ****** ****** ****** ****** ****** ****** ******
  22  ****** ****** ****** ****** ****** ****** ****** ****** ****** ******
      ****** ****** ****** ****** ****** ****** ****** ****** ****** ******
      ****** ****** ****** ****** ****** ****** ****** ****** ****** ******
  23  ****** ****** ****** ****** ****** ****** ****** ****** ****** ******
      ****** ****** ****** ****** ****** ****** ****** ****** ****** ******
      ****** ****** ****** ****** ****** ****** ****** ****** ****** ******
  24  ****** ****** ****** ****** ****** ****** ****** ****** ****** ******
      ****** ****** ****** ****** ****** ****** ****** ****** ****** ******
      ****** ****** ****** ****** ****** ****** ****** ****** ****** ******
  25  ****** ****** ****** ****** ****** ****** ****** ****** ****** ******
      ****** ****** ****** ****** ****** ****** ****** ****** ****** ******
      ****** ****** ****** ****** ****** ****** ****** ****** ****** ******

 HEAD WILL BE SAVED ON UNIT   51 AT END OF TIME STEP    1, STRESS PERIOD    1
1
  VOLUMETRIC BUDGET FOR ENTIRE MODEL AT END OF TIME STEP    1, STRESS PERIOD   1
  ------------------------------------------------------------------------------

     CUMULATIVE VOLUMES      L**3       RATES FOR THIS TIME STEP      L**3/T
     ------------------                 ------------------------

           IN:                                      IN:
           ---                                      ---
             STORAGE =    17890253.8219               STORAGE =      194459.2807
       CONSTANT HEAD =    11559617.9739         CONSTANT HEAD =      125648.0215
               WELLS =           0.0000                 WELLS =           0.0000
            RECHARGE =     1269600.0000              RECHARGE =       13800.0000
      STREAM LEAKAGE =      461162.9803        STREAM LEAKAGE =        5012.6411

            TOTAL IN =    31180634.7762              TOTAL IN =      338919.9432

          OUT:                                     OUT:
          ----                                     ----
             STORAGE =           0.0000               STORAGE =           0.0000
       CONSTANT HEAD =           0.0000         CONSTANT HEAD =           0.0000
               WELLS =     7986142.5476                 WELLS =       86805.8973
            RECHARGE =           0.0000              RECHARGE =           0.0000
      STREAM LEAKAGE =    23194492.3686        STREAM LEAKAGE =      252114.0475

           TOTAL OUT =    31180634.9162             TOTAL OUT =      338919.9447

            IN - OUT =          -0.1400              IN - OUT =      -1.5222E-03

 PERCENT DISCREPANCY =          -0.00     PERCENT DISCREPANCY =          -0.00






         TIME SUMMARY AT END OF TIME STEP    1 IN STRESS PERIOD    1
                    SECONDS     MINUTES      HOURS       DAYS        YEARS
                    -----------------------------------------------------------
   TIME STEP LENGTH 7.94880E+06 1.32480E+05  2208.0      92.000     0.25188    
 STRESS PERIOD TIME 7.94880E+06 1.32480E+05  2208.0      92.000     0.25188    
         TOTAL TIME 7.94880E+06 1.32480E+05  2208.0      92.000     0.25188    
1
1
                            STRESS PERIOD NO.    2, LENGTH =   91.00000    
                            -----------------------------------------------

                              NUMBER OF TIME STEPS =     1

                               MULTIPLIER FOR DELT =     1.500

                            INITIAL TIME STEP SIZE =   91.00000    

 WELL NO.  LAYER   ROW   COL   STRESS RATE         
 --------------------------------------------------
      1      1      5     14     -0.2595E+05
      2      1      4     17     -0.2695E+05
      3      1      3     26     -0.3390E+05

      3 WELLS

                 RECHARGE =  2.000000E-03

 REUSING STREAM SEGMENT DATA FROM LAST STRESS PERIOD
 
 SOLVING FOR HEAD 


     7 CALLS TO PCG ROUTINE FOR TIME STEP   1 IN STRESS PERIOD    2
    27 TOTAL ITERATIONS

 OUTPUT CONTROL FOR STRESS PERIOD    2   TIME STEP    1
    SAVE BUDGET
    SAVE HEAD FOR ALL LAYERS
    PRINT HEAD FOR ALL LAYERS
 UBDSV2 SAVING "STREAMFLOW OUT  " ON UNIT  50 AT TIME STEP  1, STRESS PERIOD   2



 STREAM LISTING     PERIOD      2   STEP        1

 LAYER ROW COL. STREAM  RCH.  FLOW INTO     FLOW TO   FLOW OUT OF   OVRLND.     DIRECT     STREAM       STREAM     STREAM     STREAM   STREAMBED  STREAMBED
                SEG.NO.  NO.  STRM. RCH.    AQUIFER    STRM. RCH.    RUNOFF     PRECIP       ET          HEAD       DEPTH      WIDTH   CONDCTNC.   GRADIENT

   1   13    1     1     1    1.0000E+05 -3.7194E+03   1.0372E+05  0.000E+00  0.000E+00  0.000E+00  4.84076E+01  1.463E-01  2.000E+01  2.000E+04 -1.860E-01
   1   13    2     1     2    1.0372E+05 -5.9534E+03   1.0967E+05  0.000E+00  0.000E+00  0.000E+00  4.79345E+01  1.504E-01  2.000E+01  2.000E+04 -2.977E-01
   1   14    3     1     3    1.0967E+05 -4.9767E+03   1.1465E+05  0.000E+00  0.000E+00  0.000E+00  4.74618E+01  1.550E-01  2.000E+01  2.000E+04 -2.488E-01
   1   15    4     1     4    1.1465E+05 -4.8596E+03   1.1951E+05  0.000E+00  0.000E+00  0.000E+00  4.69886E+01  1.590E-01  2.000E+01  2.000E+04 -2.430E-01
   1   16    5     1     5    1.1951E+05 -5.1289E+03   1.2464E+05  0.000E+00  0.000E+00  0.000E+00  4.65153E+01  1.630E-01  2.000E+01  2.000E+04 -2.564E-01
   1   16    6     1     6    1.2464E+05 -4.0169E+03   1.2865E+05  0.000E+00  0.000E+00  0.000E+00  4.60417E+01  1.667E-01  2.000E+01  2.000E+04 -2.008E-01
   1   16    7     1     7    1.2865E+05 -4.0865E+03   1.3274E+05  0.000E+00  0.000E+00  0.000E+00  4.55676E+01  1.699E-01  2.000E+01  2.000E+04 -2.043E-01
   1   16    8     1     8    1.3274E+05 -4.1216E+03   1.3686E+05  0.000E+00  0.000E+00  0.000E+00  4.50935E+01  1.730E-01  2.000E+01  2.000E+04 -2.061E-01
   1   16    9     1     9    1.3686E+05 -4.1084E+03   1.4097E+05  0.000E+00  0.000E+00  0.000E+00  4.46194E+01  1.762E-01  2.000E+01  2.000E+04 -2.054E-01
   1   16   10     1    10    1.4097E+05 -4.0571E+03   1.4503E+05  0.000E+00  0.000E+00  0.000E+00  4.41452E+01  1.793E-01  2.000E+01  2.000E+04 -2.029E-01
   1   16   11     1    11    1.4503E+05 -4.0116E+03   1.4904E+05  0.000E+00  0.000E+00  0.000E+00  4.36709E+01  1.823E-01  2.000E+01  2.000E+04 -2.006E-01
   1   16   12     1    12    1.4904E+05 -5.4200E+03   1.5446E+05  0.000E+00  0.000E+00  0.000E+00  4.31971E+01  1.858E-01  2.000E+01  2.000E+04 -2.710E-01
   1   15   13     1    13    1.5446E+05 -5.0050E+03   1.5946E+05  0.000E+00  0.000E+00  0.000E+00  4.27237E+01  1.896E-01  2.000E+01  2.000E+04 -2.503E-01
   1   14   14     1    14    1.5946E+05 -4.8584E+03   1.6432E+05  0.000E+00  0.000E+00  0.000E+00  4.22500E+01  1.931E-01  2.000E+01  2.000E+04 -2.429E-01
   1   13   15     1    15    1.6432E+05 -4.7274E+03   1.6905E+05  0.000E+00  0.000E+00  0.000E+00  4.17761E+01  1.965E-01  2.000E+01  2.000E+04 -2.364E-01
   1   12   16     1    16    1.6905E+05 -4.9869E+03   1.7404E+05  0.000E+00  0.000E+00  0.000E+00  4.13022E+01  2.000E-01  2.000E+01  2.000E+04 -2.493E-01
   1   12   17     1    17    1.7404E+05 -3.4275E+03   1.7747E+05  0.000E+00  0.000E+00  0.000E+00  4.08279E+01  2.029E-01  2.000E+01  2.000E+04 -1.714E-01
   1   12   18     1    18    1.7747E+05 -3.3718E+03   1.8084E+05  0.000E+00  0.000E+00  0.000E+00  4.03530E+01  2.052E-01  2.000E+01  2.000E+04 -1.686E-01
   1   12   19     1    19    1.8084E+05 -4.3541E+03   1.8519E+05  0.000E+00  0.000E+00  0.000E+00  3.98783E+01  2.079E-01  2.000E+01  2.000E+04 -2.177E-01
   1   13   20     1    20    1.8519E+05 -3.5971E+03   1.8879E+05  0.000E+00  0.000E+00  0.000E+00  3.94038E+01  2.106E-01  2.000E+01  2.000E+04 -1.799E-01
   1   14   21     1    21    1.8879E+05 -3.2244E+03   1.9201E+05  0.000E+00  0.000E+00  0.000E+00  3.89288E+01  2.129E-01  2.000E+01  2.000E+04 -1.612E-01
   1   14   22     1    22    1.9201E+05  4.9745E+03   1.8704E+05  0.000E+00  0.000E+00  0.000E+00  3.84509E+01  2.123E-01  2.000E+01  2.000E+04  2.487E-01
   1    9   30     2     1    5.0000E+04 -2.6308E+03   5.2631E+04  0.000E+00  0.000E+00  0.000E+00  4.02427E+01  1.177E-01  2.000E+01  2.000E+04 -1.315E-01
   1    9   29     2     2    5.2631E+04 -2.8866E+03   5.5517E+04  0.000E+00  0.000E+00  0.000E+00  3.99964E+01  1.214E-01  2.000E+01  2.000E+04 -1.443E-01
   1    9   28     2     3    5.5517E+04 -3.1140E+03   5.8631E+04  0.000E+00  0.000E+00  0.000E+00  3.97504E+01  1.254E-01  2.000E+01  2.000E+04 -1.557E-01
   1    9   27     2     4    5.8631E+04 -5.3106E+03   6.3942E+04  0.000E+00  0.000E+00  0.000E+00  3.95059E+01  1.309E-01  2.000E+01  2.000E+04 -2.655E-01
   1   10   26     2     5    6.3942E+04 -3.6666E+03   6.7609E+04  0.000E+00  0.000E+00  0.000E+00  3.92616E+01  1.366E-01  2.000E+01  2.000E+04 -1.833E-01
   1   11   25     2     6    6.7609E+04 -2.8713E+03   7.0480E+04  0.000E+00  0.000E+00  0.000E+00  3.90156E+01  1.406E-01  2.000E+01  2.000E+04 -1.436E-01
   1   12   24     2     7    7.0480E+04 -2.1039E+03   7.2584E+04  0.000E+00  0.000E+00  0.000E+00  3.87686E+01  1.436E-01  2.000E+01  2.000E+04 -1.052E-01
   1   13   23     2     8    7.2584E+04 -1.3000E+03   7.3884E+04  0.000E+00  0.000E+00  0.000E+00  3.85207E+01  1.457E-01  2.000E+01  2.000E+04 -6.500E-02
   1   14   22     2     9    7.3884E+04  1.3688E+03   7.2515E+04  0.000E+00  0.000E+00  0.000E+00  3.82706E+01  1.456E-01  2.000E+01  2.000E+04  6.844E-02
   1   14   22     3     1    2.5955E+05 -8.6359E+03   2.6819E+05  0.000E+00  0.000E+00  0.000E+00  3.77704E+01  2.148E-01  2.000E+01  2.000E+04 -4.318E-01
   1   15   23     3     2    2.6819E+05 -3.9760E+03   2.7216E+05  0.000E+00  0.000E+00  0.000E+00  3.68846E+01  2.179E-01  2.000E+01  2.000E+04 -1.988E-01
   1   15   24     3     3    2.7216E+05 -2.6819E+03   2.7485E+05  0.000E+00  0.000E+00  0.000E+00  3.59973E+01  2.195E-01  2.000E+01  2.000E+04 -1.341E-01
   1   15   25     3     4    2.7485E+05 -2.5326E+03   2.7738E+05  0.000E+00  0.000E+00  0.000E+00  3.51097E+01  2.208E-01  2.000E+01  2.000E+04 -1.266E-01
   1   15   26     3     5    2.7738E+05 -3.0686E+03   2.8045E+05  0.000E+00  0.000E+00  0.000E+00  3.42221E+01  2.221E-01  2.000E+01  2.000E+04 -1.534E-01
   1   16   27     3     6    2.8045E+05 -4.2686E+03   2.8472E+05  0.000E+00  0.000E+00  0.000E+00  3.33350E+01  2.239E-01  2.000E+01  2.000E+04 -2.134E-01
   1   17   28     3     7    2.8472E+05 -5.1052E+03   2.8982E+05  0.000E+00  0.000E+00  0.000E+00  3.24483E+01  2.261E-01  2.000E+01  2.000E+04 -2.553E-01
   1   18   29     3     8    2.8982E+05 -6.6973E+03   2.9652E+05  0.000E+00  0.000E+00  0.000E+00  3.15622E+01  2.289E-01  2.000E+01  2.000E+04 -3.349E-01
   1   18   30     3     9    2.9652E+05 -5.4758E+03   3.0199E+05  0.000E+00  0.000E+00  0.000E+00  3.06761E+01  2.317E-01  2.000E+01  2.000E+04 -2.738E-01



1
              HEAD IN LAYER   1 AT END OF TIME STEP   1 IN STRESS PERIOD    2
  ---------------------------------------------------------------------------

          1      2      3      4      5      6      7      8      9     10
         11     12     13     14     15     16     17     18     19     20
         21     22     23     24     25     26     27     28     29     30
 .........................................................................
   1  ****** ****** ****** ****** ****** ****** ****** ****** ****** ******
      ****** ****** ****** ****** ****** ****** ****** ****** ****** ******
      ****** ****** ****** ****** ****** ****** ****** ****** ****** ******
   2  ****** ****** ****** ****** ****** ****** ****** ****** ****** ******
      ****** ****** ****** ****** ****** ****** ****** ****** ****** ******
      ****** ****** ****** ****** ****** ****** ****** ****** ****** ******
   3  ****** ****** ****** ****** ****** ****** ****** ****** ****** ******
      ****** ****** ****** ****** ****** ****** ****** ****** ****** ******
      ****** ****** ****** ****** ****** ****** ****** ****** ****** ******
   4  ****** ****** ****** ****** ****** ****** ****** ****** ****** ******
      ****** ****** ****** ****** ****** ****** ****** ****** ****** ******
      ****** ****** ****** ****** ****** ****** ****** ****** ****** ******
   5  ****** ****** ****** ****** ****** ****** ****** ****** ****** ******
      ****** ****** ****** ****** ****** ****** ****** ****** ****** ******
      ****** ****** ****** ****** ****** ****** ****** ****** ****** ******
   6  ****** ****** ****** ****** ****** ****** ****** ****** ****** ******
      ****** ****** ****** ****** ****** ****** ****** ****** ****** ******
      ****** ****** ****** ****** ****** ****** ****** ****** ****** ******
   7  ****** ****** ****** ****** ****** ****** ****** ****** ****** ******
      ****** ****** ****** ****** ****** ****** ****** ****** ****** ******
      ****** ****** ****** ****** ****** ****** ****** ****** ****** ******
   8  ****** ****** ****** ****** ****** ****** ****** ****** ****** ******
      ****** ****** ****** ****** ****** ****** ****** ****** ****** ******
      ****** ****** ****** ****** ****** ****** ****** ****** ****** ******
   9  ****** ****** ****** ****** ****** ****** ****** ****** ****** ******
      ****** ****** ****** ****** ****** ****** ****** ****** ****** ******
      ****** ****** ****** ****** ****** ****** ****** ****** ****** ******
  10  ****** ****** ****** ****** ****** ****** ****** ****** ****** ******
      ****** ****** ****** ****** ****** ****** ****** ****** ****** ******
      ****** ****** ****** ****** ****** ****** ****** ****** ****** ******
  11  ****** ****** ****** ****** ****** ****** ****** ****** ****** ******
      ****** ****** ****** ****** ****** ****** ****** ****** ****** ******
      ****** ****** ****** ****** ****** ****** ****** ****** ****** ******
  12  ****** ****** ****** ****** ****** ****** ****** ****** ****** ******
      ****** ****** ****** ****** ****** ****** ****** ****** ****** ******
      ****** ****** ****** ****** ****** ****** ****** ****** ****** ******
  13  ****** ****** ****** ****** ****** ****** ****** ****** ****** ******
      ****** ****** ****** ****** ****** ****** ****** ****** ****** ******
      ****** ****** ****** ****** ****** ****** ****** ****** ****** ******
  14  ****** ****** ****** ****** ****** ****** ****** ****** ****** ******
      ****** ****** ****** ****** ****** ****** ****** ****** ****** ******
      ****** ****** ****** ****** ****** ****** ****** ****** ****** ******
  15  ****** ****** ****** ****** ****** ****** ****** ****** ****** ******
      ****** ****** ****** ****** ****** ****** ****** ****** ****** ******
      ****** ****** ****** ****** ****** ****** ****** ****** ****** ******
  16  ****** ****** ****** ****** ****** ****** ****** ****** ****** ******
      ****** ****** ****** ****** ****** ****** ****** ****** ****** ******
      ****** ****** ****** ****** ****** ****** ****** ****** ****** ******
  17  ****** ****** ****** ****** ****** ****** ****** ****** ****** ******
      ****** ****** ****** ****** ****** ****** ****** ****** ****** ******
      ****** ****** ****** ****** ****** ****** ****** ****** ****** ******
  18  ****** ****** ****** ****** ****** ****** ****** ****** ****** ******
      ****** ****** ****** ****** ****** ****** ****** ****** ****** ******
      ****** ****** ****** ****** ****** ****** ****** ****** ****** ******
  19  ****** ****** ****** ****** ****** ****** ****** ****** ****** ******
      ****** ****** ****** ****** ****** ****** ****** ****** ****** ******
      ****** ****** ****** ****** ****** ****** ****** ****** ****** ******
  20  ****** ****** ****** ****** ****** ****** ****** ****** ****** ******
      ****** ****** ****** ****** ****** ****** ****** ****** ****** ******
      ****** ****** ****** ****** ****** ****** ****** ****** ****** ******
  21  ****** ****** ****** ****** ****** ****** ****** ****** ****** ******
      ****** ****** ****** ****** ****** ****** ****** ****** ****** ******
      ****** ****** ****** ****** ****** ****** ****** ****** ****** ******
  22  ****** ****** ****** ****** ****** ****** ****** ****** ****** ******
      ****** ****** ****** ****** ****** ****** ****** ****** ****** ******
      ****** ****** ****** ****** ****** ****** ****** ****** ****** ******
  23  ****** ****** ****** ****** ****** ****** ****** ****** ****** ******
      ****** ****** ****** ****** ****** ****** ****** ****** ****** ******
      ****** ****** ****** ****** ****** ****** ****** ****** ****** ******
  24  ****** ****** ****** ****** ****** ****** ****** ****** ****** ******
      ****** ****** ****** ****** ****** ****** ****** ****** ****** ******
      ****** ****** ****** ****** ****** ****** ****** ****** ****** ******
  25  ****** ****** ****** ****** ****** ****** ****** ****** ****** ******
      ****** ****** ****** ****** ****** ****** ****** ****** ****** ******
      ****** ****** ****** ****** ****** ****** ****** ****** ****** ******

 HEAD WILL BE SAVED ON UNIT   51 AT END OF TIME STEP    1, STRESS PERIOD    2
1
  VOLUMETRIC BUDGET FOR ENTIRE MODEL AT END OF TIME STEP    1, STRESS PERIOD   2
  ------------------------------------------------------------------------------

     CUMULATIVE VOLUMES      L**3       RATES FOR THIS TIME STEP      L**3/T
     ------------------                 ------------------------

           IN:                                      IN:
           ---                                      ---
             STORAGE =    21226916.8088               STORAGE =       36666.6262
       CONSTANT HEAD =    24930599.7179         CONSTANT HEAD =      146933.8653
               WELLS =           0.0000                 WELLS =           0.0000
            RECHARGE =     6292800.0000              RECHARGE =       55200.0000
      STREAM LEAKAGE =     1038399.4269        STREAM LEAKAGE =        6343.2577

            TOTAL IN =    53488715.9537              TOTAL IN =      245143.7492

          OUT:                                     OUT:
          ----                                     ----
             STORAGE =           0.0000               STORAGE =           0.0000
       CONSTANT HEAD =           0.0000         CONSTANT HEAD =           0.0000
               WELLS =    15885479.1980                 WELLS =       86805.8973
            RECHARGE =           0.0000              RECHARGE =           0.0000
      STREAM LEAKAGE =    37603237.3533        STREAM LEAKAGE =      158337.8570

           TOTAL OUT =    53488716.5512             TOTAL OUT =      245143.7542

            IN - OUT =          -0.5976              IN - OUT =      -5.0277E-03

 PERCENT DISCREPANCY =          -0.00     PERCENT DISCREPANCY =          -0.00






         TIME SUMMARY AT END OF TIME STEP    1 IN STRESS PERIOD    2
                    SECONDS     MINUTES      HOURS       DAYS        YEARS
                    -----------------------------------------------------------
   TIME STEP LENGTH 7.86240E+06 1.31040E+05  2184.0      91.000     0.24914    
 STRESS PERIOD TIME 7.86240E+06 1.31040E+05  2184.0      91.000     0.24914    
         TOTAL TIME 1.58112E+07 2.63520E+05  4392.0      183.00     0.50103    
1
1
                            STRESS PERIOD NO.    3, LENGTH =   91.00000    
                            -----------------------------------------------

                              NUMBER OF TIME STEPS =     1

                               MULTIPLIER FOR DELT =     1.500

                            INITIAL TIME STEP SIZE =   91.00000    

 WELL NO.  LAYER   ROW   COL   STRESS RATE         
 --------------------------------------------------
      1      1      5     14     -0.2595E+05
      2      1      4     17     -0.2695E+05
      3      1      3     26     -0.3390E+05

      3 WELLS

                 RECHARGE =   0.00000    

 REUSING STREAM SEGMENT DATA FROM LAST STRESS PERIOD
 
 SOLVING FOR HEAD 


     7 CALLS TO PCG ROUTINE FOR TIME STEP   1 IN STRESS PERIOD    3
    27 TOTAL ITERATIONS

 OUTPUT CONTROL FOR STRESS PERIOD    3   TIME STEP    1
    SAVE BUDGET
    SAVE HEAD FOR ALL LAYERS
    PRINT HEAD FOR ALL LAYERS
 UBDSV2 SAVING "STREAMFLOW OUT  " ON UNIT  50 AT TIME STEP  1, STRESS PERIOD   3



 STREAM LISTING     PERIOD      3   STEP        1

 LAYER ROW COL. STREAM  RCH.  FLOW INTO     FLOW TO   FLOW OUT OF   OVRLND.     DIRECT     STREAM       STREAM     STREAM     STREAM   STREAMBED  STREAMBED
                SEG.NO.  NO.  STRM. RCH.    AQUIFER    STRM. RCH.    RUNOFF     PRECIP       ET          HEAD       DEPTH      WIDTH   CONDCTNC.   GRADIENT

   1   13    1     1     1    1.0000E+05 -2.7585E+03   1.0276E+05  0.000E+00  0.000E+00  0.000E+00  4.84072E+01  1.458E-01  2.000E+01  2.000E+04 -1.379E-01
   1   13    2     1     2    1.0276E+05 -4.6156E+03   1.0737E+05  0.000E+00  0.000E+00  0.000E+00  4.79331E+01  1.490E-01  2.000E+01  2.000E+04 -2.308E-01
   1   14    3     1     3    1.0737E+05 -3.6726E+03   1.1105E+05  0.000E+00  0.000E+00  0.000E+00  4.74593E+01  1.525E-01  2.000E+01  2.000E+04 -1.836E-01
   1   15    4     1     4    1.1105E+05 -3.5932E+03   1.1464E+05  0.000E+00  0.000E+00  0.000E+00  4.69851E+01  1.555E-01  2.000E+01  2.000E+04 -1.797E-01
   1   16    5     1     5    1.1464E+05 -4.0111E+03   1.1865E+05  0.000E+00  0.000E+00  0.000E+00  4.65109E+01  1.587E-01  2.000E+01  2.000E+04 -2.006E-01
   1   16    6     1     6    1.1865E+05 -3.1177E+03   1.2177E+05  0.000E+00  0.000E+00  0.000E+00  4.60365E+01  1.615E-01  2.000E+01  2.000E+04 -1.559E-01
   1   16    7     1     7    1.2177E+05 -3.1583E+03   1.2493E+05  0.000E+00  0.000E+00  0.000E+00  4.55618E+01  1.641E-01  2.000E+01  2.000E+04 -1.579E-01
   1   16    8     1     8    1.2493E+05 -3.1750E+03   1.2810E+05  0.000E+00  0.000E+00  0.000E+00  4.50870E+01  1.666E-01  2.000E+01  2.000E+04 -1.588E-01
   1   16    9     1     9    1.2810E+05 -3.1570E+03   1.3126E+05  0.000E+00  0.000E+00  0.000E+00  4.46122E+01  1.691E-01  2.000E+01  2.000E+04 -1.579E-01
   1   16   10     1    10    1.3126E+05 -3.1148E+03   1.3437E+05  0.000E+00  0.000E+00  0.000E+00  4.41374E+01  1.715E-01  2.000E+01  2.000E+04 -1.557E-01
   1   16   11     1    11    1.3437E+05 -3.0894E+03   1.3746E+05  0.000E+00  0.000E+00  0.000E+00  4.36625E+01  1.739E-01  2.000E+01  2.000E+04 -1.545E-01
   1   16   12     1    12    1.3746E+05 -4.2464E+03   1.4171E+05  0.000E+00  0.000E+00  0.000E+00  4.31881E+01  1.767E-01  2.000E+01  2.000E+04 -2.123E-01
   1   15   13     1    13    1.4171E+05 -3.6457E+03   1.4536E+05  0.000E+00  0.000E+00  0.000E+00  4.27138E+01  1.797E-01  2.000E+01  2.000E+04 -1.823E-01
   1   14   14     1    14    1.4536E+05 -3.4195E+03   1.4877E+05  0.000E+00  0.000E+00  0.000E+00  4.22391E+01  1.823E-01  2.000E+01  2.000E+04 -1.710E-01
   1   13   15     1    15    1.4877E+05 -3.2625E+03   1.5204E+05  0.000E+00  0.000E+00  0.000E+00  4.17643E+01  1.848E-01  2.000E+01  2.000E+04 -1.631E-01
   1   12   16     1    16    1.5204E+05 -3.4635E+03   1.5550E+05  0.000E+00  0.000E+00  0.000E+00  4.12895E+01  1.873E-01  2.000E+01  2.000E+04 -1.732E-01
   1   12   17     1    17    1.5550E+05 -2.3649E+03   1.5787E+05  0.000E+00  0.000E+00  0.000E+00  4.08144E+01  1.894E-01  2.000E+01  2.000E+04 -1.182E-01
   1   12   18     1    18    1.5787E+05 -2.3420E+03   1.6021E+05  0.000E+00  0.000E+00  0.000E+00  4.03388E+01  1.911E-01  2.000E+01  2.000E+04 -1.171E-01
   1   12   19     1    19    1.6021E+05 -3.0790E+03   1.6329E+05  0.000E+00  0.000E+00  0.000E+00  3.98635E+01  1.930E-01  2.000E+01  2.000E+04 -1.539E-01
   1   13   20     1    20    1.6329E+05 -2.4914E+03   1.6578E+05  0.000E+00  0.000E+00  0.000E+00  3.93882E+01  1.950E-01  2.000E+01  2.000E+04 -1.246E-01
   1   14   21     1    21    1.6578E+05 -2.2486E+03   1.6803E+05  0.000E+00  0.000E+00  0.000E+00  3.89126E+01  1.967E-01  2.000E+01  2.000E+04 -1.124E-01
   1   14   22     1    22    1.6803E+05  5.1433E+03   1.6288E+05  0.000E+00  0.000E+00  0.000E+00  3.84343E+01  1.957E-01  2.000E+01  2.000E+04  2.572E-01
   1    9   30     2     1    5.0000E+04 -1.7833E+03   5.1783E+04  0.000E+00  0.000E+00  0.000E+00  4.02421E+01  1.171E-01  2.000E+01  2.000E+04 -8.916E-02
   1    9   29     2     2    5.1783E+04 -2.0446E+03   5.3828E+04  0.000E+00  0.000E+00  0.000E+00  3.99947E+01  1.197E-01  2.000E+01  2.000E+04 -1.022E-01
   1    9   28     2     3    5.3828E+04 -2.2704E+03   5.6098E+04  0.000E+00  0.000E+00  0.000E+00  3.97476E+01  1.226E-01  2.000E+01  2.000E+04 -1.135E-01
   1    9   27     2     4    5.6098E+04 -4.1136E+03   6.0212E+04  0.000E+00  0.000E+00  0.000E+00  3.95019E+01  1.269E-01  2.000E+01  2.000E+04 -2.057E-01
   1   10   26     2     5    6.0212E+04 -2.4529E+03   6.2665E+04  0.000E+00  0.000E+00  0.000E+00  3.92561E+01  1.311E-01  2.000E+01  2.000E+04 -1.226E-01
   1   11   25     2     6    6.2665E+04 -1.7252E+03   6.4390E+04  0.000E+00  0.000E+00  0.000E+00  3.90088E+01  1.338E-01  2.000E+01  2.000E+04 -8.626E-02
   1   12   24     2     7    6.4390E+04 -1.1248E+03   6.5515E+04  0.000E+00  0.000E+00  0.000E+00  3.87606E+01  1.356E-01  2.000E+01  2.000E+04 -5.624E-02
   1   13   23     2     8    6.5515E+04 -5.8362E+02   6.6098E+04  0.000E+00  0.000E+00  0.000E+00  3.85116E+01  1.366E-01  2.000E+01  2.000E+04 -2.918E-02
   1   14   22     2     9    6.6098E+04  1.6760E+03   6.4422E+04  0.000E+00  0.000E+00  0.000E+00  3.82609E+01  1.359E-01  2.000E+01  2.000E+04  8.380E-02
   1   14   22     3     1    2.2731E+05 -8.4590E+03   2.3576E+05  0.000E+00  0.000E+00  0.000E+00  3.77542E+01  1.986E-01  2.000E+01  2.000E+04 -4.229E-01
   1   15   23     3     2    2.3576E+05 -3.1089E+03   2.3887E+05  0.000E+00  0.000E+00  0.000E+00  3.68683E+01  2.016E-01  2.000E+01  2.000E+04 -1.554E-01
   1   15   24     3     3    2.3887E+05 -2.0882E+03   2.4096E+05  0.000E+00  0.000E+00  0.000E+00  3.59807E+01  2.029E-01  2.000E+01  2.000E+04 -1.044E-01
   1   15   25     3     4    2.4096E+05 -1.9371E+03   2.4290E+05  0.000E+00  0.000E+00  0.000E+00  3.50928E+01  2.039E-01  2.000E+01  2.000E+04 -9.685E-02
   1   15   26     3     5    2.4290E+05 -2.2518E+03   2.4515E+05  0.000E+00  0.000E+00  0.000E+00  3.42050E+01  2.050E-01  2.000E+01  2.000E+04 -1.126E-01
   1   16   27     3     6    2.4515E+05 -3.2346E+03   2.4839E+05  0.000E+00  0.000E+00  0.000E+00  3.33175E+01  2.064E-01  2.000E+01  2.000E+04 -1.617E-01
   1   17   28     3     7    2.4839E+05 -4.0637E+03   2.5245E+05  0.000E+00  0.000E+00  0.000E+00  3.24304E+01  2.082E-01  2.000E+01  2.000E+04 -2.032E-01
   1   18   29     3     8    2.5245E+05 -5.7564E+03   2.5821E+05  0.000E+00  0.000E+00  0.000E+00  3.15440E+01  2.106E-01  2.000E+01  2.000E+04 -2.878E-01
   1   18   30     3     9    2.5821E+05 -4.7700E+03   2.6298E+05  0.000E+00  0.000E+00  0.000E+00  3.06577E+01  2.132E-01  2.000E+01  2.000E+04 -2.385E-01



1
              HEAD IN LAYER   1 AT END OF TIME STEP   1 IN STRESS PERIOD    3
  ---------------------------------------------------------------------------

          1      2      3      4      5      6      7      8      9     10
         11     12     13     14     15     16     17     18     19     20
         21     22     23     24     25     26     27     28     29     30
 .........................................................................
   1  ****** ****** ****** ****** ****** ****** ****** ****** ****** ******
      ****** ****** ****** ****** ****** ****** ****** ****** ****** ******
      ****** ****** ****** ****** ****** ****** ****** ****** ****** ******
   2  ****** ****** ****** ****** ****** ****** ****** ****** ****** ******
      ****** ****** ****** ****** ****** ****** ****** ****** ****** ******
      ****** ****** ****** ****** ****** ****** ****** ****** ****** ******
   3  ****** ****** ****** ****** ****** ****** ****** ****** ****** ******
      ****** ****** ****** ****** ****** ****** ****** ****** ****** ******
      ****** ****** ****** ****** ****** ****** ****** ****** ****** ******
   4  ****** ****** ****** ****** ****** ****** ****** ****** ****** ******
      ****** ****** ****** ****** ****** ****** ****** ****** ****** ******
      ****** ****** ****** ****** ****** ****** ****** ****** ****** ******
   5  ****** ****** ****** ****** ****** ****** ****** ****** ****** ******
      ****** ****** ****** ****** ****** ****** ****** ****** ****** ******
      ****** ****** ****** ****** ****** ****** ****** ****** ****** ******
   6  ****** ****** ****** ****** ****** ****** ****** ****** ****** ******
      ****** ****** ****** ****** ****** ****** ****** ****** ****** ******
      ****** ****** ****** ****** ****** ****** ****** ****** ****** ******
   7  ****** ****** ****** ****** ****** ****** ****** ****** ****** ******
      ****** ****** ****** ****** ****** ****** ****** ****** ****** ******
      ****** ****** ****** ****** ****** ****** ****** ****** ****** ******
   8  ****** ****** ****** ****** ****** ****** ****** ****** ****** ******
      ****** ****** ****** ****** ****** ****** ****** ****** ****** ******
      ****** ****** ****** ****** ****** ****** ****** ****** ****** ******
   9  ****** ****** ****** ****** ****** ****** ****** ****** ****** ******
      ****** ****** ****** ****** ****** ****** ****** ****** ****** ******
      ****** ****** ****** ****** ****** ****** ****** ****** ****** ******
  10  ****** ****** ****** ****** ****** ****** ****** ****** ****** ******
      ****** ****** ****** ****** ****** ****** ****** ****** ****** ******
      ****** ****** ****** ****** ****** ****** ****** ****** ****** ******
  11  ****** ****** ****** ****** ****** ****** ****** ****** ****** ******
      ****** ****** ****** ****** ****** ****** ****** ****** ****** ******
      ****** ****** ****** ****** ****** ****** ****** ****** ****** ******
  12  ****** ****** ****** ****** ****** ****** ****** ****** ****** ******
      ****** ****** ****** ****** ****** ****** ****** ****** ****** ******
      ****** ****** ****** ****** ****** ****** ****** ****** ****** ******
  13  ****** ****** ****** ****** ****** ****** ****** ****** ****** ******
      ****** ****** ****** ****** ****** ****** ****** ****** ****** ******
      ****** ****** ****** ****** ****** ****** ****** ****** ****** ******
  14  ****** ****** ****** ****** ****** ****** ****** ****** ****** ******
      ****** ****** ****** ****** ****** ****** ****** ****** ****** ******
      ****** ****** ****** ****** ****** ****** ****** ****** ****** ******
  15  ****** ****** ****** ****** ****** ****** ****** ****** ****** ******
      ****** ****** ****** ****** ****** ****** ****** ****** ****** ******
      ****** ****** ****** ****** ****** ****** ****** ****** ****** ******
  16  ****** ****** ****** ****** ****** ****** ****** ****** ****** ******
      ****** ****** ****** ****** ****** ****** ****** ****** ****** ******
      ****** ****** ****** ****** ****** ****** ****** ****** ****** ******
  17  ****** ****** ****** ****** ****** ****** ****** ****** ****** ******
      ****** ****** ****** ****** ****** ****** ****** ****** ****** ******
      ****** ****** ****** ****** ****** ****** ****** ****** ****** ******
  18  ****** ****** ****** ****** ****** ****** ****** ****** ****** ******
      ****** ****** ****** ****** ****** ****** ****** ****** ****** ******
      ****** ****** ****** ****** ****** ****** ****** ****** ****** ******
  19  ****** ****** ****** ****** ****** ****** ****** ****** ****** ******
      ****** ****** ****** ****** ****** ****** ****** ****** ****** ******
      ****** ****** ****** ****** ****** ****** ****** ****** ****** ******
  20  ****** ****** ****** ****** ****** ****** ****** ****** ****** ******
      ****** ****** ****** ****** ****** ****** ****** ****** ****** ******
      ****** ****** ****** ****** ****** ****** ****** ****** ****** ******
  21  ****** ****** ****** ****** ****** ****** ****** ****** ****** ******
      ****** ****** ****** ****** ****** ****** ****** ****** ****** ******
      ****** ****** ****** ****** ****** ****** ****** ****** ****** ******
  22  ****** ****** ****** ****** ****** ****** ****** ****** ****** ******
      ****** ****** ****** ****** ****** ****** ****** ****** ****** ******
      ****** ****** ****** ****** ****** ****** ****** ****** ****** ******
  23  ****** ****** ****** ****** ****** ****** ****** ****** ****** ******
      ****** ****** ****** ****** ****** ****** ****** ****** ****** ******
      ****** ****** ****** ****** ****** ****** ****** ****** ****** ******
  24  ****** ****** ****** ****** ****** ****** ****** ****** ****** ******
      ****** ****** ****** ****** ****** ****** ****** ****** ****** ******
      ****** ****** ****** ****** ****** ****** ****** ****** ****** ******
  25  ****** ****** ****** ****** ****** ****** ****** ****** ****** ******
      ****** ****** ****** ****** ****** ****** ****** ****** ****** ******
      ****** ****** ****** ****** ****** ****** ****** ****** ****** ******

 HEAD WILL BE SAVED ON UNIT   51 AT END OF TIME STEP    1, STRESS PERIOD    3
1
  VOLUMETRIC BUDGET FOR ENTIRE MODEL AT END OF TIME STEP    1, STRESS PERIOD   3
  ------------------------------------------------------------------------------

     CUMULATIVE VOLUMES      L**3       RATES FOR THIS TIME STEP      L**3/T
     ------------------                 ------------------------

           IN:                                      IN:
           ---                                      ---
             STORAGE =    23767142.1037               STORAGE =       27914.5637
       CONSTANT HEAD =    40570462.9779         CONSTANT HEAD =      171866.6292
               WELLS =           0.0000                 WELLS =           0.0000
            RECHARGE =     6292800.0000              RECHARGE =           0.0000
      STREAM LEAKAGE =     1658951.6109        STREAM LEAKAGE =        6819.2548

            TOTAL IN =    72289356.6925              TOTAL IN =      206600.4477

          OUT:                                     OUT:
          ----                                     ----
             STORAGE =           0.0000               STORAGE =           0.0000
       CONSTANT HEAD =           0.0000         CONSTANT HEAD =           0.0000
               WELLS =    23784815.8483                 WELLS =       86805.8973
            RECHARGE =           0.0000              RECHARGE =           0.0000
      STREAM LEAKAGE =    48504541.6848        STREAM LEAKAGE =      119794.5531

           TOTAL OUT =    72289357.5331             TOTAL OUT =      206600.4504

            IN - OUT =          -0.8406              IN - OUT =      -2.6704E-03

 PERCENT DISCREPANCY =          -0.00     PERCENT DISCREPANCY =          -0.00






         TIME SUMMARY AT END OF TIME STEP    1 IN STRESS PERIOD    3
                    SECONDS     MINUTES      HOURS       DAYS        YEARS
                    -----------------------------------------------------------
   TIME STEP LENGTH 7.86240E+06 1.31040E+05  2184.0      91.000     0.24914    
 STRESS PERIOD TIME 7.86240E+06 1.31040E+05  2184.0      91.000     0.24914    
         TOTAL TIME 2.36736E+07 3.94560E+05  6576.0      274.00     0.75017    
1
1
                            STRESS PERIOD NO.    4, LENGTH =   91.00000    
                            -----------------------------------------------

                              NUMBER OF TIME STEPS =     1

                               MULTIPLIER FOR DELT =     1.500

                            INITIAL TIME STEP SIZE =   91.00000    

 WELL NO.  LAYER   ROW   COL   STRESS RATE         
 --------------------------------------------------
      1      1      5     14     -0.2595E+05
      2      1      4     17     -0.2695E+05
      3      1      3     26     -0.3390E+05

      3 WELLS

                 RECHARGE =  1.000000E-03

 REUSING STREAM SEGMENT DATA FROM LAST STRESS PERIOD
 
 SOLVING FOR HEAD 


     5 CALLS TO PCG ROUTINE FOR TIME STEP   1 IN STRESS PERIOD    4
    18 TOTAL ITERATIONS

 OUTPUT CONTROL FOR STRESS PERIOD    4   TIME STEP    1
    SAVE BUDGET
    SAVE HEAD FOR ALL LAYERS
    PRINT HEAD FOR ALL LAYERS
 UBDSV2 SAVING "STREAMFLOW OUT  " ON UNIT  50 AT TIME STEP  1, STRESS PERIOD   4



 STREAM LISTING     PERIOD      4   STEP        1

 LAYER ROW COL. STREAM  RCH.  FLOW INTO     FLOW TO   FLOW OUT OF   OVRLND.     DIRECT     STREAM       STREAM     STREAM     STREAM   STREAMBED  STREAMBED
                SEG.NO.  NO.  STRM. RCH.    AQUIFER    STRM. RCH.    RUNOFF     PRECIP       ET          HEAD       DEPTH      WIDTH   CONDCTNC.   GRADIENT

   1   13    1     1     1    1.0000E+05 -2.7531E+03   1.0275E+05  0.000E+00  0.000E+00  0.000E+00  4.84072E+01  1.458E-01  2.000E+01  2.000E+04 -1.377E-01
   1   13    2     1     2    1.0275E+05 -4.5581E+03   1.0731E+05  0.000E+00  0.000E+00  0.000E+00  4.79331E+01  1.490E-01  2.000E+01  2.000E+04 -2.279E-01
   1   14    3     1     3    1.0731E+05 -3.6865E+03   1.1100E+05  0.000E+00  0.000E+00  0.000E+00  4.74593E+01  1.525E-01  2.000E+01  2.000E+04 -1.843E-01
   1   15    4     1     4    1.1100E+05 -3.6338E+03   1.1463E+05  0.000E+00  0.000E+00  0.000E+00  4.69851E+01  1.555E-01  2.000E+01  2.000E+04 -1.817E-01
   1   16    5     1     5    1.1463E+05 -4.0775E+03   1.1871E+05  0.000E+00  0.000E+00  0.000E+00  4.65109E+01  1.587E-01  2.000E+01  2.000E+04 -2.039E-01
   1   16    6     1     6    1.1871E+05 -3.1572E+03   1.2187E+05  0.000E+00  0.000E+00  0.000E+00  4.60366E+01  1.616E-01  2.000E+01  2.000E+04 -1.579E-01
   1   16    7     1     7    1.2187E+05 -3.1902E+03   1.2506E+05  0.000E+00  0.000E+00  0.000E+00  4.55619E+01  1.642E-01  2.000E+01  2.000E+04 -1.595E-01
   1   16    8     1     8    1.2506E+05 -3.2025E+03   1.2826E+05  0.000E+00  0.000E+00  0.000E+00  4.50871E+01  1.667E-01  2.000E+01  2.000E+04 -1.601E-01
   1   16    9     1     9    1.2826E+05 -3.1830E+03   1.3144E+05  0.000E+00  0.000E+00  0.000E+00  4.46124E+01  1.692E-01  2.000E+01  2.000E+04 -1.591E-01
   1   16   10     1    10    1.3144E+05 -3.1422E+03   1.3458E+05  0.000E+00  0.000E+00  0.000E+00  4.41376E+01  1.717E-01  2.000E+01  2.000E+04 -1.571E-01
   1   16   11     1    11    1.3458E+05 -3.1213E+03   1.3771E+05  0.000E+00  0.000E+00  0.000E+00  4.36627E+01  1.741E-01  2.000E+01  2.000E+04 -1.561E-01
   1   16   12     1    12    1.3771E+05 -4.2945E+03   1.4200E+05  0.000E+00  0.000E+00  0.000E+00  4.31883E+01  1.769E-01  2.000E+01  2.000E+04 -2.147E-01
   1   15   13     1    13    1.4200E+05 -3.6640E+03   1.4566E+05  0.000E+00  0.000E+00  0.000E+00  4.27140E+01  1.799E-01  2.000E+01  2.000E+04 -1.832E-01
   1   14   14     1    14    1.4566E+05 -3.4140E+03   1.4908E+05  0.000E+00  0.000E+00  0.000E+00  4.22394E+01  1.825E-01  2.000E+01  2.000E+04 -1.707E-01
   1   13   15     1    15    1.4908E+05 -3.2339E+03   1.5231E+05  0.000E+00  0.000E+00  0.000E+00  4.17646E+01  1.850E-01  2.000E+01  2.000E+04 -1.617E-01
   1   12   16     1    16    1.5231E+05 -3.3681E+03   1.5568E+05  0.000E+00  0.000E+00  0.000E+00  4.12897E+01  1.874E-01  2.000E+01  2.000E+04 -1.684E-01
   1   12   17     1    17    1.5568E+05 -2.3445E+03   1.5802E+05  0.000E+00  0.000E+00  0.000E+00  4.08145E+01  1.895E-01  2.000E+01  2.000E+04 -1.172E-01
   1   12   18     1    18    1.5802E+05 -2.3345E+03   1.6036E+05  0.000E+00  0.000E+00  0.000E+00  4.03389E+01  1.912E-01  2.000E+01  2.000E+04 -1.167E-01
   1   12   19     1    19    1.6036E+05 -3.0668E+03   1.6343E+05  0.000E+00  0.000E+00  0.000E+00  3.98636E+01  1.931E-01  2.000E+01  2.000E+04 -1.533E-01
   1   13   20     1    20    1.6343E+05 -2.5552E+03   1.6598E+05  0.000E+00  0.000E+00  0.000E+00  3.93883E+01  1.951E-01  2.000E+01  2.000E+04 -1.278E-01
   1   14   21     1    21    1.6598E+05 -2.3174E+03   1.6830E+05  0.000E+00  0.000E+00  0.000E+00  3.89128E+01  1.969E-01  2.000E+01  2.000E+04 -1.159E-01
   1   14   22     1    22    1.6830E+05  5.1111E+03   1.6319E+05  0.000E+00  0.000E+00  0.000E+00  3.84345E+01  1.959E-01  2.000E+01  2.000E+04  2.556E-01
   1    9   30     2     1    5.0000E+04 -1.8714E+03   5.1871E+04  0.000E+00  0.000E+00  0.000E+00  4.02422E+01  1.172E-01  2.000E+01  2.000E+04 -9.357E-02
   1    9   29     2     2    5.1871E+04 -2.1294E+03   5.4001E+04  0.000E+00  0.000E+00  0.000E+00  3.99949E+01  1.199E-01  2.000E+01  2.000E+04 -1.065E-01
   1    9   28     2     3    5.4001E+04 -2.3469E+03   5.6348E+04  0.000E+00  0.000E+00  0.000E+00  3.97479E+01  1.229E-01  2.000E+01  2.000E+04 -1.173E-01
   1    9   27     2     4    5.6348E+04 -4.1628E+03   6.0510E+04  0.000E+00  0.000E+00  0.000E+00  3.95022E+01  1.272E-01  2.000E+01  2.000E+04 -2.081E-01
   1   10   26     2     5    6.0510E+04 -2.5308E+03   6.3041E+04  0.000E+00  0.000E+00  0.000E+00  3.92565E+01  1.315E-01  2.000E+01  2.000E+04 -1.265E-01
   1   11   25     2     6    6.3041E+04 -1.8083E+03   6.4850E+04  0.000E+00  0.000E+00  0.000E+00  3.90093E+01  1.343E-01  2.000E+01  2.000E+04 -9.041E-02
   1   12   24     2     7    6.4850E+04 -1.2121E+03   6.6062E+04  0.000E+00  0.000E+00  0.000E+00  3.87612E+01  1.362E-01  2.000E+01  2.000E+04 -6.061E-02
   1   13   23     2     8    6.6062E+04 -6.7077E+02   6.6732E+04  0.000E+00  0.000E+00  0.000E+00  3.85124E+01  1.374E-01  2.000E+01  2.000E+04 -3.354E-02
   1   14   22     2     9    6.6732E+04  1.6558E+03   6.5077E+04  0.000E+00  0.000E+00  0.000E+00  3.82617E+01  1.367E-01  2.000E+01  2.000E+04  8.279E-02
   1   14   22     3     1    2.2826E+05 -8.4853E+03   2.3675E+05  0.000E+00  0.000E+00  0.000E+00  3.77547E+01  1.991E-01  2.000E+01  2.000E+04 -4.243E-01
   1   15   23     3     2    2.3675E+05 -3.1882E+03   2.3994E+05  0.000E+00  0.000E+00  0.000E+00  3.68688E+01  2.021E-01  2.000E+01  2.000E+04 -1.594E-01
   1   15   24     3     3    2.3994E+05 -2.1736E+03   2.4211E+05  0.000E+00  0.000E+00  0.000E+00  3.59813E+01  2.035E-01  2.000E+01  2.000E+04 -1.087E-01
   1   15   25     3     4    2.4211E+05 -2.0340E+03   2.4415E+05  0.000E+00  0.000E+00  0.000E+00  3.50934E+01  2.046E-01  2.000E+01  2.000E+04 -1.017E-01
   1   15   26     3     5    2.4415E+05 -2.3815E+03   2.4653E+05  0.000E+00  0.000E+00  0.000E+00  3.42057E+01  2.057E-01  2.000E+01  2.000E+04 -1.191E-01
   1   16   27     3     6    2.4653E+05 -3.3753E+03   2.4990E+05  0.000E+00  0.000E+00  0.000E+00  3.33182E+01  2.071E-01  2.000E+01  2.000E+04 -1.688E-01
   1   17   28     3     7    2.4990E+05 -4.2050E+03   2.5411E+05  0.000E+00  0.000E+00  0.000E+00  3.24312E+01  2.090E-01  2.000E+01  2.000E+04 -2.103E-01
   1   18   29     3     8    2.5411E+05 -5.8832E+03   2.5999E+05  0.000E+00  0.000E+00  0.000E+00  3.15448E+01  2.115E-01  2.000E+01  2.000E+04 -2.942E-01
   1   18   30     3     9    2.5999E+05 -4.8813E+03   2.6487E+05  0.000E+00  0.000E+00  0.000E+00  3.06586E+01  2.141E-01  2.000E+01  2.000E+04 -2.441E-01



1
              HEAD IN LAYER   1 AT END OF TIME STEP   1 IN STRESS PERIOD    4
  ---------------------------------------------------------------------------

          1      2      3      4      5      6      7      8      9     10
         11     12     13     14     15     16     17     18     19     20
         21     22     23     24     25     26     27     28     29     30
 .........................................................................
   1  ****** ****** ****** ****** ****** ****** ****** ****** ****** ******
      ****** ****** ****** ****** ****** ****** ****** ****** ****** ******
      ****** ****** ****** ****** ****** ****** ****** ****** ****** ******
   2  ****** ****** ****** ****** ****** ****** ****** ****** ****** ******
      ****** ****** ****** ****** ****** ****** ****** ****** ****** ******
      ****** ****** ****** ****** ****** ****** ****** ****** ****** ******
   3  ****** ****** ****** ****** ****** ****** ****** ****** ****** ******
      ****** ****** ****** ****** ****** ****** ****** ****** ****** ******
      ****** ****** ****** ****** ****** ****** ****** ****** ****** ******
   4  ****** ****** ****** ****** ****** ****** ****** ****** ****** ******
      ****** ****** ****** ****** ****** ****** ****** ****** ****** ******
      ****** ****** ****** ****** ****** ****** ****** ****** ****** ******
   5  ****** ****** ****** ****** ****** ****** ****** ****** ****** ******
      ****** ****** ****** ****** ****** ****** ****** ****** ****** ******
      ****** ****** ****** ****** ****** ****** ****** ****** ****** ******
   6  ****** ****** ****** ****** ****** ****** ****** ****** ****** ******
      ****** ****** ****** ****** ****** ****** ****** ****** ****** ******
      ****** ****** ****** ****** ****** ****** ****** ****** ****** ******
   7  ****** ****** ****** ****** ****** ****** ****** ****** ****** ******
      ****** ****** ****** ****** ****** ****** ****** ****** ****** ******
      ****** ****** ****** ****** ****** ****** ****** ****** ****** ******
   8  ****** ****** ****** ****** ****** ****** ****** ****** ****** ******
      ****** ****** ****** ****** ****** ****** ****** ****** ****** ******
      ****** ****** ****** ****** ****** ****** ****** ****** ****** ******
   9  ****** ****** ****** ****** ****** ****** ****** ****** ****** ******
      ****** ****** ****** ****** ****** ****** ****** ****** ****** ******
      ****** ****** ****** ****** ****** ****** ****** ****** ****** ******
  10  ****** ****** ****** ****** ****** ****** ****** ****** ****** ******
      ****** ****** ****** ****** ****** ****** ****** ****** ****** ******
      ****** ****** ****** ****** ****** ****** ****** ****** ****** ******
  11  ****** ****** ****** ****** ****** ****** ****** ****** ****** ******
      ****** ****** ****** ****** ****** ****** ****** ****** ****** ******
      ****** ****** ****** ****** ****** ****** ****** ****** ****** ******
  12  ****** ****** ****** ****** ****** ****** ****** ****** ****** ******
      ****** ****** ****** ****** ****** ****** ****** ****** ****** ******
      ****** ****** ****** ****** ****** ****** ****** ****** ****** ******
  13  ****** ****** ****** ****** ****** ****** ****** ****** ****** ******
      ****** ****** ****** ****** ****** ****** ****** ****** ****** ******
      ****** ****** ****** ****** ****** ****** ****** ****** ****** ******
  14  ****** ****** ****** ****** ****** ****** ****** ****** ****** ******
      ****** ****** ****** ****** ****** ****** ****** ****** ****** ******
      ****** ****** ****** ****** ****** ****** ****** ****** ****** ******
  15  ****** ****** ****** ****** ****** ****** ****** ****** ****** ******
      ****** ****** ****** ****** ****** ****** ****** ****** ****** ******
      ****** ****** ****** ****** ****** ****** ****** ****** ****** ******
  16  ****** ****** ****** ****** ****** ****** ****** ****** ****** ******
      ****** ****** ****** ****** ****** ****** ****** ****** ****** ******
      ****** ****** ****** ****** ****** ****** ****** ****** ****** ******
  17  ****** ****** ****** ****** ****** ****** ****** ****** ****** ******
      ****** ****** ****** ****** ****** ****** ****** ****** ****** ******
      ****** ****** ****** ****** ****** ****** ****** ****** ****** ******
  18  ****** ****** ****** ****** ****** ****** ****** ****** ****** ******
      ****** ****** ****** ****** ****** ****** ****** ****** ****** ******
      ****** ****** ****** ****** ****** ****** ****** ****** ****** ******
  19  ****** ****** ****** ****** ****** ****** ****** ****** ****** ******
      ****** ****** ****** ****** ****** ****** ****** ****** ****** ******
      ****** ****** ****** ****** ****** ****** ****** ****** ****** ******
  20  ****** ****** ****** ****** ****** ****** ****** ****** ****** ******
      ****** ****** ****** ****** ****** ****** ****** ****** ****** ******
      ****** ****** ****** ****** ****** ****** ****** ****** ****** ******
  21  ****** ****** ****** ****** ****** ****** ****** ****** ****** ******
      ****** ****** ****** ****** ****** ****** ****** ****** ****** ******
      ****** ****** ****** ****** ****** ****** ****** ****** ****** ******
  22  ****** ****** ****** ****** ****** ****** ****** ****** ****** ******
      ****** ****** ****** ****** ****** ****** ****** ****** ****** ******
      ****** ****** ****** ****** ****** ****** ****** ****** ****** ******
  23  ****** ****** ****** ****** ****** ****** ****** ****** ****** ******
      ****** ****** ****** ****** ****** ****** ****** ****** ****** ******
      ****** ****** ****** ****** ****** ****** ****** ****** ****** ******
  24  ****** ****** ****** ****** ****** ****** ****** ****** ****** ******
      ****** ****** ****** ****** ****** ****** ****** ****** ****** ******
      ****** ****** ****** ****** ****** ****** ****** ****** ****** ******
  25  ****** ****** ****** ****** ****** ****** ****** ****** ****** ******
      ****** ****** ****** ****** ****** ****** ****** ****** ****** ******
      ****** ****** ****** ****** ****** ****** ****** ****** ****** ******

 HEAD WILL BE SAVED ON UNIT   51 AT END OF TIME STEP    1, STRESS PERIOD    4
1
  VOLUMETRIC BUDGET FOR ENTIRE MODEL AT END OF TIME STEP    1, STRESS PERIOD   4
  ------------------------------------------------------------------------------

     CUMULATIVE VOLUMES      L**3       RATES FOR THIS TIME STEP      L**3/T
     ------------------                 ------------------------

           IN:                                      IN:
           ---                                      ---
             STORAGE =    23990527.5662               STORAGE =        2454.7853
       CONSTANT HEAD =    56219526.9852         CONSTANT HEAD =      171967.7363
               WELLS =           0.0000                 WELLS =           0.0000
            RECHARGE =     8804400.0000              RECHARGE =       27600.0000
      STREAM LEAKAGE =     2274732.4603        STREAM LEAKAGE =        6766.8225

            TOTAL IN =    91289187.0117              TOTAL IN =      208789.3442

          OUT:                                     OUT:
          ----                                     ----
             STORAGE =       31420.9969               STORAGE =         345.2857
       CONSTANT HEAD =           0.0000         CONSTANT HEAD =           0.0000
               WELLS =    31684152.4987                 WELLS =       86805.8973
            RECHARGE =           0.0000              RECHARGE =           0.0000
      STREAM LEAKAGE =    59573614.2649        STREAM LEAKAGE =      121638.1602

           TOTAL OUT =    91289187.7604             TOTAL OUT =      208789.3432

            IN - OUT =          -0.7487              IN - OUT =       1.0098E-03

 PERCENT DISCREPANCY =          -0.00     PERCENT DISCREPANCY =           0.00






         TIME SUMMARY AT END OF TIME STEP    1 IN STRESS PERIOD    4
                    SECONDS     MINUTES      HOURS       DAYS        YEARS
                    -----------------------------------------------------------
   TIME STEP LENGTH 7.86240E+06 1.31040E+05  2184.0      91.000     0.24914    
 STRESS PERIOD TIME 7.86240E+06 1.31040E+05  2184.0      91.000     0.24914    
         TOTAL TIME 3.15360E+07 5.25600E+05  8760.0      365.00     0.99932    
1
1
                            STRESS PERIOD NO.    5, LENGTH =   92.00000    
                            -----------------------------------------------

                              NUMBER OF TIME STEPS =     1

                               MULTIPLIER FOR DELT =     1.500

                            INITIAL TIME STEP SIZE =   92.00000    

 WELL NO.  LAYER   ROW   COL   STRESS RATE         
 --------------------------------------------------
      1      1      5     14     -0.2595E+05
      2      1      4     17     -0.2695E+05
      3      1      3     26     -0.3390E+05

      3 WELLS

                 RECHARGE =  5.000000E-04

 REUSING STREAM SEGMENT DATA FROM LAST STRESS PERIOD
 
 SOLVING FOR HEAD 


     6 CALLS TO PCG ROUTINE FOR TIME STEP   1 IN STRESS PERIOD    5
    23 TOTAL ITERATIONS

 OUTPUT CONTROL FOR STRESS PERIOD    5   TIME STEP    1
    SAVE BUDGET
    SAVE HEAD FOR ALL LAYERS
    PRINT HEAD FOR ALL LAYERS
 UBDSV2 SAVING "STREAMFLOW OUT  " ON UNIT  50 AT TIME STEP  1, STRESS PERIOD   5



 STREAM LISTING     PERIOD      5   STEP        1

 LAYER ROW COL. STREAM  RCH.  FLOW INTO     FLOW TO   FLOW OUT OF   OVRLND.     DIRECT     STREAM       STREAM     STREAM     STREAM   STREAMBED  STREAMBED
                SEG.NO.  NO.  STRM. RCH.    AQUIFER    STRM. RCH.    RUNOFF     PRECIP       ET          HEAD       DEPTH      WIDTH   CONDCTNC.   GRADIENT

   1   13    1     1     1    1.0000E+05 -2.5643E+03   1.0256E+05  0.000E+00  0.000E+00  0.000E+00  4.84071E+01  1.458E-01  2.000E+01  2.000E+04 -1.282E-01
   1   13    2     1     2    1.0256E+05 -4.2911E+03   1.0686E+05  0.000E+00  0.000E+00  0.000E+00  4.79328E+01  1.487E-01  2.000E+01  2.000E+04 -2.146E-01
   1   14    3     1     3    1.0686E+05 -3.4448E+03   1.1030E+05  0.000E+00  0.000E+00  0.000E+00  4.74588E+01  1.520E-01  2.000E+01  2.000E+04 -1.722E-01
   1   15    4     1     4    1.1030E+05 -3.4080E+03   1.1371E+05  0.000E+00  0.000E+00  0.000E+00  4.69844E+01  1.548E-01  2.000E+01  2.000E+04 -1.704E-01
   1   16    5     1     5    1.1371E+05 -3.8877E+03   1.1760E+05  0.000E+00  0.000E+00  0.000E+00  4.65101E+01  1.578E-01  2.000E+01  2.000E+04 -1.944E-01
   1   16    6     1     6    1.1760E+05 -2.9971E+03   1.2059E+05  0.000E+00  0.000E+00  0.000E+00  4.60356E+01  1.606E-01  2.000E+01  2.000E+04 -1.499E-01
   1   16    7     1     7    1.2059E+05 -3.0240E+03   1.2362E+05  0.000E+00  0.000E+00  0.000E+00  4.55608E+01  1.631E-01  2.000E+01  2.000E+04 -1.512E-01
   1   16    8     1     8    1.2362E+05 -3.0332E+03   1.2665E+05  0.000E+00  0.000E+00  0.000E+00  4.50859E+01  1.655E-01  2.000E+01  2.000E+04 -1.517E-01
   1   16    9     1     9    1.2665E+05 -3.0134E+03   1.2966E+05  0.000E+00  0.000E+00  0.000E+00  4.46111E+01  1.679E-01  2.000E+01  2.000E+04 -1.507E-01
   1   16   10     1    10    1.2966E+05 -2.9751E+03   1.3264E+05  0.000E+00  0.000E+00  0.000E+00  4.41361E+01  1.702E-01  2.000E+01  2.000E+04 -1.488E-01
   1   16   11     1    11    1.3264E+05 -2.9592E+03   1.3560E+05  0.000E+00  0.000E+00  0.000E+00  4.36611E+01  1.725E-01  2.000E+01  2.000E+04 -1.480E-01
   1   16   12     1    12    1.3560E+05 -4.0963E+03   1.3969E+05  0.000E+00  0.000E+00  0.000E+00  4.31866E+01  1.752E-01  2.000E+01  2.000E+04 -2.048E-01
   1   15   13     1    13    1.3969E+05 -3.4298E+03   1.4312E+05  0.000E+00  0.000E+00  0.000E+00  4.27122E+01  1.781E-01  2.000E+01  2.000E+04 -1.715E-01
   1   14   14     1    14    1.4312E+05 -3.1658E+03   1.4629E+05  0.000E+00  0.000E+00  0.000E+00  4.22374E+01  1.806E-01  2.000E+01  2.000E+04 -1.583E-01
   1   13   15     1    15    1.4629E+05 -2.9803E+03   1.4927E+05  0.000E+00  0.000E+00  0.000E+00  4.17624E+01  1.828E-01  2.000E+01  2.000E+04 -1.490E-01
   1   12   16     1    16    1.4927E+05 -3.1035E+03   1.5237E+05  0.000E+00  0.000E+00  0.000E+00  4.12874E+01  1.851E-01  2.000E+01  2.000E+04 -1.552E-01
   1   12   17     1    17    1.5237E+05 -2.1653E+03   1.5454E+05  0.000E+00  0.000E+00  0.000E+00  4.08120E+01  1.870E-01  2.000E+01  2.000E+04 -1.083E-01
   1   12   18     1    18    1.5454E+05 -2.1635E+03   1.5670E+05  0.000E+00  0.000E+00  0.000E+00  4.03363E+01  1.886E-01  2.000E+01  2.000E+04 -1.082E-01
   1   12   19     1    19    1.5670E+05 -2.8588E+03   1.5956E+05  0.000E+00  0.000E+00  0.000E+00  3.98609E+01  1.904E-01  2.000E+01  2.000E+04 -1.429E-01
   1   13   20     1    20    1.5956E+05 -2.3759E+03   1.6194E+05  0.000E+00  0.000E+00  0.000E+00  3.93855E+01  1.923E-01  2.000E+01  2.000E+04 -1.188E-01
   1   14   21     1    21    1.6194E+05 -2.1604E+03   1.6410E+05  0.000E+00  0.000E+00  0.000E+00  3.89098E+01  1.939E-01  2.000E+01  2.000E+04 -1.080E-01
   1   14   22     1    22    1.6410E+05  5.1371E+03   1.5896E+05  0.000E+00  0.000E+00  0.000E+00  3.84315E+01  1.929E-01  2.000E+01  2.000E+04  2.569E-01
   1    9   30     2     1    5.0000E+04 -1.7485E+03   5.1749E+04  0.000E+00  0.000E+00  0.000E+00  4.02421E+01  1.171E-01  2.000E+01  2.000E+04 -8.743E-02
   1    9   29     2     2    5.1749E+04 -2.0063E+03   5.3755E+04  0.000E+00  0.000E+00  0.000E+00  3.99947E+01  1.197E-01  2.000E+01  2.000E+04 -1.003E-01
   1    9   28     2     3    5.3755E+04 -2.2215E+03   5.5976E+04  0.000E+00  0.000E+00  0.000E+00  3.97475E+01  1.225E-01  2.000E+01  2.000E+04 -1.111E-01
   1    9   27     2     4    5.5976E+04 -3.9817E+03   5.9958E+04  0.000E+00  0.000E+00  0.000E+00  3.95016E+01  1.266E-01  2.000E+01  2.000E+04 -1.991E-01
   1   10   26     2     5    5.9958E+04 -2.3476E+03   6.2306E+04  0.000E+00  0.000E+00  0.000E+00  3.92557E+01  1.307E-01  2.000E+01  2.000E+04 -1.174E-01
   1   11   25     2     6    6.2306E+04 -1.6325E+03   6.3938E+04  0.000E+00  0.000E+00  0.000E+00  3.90083E+01  1.333E-01  2.000E+01  2.000E+04 -8.162E-02
   1   12   24     2     7    6.3938E+04 -1.0563E+03   6.4994E+04  0.000E+00  0.000E+00  0.000E+00  3.87599E+01  1.349E-01  2.000E+01  2.000E+04 -5.282E-02
   1   13   23     2     8    6.4994E+04 -5.5010E+02   6.5545E+04  0.000E+00  0.000E+00  0.000E+00  3.85110E+01  1.360E-01  2.000E+01  2.000E+04 -2.750E-02
   1   14   22     2     9    6.5545E+04  1.7115E+03   6.3833E+04  0.000E+00  0.000E+00  0.000E+00  3.82602E+01  1.352E-01  2.000E+01  2.000E+04  8.557E-02
   1   14   22     3     1    2.2279E+05 -8.4558E+03   2.3125E+05  0.000E+00  0.000E+00  0.000E+00  3.77519E+01  1.963E-01  2.000E+01  2.000E+04 -4.228E-01
   1   15   23     3     2    2.3125E+05 -3.0472E+03   2.3430E+05  0.000E+00  0.000E+00  0.000E+00  3.68659E+01  1.993E-01  2.000E+01  2.000E+04 -1.524E-01
   1   15   24     3     3    2.3430E+05 -2.0752E+03   2.3637E+05  0.000E+00  0.000E+00  0.000E+00  3.59784E+01  2.006E-01  2.000E+01  2.000E+04 -1.038E-01
   1   15   25     3     4    2.3637E+05 -1.9378E+03   2.3831E+05  0.000E+00  0.000E+00  0.000E+00  3.50905E+01  2.016E-01  2.000E+01  2.000E+04 -9.689E-02
   1   15   26     3     5    2.3831E+05 -2.2618E+03   2.4057E+05  0.000E+00  0.000E+00  0.000E+00  3.42027E+01  2.027E-01  2.000E+01  2.000E+04 -1.131E-01
   1   16   27     3     6    2.4057E+05 -3.2229E+03   2.4379E+05  0.000E+00  0.000E+00  0.000E+00  3.33152E+01  2.041E-01  2.000E+01  2.000E+04 -1.611E-01
   1   17   28     3     7    2.4379E+05 -4.0495E+03   2.4784E+05  0.000E+00  0.000E+00  0.000E+00  3.24281E+01  2.059E-01  2.000E+01  2.000E+04 -2.025E-01
   1   18   29     3     8    2.4784E+05 -5.7371E+03   2.5358E+05  0.000E+00  0.000E+00  0.000E+00  3.15417E+01  2.084E-01  2.000E+01  2.000E+04 -2.869E-01
   1   18   30     3     9    2.5358E+05 -4.7730E+03   2.5835E+05  0.000E+00  0.000E+00  0.000E+00  3.06554E+01  2.110E-01  2.000E+01  2.000E+04 -2.386E-01



1
              HEAD IN LAYER   1 AT END OF TIME STEP   1 IN STRESS PERIOD    5
  ---------------------------------------------------------------------------

          1      2      3      4      5      6      7      8      9     10
         11     12     13     14     15     16     17     18     19     20
         21     22     23     24     25     26     27     28     29     30
 .........................................................................
   1  ****** ****** ****** ****** ****** ****** ****** ****** ****** ******
      ****** ****** ****** ****** ****** ****** ****** ****** ****** ******
      ****** ****** ****** ****** ****** ****** ****** ****** ****** ******
   2  ****** ****** ****** ****** ****** ****** ****** ****** ****** ******
      ****** ****** ****** ****** ****** ****** ****** ****** ****** ******
      ****** ****** ****** ****** ****** ****** ****** ****** ****** ******
   3  ****** ****** ****** ****** ****** ****** ****** ****** ****** ******
      ****** ****** ****** ****** ****** ****** ****** ****** ****** ******
      ****** ****** ****** ****** ****** ****** ****** ****** ****** ******
   4  ****** ****** ****** ****** ****** ****** ****** ****** ****** ******
      ****** ****** ****** ****** ****** ****** ****** ****** ****** ******
      ****** ****** ****** ****** ****** ****** ****** ****** ****** ******
   5  ****** ****** ****** ****** ****** ****** ****** ****** ****** ******
      ****** ****** ****** ****** ****** ****** ****** ****** ****** ******
      ****** ****** ****** ****** ****** ****** ****** ****** ****** ******
   6  ****** ****** ****** ****** ****** ****** ****** ****** ****** ******
      ****** ****** ****** ****** ****** ****** ****** ****** ****** ******
      ****** ****** ****** ****** ****** ****** ****** ****** ****** ******
   7  ****** ****** ****** ****** ****** ****** ****** ****** ****** ******
      ****** ****** ****** ****** ****** ****** ****** ****** ****** ******
      ****** ****** ****** ****** ****** ****** ****** ****** ****** ******
   8  ****** ****** ****** ****** ****** ****** ****** ****** ****** ******
      ****** ****** ****** ****** ****** ****** ****** ****** ****** ******
      ****** ****** ****** ****** ****** ****** ****** ****** ****** ******
   9  ****** ****** ****** ****** ****** ****** ****** ****** ****** ******
      ****** ****** ****** ****** ****** ****** ****** ****** ****** ******
      ****** ****** ****** ****** ****** ****** ****** ****** ****** ******
  10  ****** ****** ****** ****** ****** ****** ****** ****** ****** ******
      ****** ****** ****** ****** ****** ****** ****** ****** ****** ******
      ****** ****** ****** ****** ****** ****** ****** ****** ****** ******
  11  ****** ****** ****** ****** ****** ****** ****** ****** ****** ******
      ****** ****** ****** ****** ****** ****** ****** ****** ****** ******
      ****** ****** ****** ****** ****** ****** ****** ****** ****** ******
  12  ****** ****** ****** ****** ****** ****** ****** ****** ****** ******
      ****** ****** ****** ****** ****** ****** ****** ****** ****** ******
      ****** ****** ****** ****** ****** ****** ****** ****** ****** ******
  13  ****** ****** ****** ****** ****** ****** ****** ****** ****** ******
      ****** ****** ****** ****** ****** ****** ****** ****** ****** ******
      ****** ****** ****** ****** ****** ****** ****** ****** ****** ******
  14  ****** ****** ****** ****** ****** ****** ****** ****** ****** ******
      ****** ****** ****** ****** ****** ****** ****** ****** ****** ******
      ****** ****** ****** ****** ****** ****** ****** ****** ****** ******
  15  ****** ****** ****** ****** ****** ****** ****** ****** ****** ******
      ****** ****** ****** ****** ****** ****** ****** ****** ****** ******
      ****** ****** ****** ****** ****** ****** ****** ****** ****** ******
  16  ****** ****** ****** ****** ****** ****** ****** ****** ****** ******
      ****** ****** ****** ****** ****** ****** ****** ****** ****** ******
      ****** ****** ****** ****** ****** ****** ****** ****** ****** ******
  17  ****** ****** ****** ****** ****** ****** ****** ****** ****** ******
      ****** ****** ****** ****** ****** ****** ****** ****** ****** ******
      ****** ****** ****** ****** ****** ****** ****** ****** ****** ******
  18  ****** ****** ****** ****** ****** ****** ****** ****** ****** ******
      ****** ****** ****** ****** ****** ****** ****** ****** ****** ******
      ****** ****** ****** ****** ****** ****** ****** ****** ****** ******
  19  ****** ****** ****** ****** ****** ****** ****** ****** ****** ******
      ****** ****** ****** ****** ****** ****** ****** ****** ****** ******
      ****** ****** ****** ****** ****** ****** ****** ****** ****** ******
  20  ****** ****** ****** ****** ****** ****** ****** ****** ****** ******
      ****** ****** ****** ****** ****** ****** ****** ****** ****** ******
      ****** ****** ****** ****** ****** ****** ****** ****** ****** ******
  21  ****** ****** ****** ****** ****** ****** ****** ****** ****** ******
      ****** ****** ****** ****** ****** ****** ****** ****** ****** ******
      ****** ****** ****** ****** ****** ****** ****** ****** ****** ******
  22  ****** ****** ****** ****** ****** ****** ****** ****** ****** ******
      ****** ****** ****** ****** ****** ****** ****** ****** ****** ******
      ****** ****** ****** ****** ****** ****** ****** ****** ****** ******
  23  ****** ****** ****** ****** ****** ****** ****** ****** ****** ******
      ****** ****** ****** ****** ****** ****** ****** ****** ****** ******
      ****** ****** ****** ****** ****** ****** ****** ****** ****** ******
  24  ****** ****** ****** ****** ****** ****** ****** ****** ****** ******
      ****** ****** ****** ****** ****** ****** ****** ****** ****** ******
      ****** ****** ****** ****** ****** ****** ****** ****** ****** ******
  25  ****** ****** ****** ****** ****** ****** ****** ****** ****** ******
      ****** ****** ****** ****** ****** ****** ****** ****** ****** ******
      ****** ****** ****** ****** ****** ****** ****** ****** ****** ******

 HEAD WILL BE SAVED ON UNIT   51 AT END OF TIME STEP    1, STRESS PERIOD    5
1
  VOLUMETRIC BUDGET FOR ENTIRE MODEL AT END OF TIME STEP    1, STRESS PERIOD   5
  ------------------------------------------------------------------------------

     CUMULATIVE VOLUMES      L**3       RATES FOR THIS TIME STEP      L**3/T
     ------------------                 ------------------------

           IN:                                      IN:
           ---                                      ---
             STORAGE =    24435305.3674               STORAGE =        4834.5413
       CONSTANT HEAD =    72459835.2644         CONSTANT HEAD =      176525.0900
               WELLS =           0.0000                 WELLS =           0.0000
            RECHARGE =    10074000.0000              RECHARGE =       13800.0000
      STREAM LEAKAGE =     2904798.4176        STREAM LEAKAGE =        6848.5430

            TOTAL IN =   109873939.0495              TOTAL IN =      202008.1743

          OUT:                                     OUT:
          ----                                     ----
             STORAGE =       31420.9969               STORAGE =           0.0000
       CONSTANT HEAD =           0.0000         CONSTANT HEAD =           0.0000
               WELLS =    39670295.0463                 WELLS =       86805.8973
            RECHARGE =           0.0000              RECHARGE =           0.0000
      STREAM LEAKAGE =    70172223.8296        STREAM LEAKAGE =      115202.2779

           TOTAL OUT =   109873939.8728             TOTAL OUT =      202008.1751

            IN - OUT =          -0.8233              IN - OUT =      -8.1097E-04

 PERCENT DISCREPANCY =          -0.00     PERCENT DISCREPANCY =          -0.00






         TIME SUMMARY AT END OF TIME STEP    1 IN STRESS PERIOD    5
                    SECONDS     MINUTES      HOURS       DAYS        YEARS
                    -----------------------------------------------------------
   TIME STEP LENGTH 7.94880E+06 1.32480E+05  2208.0      92.000     0.25188    
 STRESS PERIOD TIME 7.94880E+06 1.32480E+05  2208.0      92.000     0.25188    
         TOTAL TIME 3.94848E+07 6.58080E+05  10968.      457.00      1.2512    
1
1
                            STRESS PERIOD NO.    6, LENGTH =   91.00000    
                            -----------------------------------------------

                              NUMBER OF TIME STEPS =     1

                               MULTIPLIER FOR DELT =     1.500

                            INITIAL TIME STEP SIZE =   91.00000    

 WELL NO.  LAYER   ROW   COL   STRESS RATE         
 --------------------------------------------------
      1      1      5     14     -0.2595E+05
      2      1      4     17     -0.2695E+05
      3      1      3     26     -0.3390E+05

      3 WELLS

                 RECHARGE =  2.000000E-03

 REUSING STREAM SEGMENT DATA FROM LAST STRESS PERIOD
 
 SOLVING FOR HEAD 


     7 CALLS TO PCG ROUTINE FOR TIME STEP   1 IN STRESS PERIOD    6
    26 TOTAL ITERATIONS

 OUTPUT CONTROL FOR STRESS PERIOD    6   TIME STEP    1
    SAVE BUDGET
    SAVE HEAD FOR ALL LAYERS
    PRINT HEAD FOR ALL LAYERS
 UBDSV2 SAVING "STREAMFLOW OUT  " ON UNIT  50 AT TIME STEP  1, STRESS PERIOD   6



 STREAM LISTING     PERIOD      6   STEP        1

 LAYER ROW COL. STREAM  RCH.  FLOW INTO     FLOW TO   FLOW OUT OF   OVRLND.     DIRECT     STREAM       STREAM     STREAM     STREAM   STREAMBED  STREAMBED
                SEG.NO.  NO.  STRM. RCH.    AQUIFER    STRM. RCH.    RUNOFF     PRECIP       ET          HEAD       DEPTH      WIDTH   CONDCTNC.   GRADIENT

   1   13    1     1     1    1.0000E+05 -2.9565E+03   1.0296E+05  0.000E+00  0.000E+00  0.000E+00  4.84073E+01  1.459E-01  2.000E+01  2.000E+04 -1.478E-01
   1   13    2     1     2    1.0296E+05 -4.8041E+03   1.0776E+05  0.000E+00  0.000E+00  0.000E+00  4.79333E+01  1.493E-01  2.000E+01  2.000E+04 -2.402E-01
   1   14    3     1     3    1.0776E+05 -3.9760E+03   1.1174E+05  0.000E+00  0.000E+00  0.000E+00  4.74598E+01  1.530E-01  2.000E+01  2.000E+04 -1.988E-01
   1   15    4     1     4    1.1174E+05 -3.9389E+03   1.1568E+05  0.000E+00  0.000E+00  0.000E+00  4.69858E+01  1.562E-01  2.000E+01  2.000E+04 -1.969E-01
   1   16    5     1     5    1.1568E+05 -4.3842E+03   1.2006E+05  0.000E+00  0.000E+00  0.000E+00  4.65119E+01  1.596E-01  2.000E+01  2.000E+04 -2.192E-01
   1   16    6     1     6    1.2006E+05 -3.3856E+03   1.2345E+05  0.000E+00  0.000E+00  0.000E+00  4.60378E+01  1.628E-01  2.000E+01  2.000E+04 -1.693E-01
   1   16    7     1     7    1.2345E+05 -3.4174E+03   1.2686E+05  0.000E+00  0.000E+00  0.000E+00  4.55632E+01  1.655E-01  2.000E+01  2.000E+04 -1.709E-01
   1   16    8     1     8    1.2686E+05 -3.4296E+03   1.3029E+05  0.000E+00  0.000E+00  0.000E+00  4.50887E+01  1.682E-01  2.000E+01  2.000E+04 -1.715E-01
   1   16    9     1     9    1.3029E+05 -3.4096E+03   1.3370E+05  0.000E+00  0.000E+00  0.000E+00  4.46141E+01  1.709E-01  2.000E+01  2.000E+04 -1.705E-01
   1   16   10     1    10    1.3370E+05 -3.3682E+03   1.3707E+05  0.000E+00  0.000E+00  0.000E+00  4.41394E+01  1.735E-01  2.000E+01  2.000E+04 -1.684E-01
   1   16   11     1    11    1.3707E+05 -3.3481E+03   1.4042E+05  0.000E+00  0.000E+00  0.000E+00  4.36647E+01  1.761E-01  2.000E+01  2.000E+04 -1.674E-01
   1   16   12     1    12    1.4042E+05 -4.6005E+03   1.4502E+05  0.000E+00  0.000E+00  0.000E+00  4.31904E+01  1.791E-01  2.000E+01  2.000E+04 -2.300E-01
   1   15   13     1    13    1.4502E+05 -3.9721E+03   1.4899E+05  0.000E+00  0.000E+00  0.000E+00  4.27164E+01  1.823E-01  2.000E+01  2.000E+04 -1.986E-01
   1   14   14     1    14    1.4899E+05 -3.7150E+03   1.5271E+05  0.000E+00  0.000E+00  0.000E+00  4.22419E+01  1.851E-01  2.000E+01  2.000E+04 -1.857E-01
   1   13   15     1    15    1.5271E+05 -3.5176E+03   1.5622E+05  0.000E+00  0.000E+00  0.000E+00  4.17673E+01  1.878E-01  2.000E+01  2.000E+04 -1.759E-01
   1   12   16     1    16    1.5622E+05 -3.6112E+03   1.5983E+05  0.000E+00  0.000E+00  0.000E+00  4.12926E+01  1.904E-01  2.000E+01  2.000E+04 -1.806E-01
   1   12   17     1    17    1.5983E+05 -2.5484E+03   1.6238E+05  0.000E+00  0.000E+00  0.000E+00  4.08176E+01  1.926E-01  2.000E+01  2.000E+04 -1.274E-01
   1   12   18     1    18    1.6238E+05 -2.5415E+03   1.6492E+05  0.000E+00  0.000E+00  0.000E+00  4.03421E+01  1.944E-01  2.000E+01  2.000E+04 -1.271E-01
   1   12   19     1    19    1.6492E+05 -3.3193E+03   1.6824E+05  0.000E+00  0.000E+00  0.000E+00  3.98669E+01  1.965E-01  2.000E+01  2.000E+04 -1.660E-01
   1   13   20     1    20    1.6824E+05 -2.8320E+03   1.7108E+05  0.000E+00  0.000E+00  0.000E+00  3.93918E+01  1.986E-01  2.000E+01  2.000E+04 -1.416E-01
   1   14   21     1    21    1.7108E+05 -2.5834E+03   1.7366E+05  0.000E+00  0.000E+00  0.000E+00  3.89164E+01  2.005E-01  2.000E+01  2.000E+04 -1.292E-01
   1   14   22     1    22    1.7366E+05  5.0553E+03   1.6860E+05  0.000E+00  0.000E+00  0.000E+00  3.84383E+01  1.997E-01  2.000E+01  2.000E+04  2.528E-01
   1    9   30     2     1    5.0000E+04 -2.1033E+03   5.2103E+04  0.000E+00  0.000E+00  0.000E+00  4.02423E+01  1.173E-01  2.000E+01  2.000E+04 -1.052E-01
   1    9   29     2     2    5.2103E+04 -2.3581E+03   5.4461E+04  0.000E+00  0.000E+00  0.000E+00  3.99954E+01  1.204E-01  2.000E+01  2.000E+04 -1.179E-01
   1    9   28     2     3    5.4461E+04 -2.5705E+03   5.7032E+04  0.000E+00  0.000E+00  0.000E+00  3.97487E+01  1.237E-01  2.000E+01  2.000E+04 -1.285E-01
   1    9   27     2     4    5.7032E+04 -4.4447E+03   6.1477E+04  0.000E+00  0.000E+00  0.000E+00  3.95033E+01  1.283E-01  2.000E+01  2.000E+04 -2.222E-01
   1   10   26     2     5    6.1477E+04 -2.8278E+03   6.4304E+04  0.000E+00  0.000E+00  0.000E+00  3.92580E+01  1.330E-01  2.000E+01  2.000E+04 -1.414E-01
   1   11   25     2     6    6.4304E+04 -2.0919E+03   6.6396E+04  0.000E+00  0.000E+00  0.000E+00  3.90111E+01  1.361E-01  2.000E+01  2.000E+04 -1.046E-01
   1   12   24     2     7    6.6396E+04 -1.4625E+03   6.7859E+04  0.000E+00  0.000E+00  0.000E+00  3.87633E+01  1.383E-01  2.000E+01  2.000E+04 -7.313E-02
   1   13   23     2     8    6.7859E+04 -8.6731E+02   6.8726E+04  0.000E+00  0.000E+00  0.000E+00  3.85147E+01  1.397E-01  2.000E+01  2.000E+04 -4.337E-02
   1   14   22     2     9    6.8726E+04  1.5744E+03   6.7152E+04  0.000E+00  0.000E+00  0.000E+00  3.82643E+01  1.393E-01  2.000E+01  2.000E+04  7.872E-02
   1   14   22     3     1    2.3576E+05 -8.5401E+03   2.4430E+05  0.000E+00  0.000E+00  0.000E+00  3.77585E+01  2.030E-01  2.000E+01  2.000E+04 -4.270E-01
   1   15   23     3     2    2.4430E+05 -3.4439E+03   2.4774E+05  0.000E+00  0.000E+00  0.000E+00  3.68727E+01  2.060E-01  2.000E+01  2.000E+04 -1.722E-01
   1   15   24     3     3    2.4774E+05 -2.3624E+03   2.5010E+05  0.000E+00  0.000E+00  0.000E+00  3.59852E+01  2.075E-01  2.000E+01  2.000E+04 -1.181E-01
   1   15   25     3     4    2.5010E+05 -2.2258E+03   2.5233E+05  0.000E+00  0.000E+00  0.000E+00  3.50975E+01  2.086E-01  2.000E+01  2.000E+04 -1.113E-01
   1   15   26     3     5    2.5233E+05 -2.6330E+03   2.5496E+05  0.000E+00  0.000E+00  0.000E+00  3.42098E+01  2.098E-01  2.000E+01  2.000E+04 -1.317E-01
   1   16   27     3     6    2.5496E+05 -3.6887E+03   2.5865E+05  0.000E+00  0.000E+00  0.000E+00  3.33225E+01  2.114E-01  2.000E+01  2.000E+04 -1.844E-01
   1   17   28     3     7    2.5865E+05 -4.5251E+03   2.6317E+05  0.000E+00  0.000E+00  0.000E+00  3.24356E+01  2.134E-01  2.000E+01  2.000E+04 -2.263E-01
   1   18   29     3     8    2.6317E+05 -6.1836E+03   2.6936E+05  0.000E+00  0.000E+00  0.000E+00  3.15494E+01  2.160E-01  2.000E+01  2.000E+04 -3.092E-01
   1   18   30     3     9    2.6936E+05 -5.1097E+03   2.7447E+05  0.000E+00  0.000E+00  0.000E+00  3.06632E+01  2.188E-01  2.000E+01  2.000E+04 -2.555E-01



1
              HEAD IN LAYER   1 AT END OF TIME STEP   1 IN STRESS PERIOD    6
  ---------------------------------------------------------------------------

          1      2      3      4      5      6      7      8      9     10
         11     12     13     14     15     16     17     18     19     20
         21     22     23     24     25     26     27     28     29     30
 .........................................................................
   1  ****** ****** ****** ****** ****** ****** ****** ****** ****** ******
      ****** ****** ****** ****** ****** ****** ****** ****** ****** ******
      ****** ****** ****** ****** ****** ****** ****** ****** ****** ******
   2  ****** ****** ****** ****** ****** ****** ****** ****** ****** ******
      ****** ****** ****** ****** ****** ****** ****** ****** ****** ******
      ****** ****** ****** ****** ****** ****** ****** ****** ****** ******
   3  ****** ****** ****** ****** ****** ****** ****** ****** ****** ******
      ****** ****** ****** ****** ****** ****** ****** ****** ****** ******
      ****** ****** ****** ****** ****** ****** ****** ****** ****** ******
   4  ****** ****** ****** ****** ****** ****** ****** ****** ****** ******
      ****** ****** ****** ****** ****** ****** ****** ****** ****** ******
      ****** ****** ****** ****** ****** ****** ****** ****** ****** ******
   5  ****** ****** ****** ****** ****** ****** ****** ****** ****** ******
      ****** ****** ****** ****** ****** ****** ****** ****** ****** ******
      ****** ****** ****** ****** ****** ****** ****** ****** ****** ******
   6  ****** ****** ****** ****** ****** ****** ****** ****** ****** ******
      ****** ****** ****** ****** ****** ****** ****** ****** ****** ******
      ****** ****** ****** ****** ****** ****** ****** ****** ****** ******
   7  ****** ****** ****** ****** ****** ****** ****** ****** ****** ******
      ****** ****** ****** ****** ****** ****** ****** ****** ****** ******
      ****** ****** ****** ****** ****** ****** ****** ****** ****** ******
   8  ****** ****** ****** ****** ****** ****** ****** ****** ****** ******
      ****** ****** ****** ****** ****** ****** ****** ****** ****** ******
      ****** ****** ****** ****** ****** ****** ****** ****** ****** ******
   9  ****** ****** ****** ****** ****** ****** ****** ****** ****** ******
      ****** ****** ****** ****** ****** ****** ****** ****** ****** ******
      ****** ****** ****** ****** ****** ****** ****** ****** ****** ******
  10  ****** ****** ****** ****** ****** ****** ****** ****** ****** ******
      ****** ****** ****** ****** ****** ****** ****** ****** ****** ******
      ****** ****** ****** ****** ****** ****** ****** ****** ****** ******
  11  ****** ****** ****** ****** ****** ****** ****** ****** ****** ******
      ****** ****** ****** ****** ****** ****** ****** ****** ****** ******
      ****** ****** ****** ****** ****** ****** ****** ****** ****** ******
  12  ****** ****** ****** ****** ****** ****** ****** ****** ****** ******
      ****** ****** ****** ****** ****** ****** ****** ****** ****** ******
      ****** ****** ****** ****** ****** ****** ****** ****** ****** ******
  13  ****** ****** ****** ****** ****** ****** ****** ****** ****** ******
      ****** ****** ****** ****** ****** ****** ****** ****** ****** ******
      ****** ****** ****** ****** ****** ****** ****** ****** ****** ******
  14  ****** ****** ****** ****** ****** ****** ****** ****** ****** ******
      ****** ****** ****** ****** ****** ****** ****** ****** ****** ******
      ****** ****** ****** ****** ****** ****** ****** ****** ****** ******
  15  ****** ****** ****** ****** ****** ****** ****** ****** ****** ******
      ****** ****** ****** ****** ****** ****** ****** ****** ****** ******
      ****** ****** ****** ****** ****** ****** ****** ****** ****** ******
  16  ****** ****** ****** ****** ****** ****** ****** ****** ****** ******
      ****** ****** ****** ****** ****** ****** ****** ****** ****** ******
      ****** ****** ****** ****** ****** ****** ****** ****** ****** ******
  17  ****** ****** ****** ****** ****** ****** ****** ****** ****** ******
      ****** ****** ****** ****** ****** ****** ****** ****** ****** ******
      ****** ****** ****** ****** ****** ****** ****** ****** ****** ******
  18  ****** ****** ****** ****** ****** ****** ****** ****** ****** ******
      ****** ****** ****** ****** ****** ****** ****** ****** ****** ******
      ****** ****** ****** ****** ****** ****** ****** ****** ****** ******
  19  ****** ****** ****** ****** ****** ****** ****** ****** ****** ******
      ****** ****** ****** ****** ****** ****** ****** ****** ****** ******
      ****** ****** ****** ****** ****** ****** ****** ****** ****** ******
  20  ****** ****** ****** ****** ****** ****** ****** ****** ****** ******
      ****** ****** ****** ****** ****** ****** ****** ****** ****** ******
      ****** ****** ****** ****** ****** ****** ****** ****** ****** ******
  21  ****** ****** ****** ****** ****** ****** ****** ****** ****** ******
      ****** ****** ****** ****** ****** ****** ****** ****** ****** ******
      ****** ****** ****** ****** ****** ****** ****** ****** ****** ******
  22  ****** ****** ****** ****** ****** ****** ****** ****** ****** ******
      ****** ****** ****** ****** ****** ****** ****** ****** ****** ******
      ****** ****** ****** ****** ****** ****** ****** ****** ****** ******
  23  ****** ****** ****** ****** ****** ****** ****** ****** ****** ******
      ****** ****** ****** ****** ****** ****** ****** ****** ****** ******
      ****** ****** ****** ****** ****** ****** ****** ****** ****** ******
  24  ****** ****** ****** ****** ****** ****** ****** ****** ****** ******
      ****** ****** ****** ****** ****** ****** ****** ****** ****** ******
      ****** ****** ****** ****** ****** ****** ****** ****** ****** ******
  25  ****** ****** ****** ****** ****** ****** ****** ****** ****** ******
      ****** ****** ****** ****** ****** ****** ****** ****** ****** ******
      ****** ****** ****** ****** ****** ****** ****** ****** ****** ******

 HEAD WILL BE SAVED ON UNIT   51 AT END OF TIME STEP    1, STRESS PERIOD    6
1
  VOLUMETRIC BUDGET FOR ENTIRE MODEL AT END OF TIME STEP    1, STRESS PERIOD   6
  ------------------------------------------------------------------------------

     CUMULATIVE VOLUMES      L**3       RATES FOR THIS TIME STEP      L**3/T
     ------------------                 ------------------------

           IN:                                      IN:
           ---                                      ---
             STORAGE =    24435305.3674               STORAGE =           0.0000
       CONSTANT HEAD =    87565545.3218         CONSTANT HEAD =      165996.8138
               WELLS =           0.0000                 WELLS =           0.0000
            RECHARGE =    15097200.0000              RECHARGE =       55200.0000
      STREAM LEAKAGE =     3508108.8813        STREAM LEAKAGE =        6629.7853

            TOTAL IN =   130606159.5705              TOTAL IN =      227826.5991

          OUT:                                     OUT:
          ----                                     ----
             STORAGE =      934437.2727               STORAGE =        9923.2558
       CONSTANT HEAD =           0.0000         CONSTANT HEAD =           0.0000
               WELLS =    47569631.6967                 WELLS =       86805.8973
            RECHARGE =           0.0000              RECHARGE =           0.0000
      STREAM LEAKAGE =    82102091.2746        STREAM LEAKAGE =      131097.4445

           TOTAL OUT =   130606160.2439             TOTAL OUT =      227826.5975

            IN - OUT =          -0.6734              IN - OUT =       1.6471E-03

 PERCENT DISCREPANCY =          -0.00     PERCENT DISCREPANCY =           0.00






         TIME SUMMARY AT END OF TIME STEP    1 IN STRESS PERIOD    6
                    SECONDS     MINUTES      HOURS       DAYS        YEARS
                    -----------------------------------------------------------
   TIME STEP LENGTH 7.86240E+06 1.31040E+05  2184.0      91.000     0.24914    
 STRESS PERIOD TIME 7.86240E+06 1.31040E+05  2184.0      91.000     0.24914    
         TOTAL TIME 4.73472E+07 7.89120E+05  13152.      548.00      1.5003    
1
1
                            STRESS PERIOD NO.    7, LENGTH =   91.00000    
                            -----------------------------------------------

                              NUMBER OF TIME STEPS =     1

                               MULTIPLIER FOR DELT =     1.500

                            INITIAL TIME STEP SIZE =   91.00000    

 WELL NO.  LAYER   ROW   COL   STRESS RATE         
 --------------------------------------------------
      1      1      5     14     -0.2088E+05
      2      1      4     17     -0.2248E+05
      3      1      3     26     -0.3599E+05

      3 WELLS

                 RECHARGE =   0.00000    

 REUSING STREAM SEGMENT DATA FROM LAST STRESS PERIOD
 
 SOLVING FOR HEAD 


     7 CALLS TO PCG ROUTINE FOR TIME STEP   1 IN STRESS PERIOD    7
    26 TOTAL ITERATIONS

 OUTPUT CONTROL FOR STRESS PERIOD    7   TIME STEP    1
    SAVE BUDGET
    SAVE HEAD FOR ALL LAYERS
    PRINT HEAD FOR ALL LAYERS
 UBDSV2 SAVING "STREAMFLOW OUT  " ON UNIT  50 AT TIME STEP  1, STRESS PERIOD   7



 STREAM LISTING     PERIOD      7   STEP        1

 LAYER ROW COL. STREAM  RCH.  FLOW INTO     FLOW TO   FLOW OUT OF   OVRLND.     DIRECT     STREAM       STREAM     STREAM     STREAM   STREAMBED  STREAMBED
                SEG.NO.  NO.  STRM. RCH.    AQUIFER    STRM. RCH.    RUNOFF     PRECIP       ET          HEAD       DEPTH      WIDTH   CONDCTNC.   GRADIENT

   1   13    1     1     1    1.0000E+05 -2.4701E+03   1.0247E+05  0.000E+00  0.000E+00  0.000E+00  4.84071E+01  1.457E-01  2.000E+01  2.000E+04 -1.235E-01
   1   13    2     1     2    1.0247E+05 -4.1712E+03   1.0664E+05  0.000E+00  0.000E+00  0.000E+00  4.79327E+01  1.486E-01  2.000E+01  2.000E+04 -2.086E-01
   1   14    3     1     3    1.0664E+05 -3.3234E+03   1.0996E+05  0.000E+00  0.000E+00  0.000E+00  4.74586E+01  1.517E-01  2.000E+01  2.000E+04 -1.662E-01
   1   15    4     1     4    1.0996E+05 -3.2899E+03   1.1325E+05  0.000E+00  0.000E+00  0.000E+00  4.69841E+01  1.545E-01  2.000E+01  2.000E+04 -1.645E-01
   1   16    5     1     5    1.1325E+05 -3.7824E+03   1.1704E+05  0.000E+00  0.000E+00  0.000E+00  4.65097E+01  1.574E-01  2.000E+01  2.000E+04 -1.891E-01
   1   16    6     1     6    1.1704E+05 -2.9127E+03   1.1995E+05  0.000E+00  0.000E+00  0.000E+00  4.60352E+01  1.602E-01  2.000E+01  2.000E+04 -1.456E-01
   1   16    7     1     7    1.1995E+05 -2.9400E+03   1.2289E+05  0.000E+00  0.000E+00  0.000E+00  4.55602E+01  1.625E-01  2.000E+01  2.000E+04 -1.470E-01
   1   16    8     1     8    1.2289E+05 -2.9507E+03   1.2584E+05  0.000E+00  0.000E+00  0.000E+00  4.50853E+01  1.649E-01  2.000E+01  2.000E+04 -1.475E-01
   1   16    9     1     9    1.2584E+05 -2.9334E+03   1.2877E+05  0.000E+00  0.000E+00  0.000E+00  4.46104E+01  1.672E-01  2.000E+01  2.000E+04 -1.467E-01
   1   16   10     1    10    1.2877E+05 -2.8980E+03   1.3167E+05  0.000E+00  0.000E+00  0.000E+00  4.41354E+01  1.695E-01  2.000E+01  2.000E+04 -1.449E-01
   1   16   11     1    11    1.3167E+05 -2.8845E+03   1.3456E+05  0.000E+00  0.000E+00  0.000E+00  4.36604E+01  1.717E-01  2.000E+01  2.000E+04 -1.442E-01
   1   16   12     1    12    1.3456E+05 -3.9994E+03   1.3856E+05  0.000E+00  0.000E+00  0.000E+00  4.31857E+01  1.744E-01  2.000E+01  2.000E+04 -2.000E-01
   1   15   13     1    13    1.3856E+05 -3.3390E+03   1.4189E+05  0.000E+00  0.000E+00  0.000E+00  4.27113E+01  1.772E-01  2.000E+01  2.000E+04 -1.670E-01
   1   14   14     1    14    1.4189E+05 -3.0979E+03   1.4499E+05  0.000E+00  0.000E+00  0.000E+00  4.22364E+01  1.796E-01  2.000E+01  2.000E+04 -1.549E-01
   1   13   15     1    15    1.4499E+05 -2.9561E+03   1.4795E+05  0.000E+00  0.000E+00  0.000E+00  4.17614E+01  1.819E-01  2.000E+01  2.000E+04 -1.478E-01
   1   12   16     1    16    1.4795E+05 -3.1779E+03   1.5113E+05  0.000E+00  0.000E+00  0.000E+00  4.12864E+01  1.842E-01  2.000E+01  2.000E+04 -1.589E-01
   1   12   17     1    17    1.5113E+05 -2.1920E+03   1.5332E+05  0.000E+00  0.000E+00  0.000E+00  4.08111E+01  1.861E-01  2.000E+01  2.000E+04 -1.096E-01
   1   12   18     1    18    1.5332E+05 -2.1736E+03   1.5549E+05  0.000E+00  0.000E+00  0.000E+00  4.03355E+01  1.877E-01  2.000E+01  2.000E+04 -1.087E-01
   1   12   19     1    19    1.5549E+05 -2.8564E+03   1.5835E+05  0.000E+00  0.000E+00  0.000E+00  3.98600E+01  1.896E-01  2.000E+01  2.000E+04 -1.428E-01
   1   13   20     1    20    1.5835E+05 -2.3028E+03   1.6065E+05  0.000E+00  0.000E+00  0.000E+00  3.93846E+01  1.914E-01  2.000E+01  2.000E+04 -1.151E-01
   1   14   21     1    21    1.6065E+05 -2.0748E+03   1.6273E+05  0.000E+00  0.000E+00  0.000E+00  3.89089E+01  1.930E-01  2.000E+01  2.000E+04 -1.037E-01
   1   14   22     1    22    1.6273E+05  5.1614E+03   1.5756E+05  0.000E+00  0.000E+00  0.000E+00  3.84305E+01  1.919E-01  2.000E+01  2.000E+04  2.581E-01
   1    9   30     2     1    5.0000E+04 -1.6329E+03   5.1633E+04  0.000E+00  0.000E+00  0.000E+00  4.02420E+01  1.170E-01  2.000E+01  2.000E+04 -8.164E-02
   1    9   29     2     2    5.1633E+04 -1.8899E+03   5.3523E+04  0.000E+00  0.000E+00  0.000E+00  3.99944E+01  1.194E-01  2.000E+01  2.000E+04 -9.450E-02
   1    9   28     2     3    5.3523E+04 -2.1040E+03   5.5627E+04  0.000E+00  0.000E+00  0.000E+00  3.97471E+01  1.221E-01  2.000E+01  2.000E+04 -1.052E-01
   1    9   27     2     4    5.5627E+04 -3.8351E+03   5.9462E+04  0.000E+00  0.000E+00  0.000E+00  3.95011E+01  1.261E-01  2.000E+01  2.000E+04 -1.918E-01
   1   10   26     2     5    5.9462E+04 -2.2289E+03   6.1691E+04  0.000E+00  0.000E+00  0.000E+00  3.92550E+01  1.300E-01  2.000E+01  2.000E+04 -1.114E-01
   1   11   25     2     6    6.1691E+04 -1.5344E+03   6.3225E+04  0.000E+00  0.000E+00  0.000E+00  3.90074E+01  1.324E-01  2.000E+01  2.000E+04 -7.672E-02
   1   12   24     2     7    6.3225E+04 -9.7509E+02   6.4200E+04  0.000E+00  0.000E+00  0.000E+00  3.87590E+01  1.340E-01  2.000E+01  2.000E+04 -4.875E-02
   1   13   23     2     8    6.4200E+04 -4.8490E+02   6.4685E+04  0.000E+00  0.000E+00  0.000E+00  3.85099E+01  1.349E-01  2.000E+01  2.000E+04 -2.424E-02
   1   14   22     2     9    6.4685E+04  1.7337E+03   6.2951E+04  0.000E+00  0.000E+00  0.000E+00  3.82591E+01  1.341E-01  2.000E+01  2.000E+04  8.668E-02
   1   14   22     3     1    2.2052E+05 -8.4355E+03   2.2895E+05  0.000E+00  0.000E+00  0.000E+00  3.77507E+01  1.951E-01  2.000E+01  2.000E+04 -4.218E-01
   1   15   23     3     2    2.2895E+05 -2.9595E+03   2.3191E+05  0.000E+00  0.000E+00  0.000E+00  3.68647E+01  1.981E-01  2.000E+01  2.000E+04 -1.480E-01
   1   15   24     3     3    2.3191E+05 -2.0058E+03   2.3392E+05  0.000E+00  0.000E+00  0.000E+00  3.59771E+01  1.994E-01  2.000E+01  2.000E+04 -1.003E-01
   1   15   25     3     4    2.3392E+05 -1.8658E+03   2.3578E+05  0.000E+00  0.000E+00  0.000E+00  3.50892E+01  2.003E-01  2.000E+01  2.000E+04 -9.329E-02
   1   15   26     3     5    2.3578E+05 -2.1678E+03   2.3795E+05  0.000E+00  0.000E+00  0.000E+00  3.42014E+01  2.014E-01  2.000E+01  2.000E+04 -1.084E-01
   1   16   27     3     6    2.3795E+05 -3.1107E+03   2.4106E+05  0.000E+00  0.000E+00  0.000E+00  3.33138E+01  2.027E-01  2.000E+01  2.000E+04 -1.555E-01
   1   17   28     3     7    2.4106E+05 -3.9365E+03   2.4500E+05  0.000E+00  0.000E+00  0.000E+00  3.24267E+01  2.045E-01  2.000E+01  2.000E+04 -1.968E-01
   1   18   29     3     8    2.4500E+05 -5.6345E+03   2.5063E+05  0.000E+00  0.000E+00  0.000E+00  3.15402E+01  2.069E-01  2.000E+01  2.000E+04 -2.817E-01
   1   18   30     3     9    2.5063E+05 -4.6915E+03   2.5532E+05  0.000E+00  0.000E+00  0.000E+00  3.06539E+01  2.095E-01  2.000E+01  2.000E+04 -2.346E-01



1
              HEAD IN LAYER   1 AT END OF TIME STEP   1 IN STRESS PERIOD    7
  ---------------------------------------------------------------------------

          1      2      3      4      5      6      7      8      9     10
         11     12     13     14     15     16     17     18     19     20
         21     22     23     24     25     26     27     28     29     30
 .........................................................................
   1  ****** ****** ****** ****** ****** ****** ****** ****** ****** ******
      ****** ****** ****** ****** ****** ****** ****** ****** ****** ******
      ****** ****** ****** ****** ****** ****** ****** ****** ****** ******
   2  ****** ****** ****** ****** ****** ****** ****** ****** ****** ******
      ****** ****** ****** ****** ****** ****** ****** ****** ****** ******
      ****** ****** ****** ****** ****** ****** ****** ****** ****** ******
   3  ****** ****** ****** ****** ****** ****** ****** ****** ****** ******
      ****** ****** ****** ****** ****** ****** ****** ****** ****** ******
      ****** ****** ****** ****** ****** ****** ****** ****** ****** ******
   4  ****** ****** ****** ****** ****** ****** ****** ****** ****** ******
      ****** ****** ****** ****** ****** ****** ****** ****** ****** ******
      ****** ****** ****** ****** ****** ****** ****** ****** ****** ******
   5  ****** ****** ****** ****** ****** ****** ****** ****** ****** ******
      ****** ****** ****** ****** ****** ****** ****** ****** ****** ******
      ****** ****** ****** ****** ****** ****** ****** ****** ****** ******
   6  ****** ****** ****** ****** ****** ****** ****** ****** ****** ******
      ****** ****** ****** ****** ****** ****** ****** ****** ****** ******
      ****** ****** ****** ****** ****** ****** ****** ****** ****** ******
   7  ****** ****** ****** ****** ****** ****** ****** ****** ****** ******
      ****** ****** ****** ****** ****** ****** ****** ****** ****** ******
      ****** ****** ****** ****** ****** ****** ****** ****** ****** ******
   8  ****** ****** ****** ****** ****** ****** ****** ****** ****** ******
      ****** ****** ****** ****** ****** ****** ****** ****** ****** ******
      ****** ****** ****** ****** ****** ****** ****** ****** ****** ******
   9  ****** ****** ****** ****** ****** ****** ****** ****** ****** ******
      ****** ****** ****** ****** ****** ****** ****** ****** ****** ******
      ****** ****** ****** ****** ****** ****** ****** ****** ****** ******
  10  ****** ****** ****** ****** ****** ****** ****** ****** ****** ******
      ****** ****** ****** ****** ****** ****** ****** ****** ****** ******
      ****** ****** ****** ****** ****** ****** ****** ****** ****** ******
  11  ****** ****** ****** ****** ****** ****** ****** ****** ****** ******
      ****** ****** ****** ****** ****** ****** ****** ****** ****** ******
      ****** ****** ****** ****** ****** ****** ****** ****** ****** ******
  12  ****** ****** ****** ****** ****** ****** ****** ****** ****** ******
      ****** ****** ****** ****** ****** ****** ****** ****** ****** ******
      ****** ****** ****** ****** ****** ****** ****** ****** ****** ******
  13  ****** ****** ****** ****** ****** ****** ****** ****** ****** ******
      ****** ****** ****** ****** ****** ****** ****** ****** ****** ******
      ****** ****** ****** ****** ****** ****** ****** ****** ****** ******
  14  ****** ****** ****** ****** ****** ****** ****** ****** ****** ******
      ****** ****** ****** ****** ****** ****** ****** ****** ****** ******
      ****** ****** ****** ****** ****** ****** ****** ****** ****** ******
  15  ****** ****** ****** ****** ****** ****** ****** ****** ****** ******
      ****** ****** ****** ****** ****** ****** ****** ****** ****** ******
      ****** ****** ****** ****** ****** ****** ****** ****** ****** ******
  16  ****** ****** ****** ****** ****** ****** ****** ****** ****** ******
      ****** ****** ****** ****** ****** ****** ****** ****** ****** ******
      ****** ****** ****** ****** ****** ****** ****** ****** ****** ******
  17  ****** ****** ****** ****** ****** ****** ****** ****** ****** ******
      ****** ****** ****** ****** ****** ****** ****** ****** ****** ******
      ****** ****** ****** ****** ****** ****** ****** ****** ****** ******
  18  ****** ****** ****** ****** ****** ****** ****** ****** ****** ******
      ****** ****** ****** ****** ****** ****** ****** ****** ****** ******
      ****** ****** ****** ****** ****** ****** ****** ****** ****** ******
  19  ****** ****** ****** ****** ****** ****** ****** ****** ****** ******
      ****** ****** ****** ****** ****** ****** ****** ****** ****** ******
      ****** ****** ****** ****** ****** ****** ****** ****** ****** ******
  20  ****** ****** ****** ****** ****** ****** ****** ****** ****** ******
      ****** ****** ****** ****** ****** ****** ****** ****** ****** ******
      ****** ****** ****** ****** ****** ****** ****** ****** ****** ******
  21  ****** ****** ****** ****** ****** ****** ****** ****** ****** ******
      ****** ****** ****** ****** ****** ****** ****** ****** ****** ******
      ****** ****** ****** ****** ****** ****** ****** ****** ****** ******
  22  ****** ****** ****** ****** ****** ****** ****** ****** ****** ******
      ****** ****** ****** ****** ****** ****** ****** ****** ****** ******
      ****** ****** ****** ****** ****** ****** ****** ****** ****** ******
  23  ****** ****** ****** ****** ****** ****** ****** ****** ****** ******
      ****** ****** ****** ****** ****** ****** ****** ****** ****** ******
      ****** ****** ****** ****** ****** ****** ****** ****** ****** ******
  24  ****** ****** ****** ****** ****** ****** ****** ****** ****** ******
      ****** ****** ****** ****** ****** ****** ****** ****** ****** ******
      ****** ****** ****** ****** ****** ****** ****** ****** ****** ******
  25  ****** ****** ****** ****** ****** ****** ****** ****** ****** ******
      ****** ****** ****** ****** ****** ****** ****** ****** ****** ******
      ****** ****** ****** ****** ****** ****** ****** ****** ****** ******

 HEAD WILL BE SAVED ON UNIT   51 AT END OF TIME STEP    1, STRESS PERIOD    7
1
  VOLUMETRIC BUDGET FOR ENTIRE MODEL AT END OF TIME STEP    1, STRESS PERIOD   7
  ------------------------------------------------------------------------------

     CUMULATIVE VOLUMES      L**3       RATES FOR THIS TIME STEP      L**3/T
     ------------------                 ------------------------

           IN:                                      IN:
           ---                                      ---
             STORAGE =    25339151.1405               STORAGE =        9932.3711
       CONSTANT HEAD =   103564541.8484         CONSTANT HEAD =      175813.1486
               WELLS =           0.0000                 WELLS =           0.0000
            RECHARGE =    15097200.0000              RECHARGE =           0.0000
      STREAM LEAKAGE =     4135558.3457        STREAM LEAKAGE =        6895.0491

            TOTAL IN =   148136451.3347              TOTAL IN =      192640.5688

          OUT:                                     OUT:
          ----                                     ----
             STORAGE =     1032016.5900               STORAGE =        1072.3002
       CONSTANT HEAD =           0.0000         CONSTANT HEAD =           0.0000
               WELLS =    54790449.3555                 WELLS =       79349.6446
            RECHARGE =           0.0000              RECHARGE =           0.0000
      STREAM LEAKAGE =    92313986.2558        STREAM LEAKAGE =      112218.6262

           TOTAL OUT =   148136452.2013             TOTAL OUT =      192640.5710

            IN - OUT =          -0.8666              IN - OUT =      -2.1233E-03

 PERCENT DISCREPANCY =          -0.00     PERCENT DISCREPANCY =          -0.00






         TIME SUMMARY AT END OF TIME STEP    1 IN STRESS PERIOD    7
                    SECONDS     MINUTES      HOURS       DAYS        YEARS
                    -----------------------------------------------------------
   TIME STEP LENGTH 7.86240E+06 1.31040E+05  2184.0      91.000     0.24914    
 STRESS PERIOD TIME 7.86240E+06 1.31040E+05  2184.0      91.000     0.24914    
         TOTAL TIME 5.52096E+07 9.20160E+05  15336.      639.00      1.7495    
1
1
                            STRESS PERIOD NO.    8, LENGTH =   91.00000    
                            -----------------------------------------------

                              NUMBER OF TIME STEPS =     1

                               MULTIPLIER FOR DELT =     1.500

                            INITIAL TIME STEP SIZE =   91.00000    

 WELL NO.  LAYER   ROW   COL   STRESS RATE         
 --------------------------------------------------
      1      1      5     14     -0.2088E+05
      2      1      4     17     -0.2248E+05
      3      1      3     26     -0.3599E+05

      3 WELLS

                 RECHARGE =  1.000000E-03

 REUSING STREAM SEGMENT DATA FROM LAST STRESS PERIOD
 
 SOLVING FOR HEAD 


     6 CALLS TO PCG ROUTINE FOR TIME STEP   1 IN STRESS PERIOD    8
    23 TOTAL ITERATIONS

 OUTPUT CONTROL FOR STRESS PERIOD    8   TIME STEP    1
    SAVE BUDGET
    SAVE HEAD FOR ALL LAYERS
    PRINT HEAD FOR ALL LAYERS
 UBDSV2 SAVING "STREAMFLOW OUT  " ON UNIT  50 AT TIME STEP  1, STRESS PERIOD   8



 STREAM LISTING     PERIOD      8   STEP        1

 LAYER ROW COL. STREAM  RCH.  FLOW INTO     FLOW TO   FLOW OUT OF   OVRLND.     DIRECT     STREAM       STREAM     STREAM     STREAM   STREAMBED  STREAMBED
                SEG.NO.  NO.  STRM. RCH.    AQUIFER    STRM. RCH.    RUNOFF     PRECIP       ET          HEAD       DEPTH      WIDTH   CONDCTNC.   GRADIENT

   1   13    1     1     1    1.0000E+05 -2.6511E+03   1.0265E+05  0.000E+00  0.000E+00  0.000E+00  4.84072E+01  1.458E-01  2.000E+01  2.000E+04 -1.326E-01
   1   13    2     1     2    1.0265E+05 -4.4045E+03   1.0706E+05  0.000E+00  0.000E+00  0.000E+00  4.79329E+01  1.488E-01  2.000E+01  2.000E+04 -2.202E-01
   1   14    3     1     3    1.0706E+05 -3.5747E+03   1.1063E+05  0.000E+00  0.000E+00  0.000E+00  4.74590E+01  1.522E-01  2.000E+01  2.000E+04 -1.787E-01
   1   15    4     1     4    1.1063E+05 -3.5414E+03   1.1417E+05  0.000E+00  0.000E+00  0.000E+00  4.69847E+01  1.552E-01  2.000E+01  2.000E+04 -1.771E-01
   1   16    5     1     5    1.1417E+05 -4.0092E+03   1.1818E+05  0.000E+00  0.000E+00  0.000E+00  4.65105E+01  1.583E-01  2.000E+01  2.000E+04 -2.005E-01
   1   16    6     1     6    1.1818E+05 -3.0973E+03   1.2128E+05  0.000E+00  0.000E+00  0.000E+00  4.60362E+01  1.612E-01  2.000E+01  2.000E+04 -1.549E-01
   1   16    7     1     7    1.2128E+05 -3.1288E+03   1.2441E+05  0.000E+00  0.000E+00  0.000E+00  4.55614E+01  1.637E-01  2.000E+01  2.000E+04 -1.564E-01
   1   16    8     1     8    1.2441E+05 -3.1428E+03   1.2755E+05  0.000E+00  0.000E+00  0.000E+00  4.50866E+01  1.662E-01  2.000E+01  2.000E+04 -1.571E-01
   1   16    9     1     9    1.2755E+05 -3.1270E+03   1.3068E+05  0.000E+00  0.000E+00  0.000E+00  4.46118E+01  1.686E-01  2.000E+01  2.000E+04 -1.563E-01
   1   16   10     1    10    1.3068E+05 -3.0912E+03   1.3377E+05  0.000E+00  0.000E+00  0.000E+00  4.41370E+01  1.710E-01  2.000E+01  2.000E+04 -1.546E-01
   1   16   11     1    11    1.3377E+05 -3.0750E+03   1.3684E+05  0.000E+00  0.000E+00  0.000E+00  4.36621E+01  1.734E-01  2.000E+01  2.000E+04 -1.537E-01
   1   16   12     1    12    1.3684E+05 -4.2323E+03   1.4108E+05  0.000E+00  0.000E+00  0.000E+00  4.31876E+01  1.762E-01  2.000E+01  2.000E+04 -2.116E-01
   1   15   13     1    13    1.4108E+05 -3.6095E+03   1.4468E+05  0.000E+00  0.000E+00  0.000E+00  4.27133E+01  1.792E-01  2.000E+01  2.000E+04 -1.805E-01
   1   14   14     1    14    1.4468E+05 -3.3869E+03   1.4807E+05  0.000E+00  0.000E+00  0.000E+00  4.22386E+01  1.818E-01  2.000E+01  2.000E+04 -1.693E-01
   1   13   15     1    15    1.4807E+05 -3.2613E+03   1.5133E+05  0.000E+00  0.000E+00  0.000E+00  4.17638E+01  1.843E-01  2.000E+01  2.000E+04 -1.631E-01
   1   12   16     1    16    1.5133E+05 -3.5069E+03   1.5484E+05  0.000E+00  0.000E+00  0.000E+00  4.12890E+01  1.868E-01  2.000E+01  2.000E+04 -1.753E-01
   1   12   17     1    17    1.5484E+05 -2.4302E+03   1.5727E+05  0.000E+00  0.000E+00  0.000E+00  4.08139E+01  1.889E-01  2.000E+01  2.000E+04 -1.215E-01
   1   12   18     1    18    1.5727E+05 -2.4030E+03   1.5967E+05  0.000E+00  0.000E+00  0.000E+00  4.03384E+01  1.907E-01  2.000E+01  2.000E+04 -1.201E-01
   1   12   19     1    19    1.5967E+05 -3.1329E+03   1.6281E+05  0.000E+00  0.000E+00  0.000E+00  3.98631E+01  1.927E-01  2.000E+01  2.000E+04 -1.566E-01
   1   13   20     1    20    1.6281E+05 -2.5457E+03   1.6535E+05  0.000E+00  0.000E+00  0.000E+00  3.93879E+01  1.947E-01  2.000E+01  2.000E+04 -1.273E-01
   1   14   21     1    21    1.6535E+05 -2.2780E+03   1.6763E+05  0.000E+00  0.000E+00  0.000E+00  3.89123E+01  1.964E-01  2.000E+01  2.000E+04 -1.139E-01
   1   14   22     1    22    1.6763E+05  5.1176E+03   1.6251E+05  0.000E+00  0.000E+00  0.000E+00  3.84340E+01  1.954E-01  2.000E+01  2.000E+04  2.559E-01
   1    9   30     2     1    5.0000E+04 -1.8038E+03   5.1804E+04  0.000E+00  0.000E+00  0.000E+00  4.02421E+01  1.171E-01  2.000E+01  2.000E+04 -9.019E-02
   1    9   29     2     2    5.1804E+04 -2.0596E+03   5.3863E+04  0.000E+00  0.000E+00  0.000E+00  3.99948E+01  1.198E-01  2.000E+01  2.000E+04 -1.030E-01
   1    9   28     2     3    5.3863E+04 -2.2725E+03   5.6136E+04  0.000E+00  0.000E+00  0.000E+00  3.97477E+01  1.227E-01  2.000E+01  2.000E+04 -1.136E-01
   1    9   27     2     4    5.6136E+04 -4.0560E+03   6.0192E+04  0.000E+00  0.000E+00  0.000E+00  3.95019E+01  1.269E-01  2.000E+01  2.000E+04 -2.028E-01
   1   10   26     2     5    6.0192E+04 -2.4787E+03   6.2671E+04  0.000E+00  0.000E+00  0.000E+00  3.92561E+01  1.311E-01  2.000E+01  2.000E+04 -1.239E-01
   1   11   25     2     6    6.2671E+04 -1.7842E+03   6.4455E+04  0.000E+00  0.000E+00  0.000E+00  3.90088E+01  1.338E-01  2.000E+01  2.000E+04 -8.921E-02
   1   12   24     2     7    6.4455E+04 -1.2052E+03   6.5660E+04  0.000E+00  0.000E+00  0.000E+00  3.87607E+01  1.357E-01  2.000E+01  2.000E+04 -6.026E-02
   1   13   23     2     8    6.5660E+04 -6.7128E+02   6.6331E+04  0.000E+00  0.000E+00  0.000E+00  3.85119E+01  1.369E-01  2.000E+01  2.000E+04 -3.356E-02
   1   14   22     2     9    6.6331E+04  1.6618E+03   6.4669E+04  0.000E+00  0.000E+00  0.000E+00  3.82612E+01  1.362E-01  2.000E+01  2.000E+04  8.309E-02
   1   14   22     3     1    2.2718E+05 -8.4804E+03   2.3566E+05  0.000E+00  0.000E+00  0.000E+00  3.77541E+01  1.986E-01  2.000E+01  2.000E+04 -4.240E-01
   1   15   23     3     2    2.3566E+05 -3.1434E+03   2.3881E+05  0.000E+00  0.000E+00  0.000E+00  3.68682E+01  2.016E-01  2.000E+01  2.000E+04 -1.572E-01
   1   15   24     3     3    2.3881E+05 -2.1499E+03   2.4096E+05  0.000E+00  0.000E+00  0.000E+00  3.59807E+01  2.029E-01  2.000E+01  2.000E+04 -1.075E-01
   1   15   25     3     4    2.4096E+05 -2.0147E+03   2.4297E+05  0.000E+00  0.000E+00  0.000E+00  3.50929E+01  2.040E-01  2.000E+01  2.000E+04 -1.007E-01
   1   15   26     3     5    2.4297E+05 -2.3625E+03   2.4533E+05  0.000E+00  0.000E+00  0.000E+00  3.42051E+01  2.051E-01  2.000E+01  2.000E+04 -1.181E-01
   1   16   27     3     6    2.4533E+05 -3.3447E+03   2.4868E+05  0.000E+00  0.000E+00  0.000E+00  3.33176E+01  2.065E-01  2.000E+01  2.000E+04 -1.672E-01
   1   17   28     3     7    2.4868E+05 -4.1729E+03   2.5285E+05  0.000E+00  0.000E+00  0.000E+00  3.24306E+01  2.084E-01  2.000E+01  2.000E+04 -2.086E-01
   1   18   29     3     8    2.5285E+05 -5.8506E+03   2.5870E+05  0.000E+00  0.000E+00  0.000E+00  3.15442E+01  2.109E-01  2.000E+01  2.000E+04 -2.925E-01
   1   18   30     3     9    2.5870E+05 -4.8619E+03   2.6356E+05  0.000E+00  0.000E+00  0.000E+00  3.06580E+01  2.135E-01  2.000E+01  2.000E+04 -2.431E-01



1
              HEAD IN LAYER   1 AT END OF TIME STEP   1 IN STRESS PERIOD    8
  ---------------------------------------------------------------------------

          1      2      3      4      5      6      7      8      9     10
         11     12     13     14     15     16     17     18     19     20
         21     22     23     24     25     26     27     28     29     30
 .........................................................................
   1  ****** ****** ****** ****** ****** ****** ****** ****** ****** ******
      ****** ****** ****** ****** ****** ****** ****** ****** ****** ******
      ****** ****** ****** ****** ****** ****** ****** ****** ****** ******
   2  ****** ****** ****** ****** ****** ****** ****** ****** ****** ******
      ****** ****** ****** ****** ****** ****** ****** ****** ****** ******
      ****** ****** ****** ****** ****** ****** ****** ****** ****** ******
   3  ****** ****** ****** ****** ****** ****** ****** ****** ****** ******
      ****** ****** ****** ****** ****** ****** ****** ****** ****** ******
      ****** ****** ****** ****** ****** ****** ****** ****** ****** ******
   4  ****** ****** ****** ****** ****** ****** ****** ****** ****** ******
      ****** ****** ****** ****** ****** ****** ****** ****** ****** ******
      ****** ****** ****** ****** ****** ****** ****** ****** ****** ******
   5  ****** ****** ****** ****** ****** ****** ****** ****** ****** ******
      ****** ****** ****** ****** ****** ****** ****** ****** ****** ******
      ****** ****** ****** ****** ****** ****** ****** ****** ****** ******
   6  ****** ****** ****** ****** ****** ****** ****** ****** ****** ******
      ****** ****** ****** ****** ****** ****** ****** ****** ****** ******
      ****** ****** ****** ****** ****** ****** ****** ****** ****** ******
   7  ****** ****** ****** ****** ****** ****** ****** ****** ****** ******
      ****** ****** ****** ****** ****** ****** ****** ****** ****** ******
      ****** ****** ****** ****** ****** ****** ****** ****** ****** ******
   8  ****** ****** ****** ****** ****** ****** ****** ****** ****** ******
      ****** ****** ****** ****** ****** ****** ****** ****** ****** ******
      ****** ****** ****** ****** ****** ****** ****** ****** ****** ******
   9  ****** ****** ****** ****** ****** ****** ****** ****** ****** ******
      ****** ****** ****** ****** ****** ****** ****** ****** ****** ******
      ****** ****** ****** ****** ****** ****** ****** ****** ****** ******
  10  ****** ****** ****** ****** ****** ****** ****** ****** ****** ******
      ****** ****** ****** ****** ****** ****** ****** ****** ****** ******
      ****** ****** ****** ****** ****** ****** ****** ****** ****** ******
  11  ****** ****** ****** ****** ****** ****** ****** ****** ****** ******
      ****** ****** ****** ****** ****** ****** ****** ****** ****** ******
      ****** ****** ****** ****** ****** ****** ****** ****** ****** ******
  12  ****** ****** ****** ****** ****** ****** ****** ****** ****** ******
      ****** ****** ****** ****** ****** ****** ****** ****** ****** ******
      ****** ****** ****** ****** ****** ****** ****** ****** ****** ******
  13  ****** ****** ****** ****** ****** ****** ****** ****** ****** ******
      ****** ****** ****** ****** ****** ****** ****** ****** ****** ******
      ****** ****** ****** ****** ****** ****** ****** ****** ****** ******
  14  ****** ****** ****** ****** ****** ****** ****** ****** ****** ******
      ****** ****** ****** ****** ****** ****** ****** ****** ****** ******
      ****** ****** ****** ****** ****** ****** ****** ****** ****** ******
  15  ****** ****** ****** ****** ****** ****** ****** ****** ****** ******
      ****** ****** ****** ****** ****** ****** ****** ****** ****** ******
      ****** ****** ****** ****** ****** ****** ****** ****** ****** ******
  16  ****** ****** ****** ****** ****** ****** ****** ****** ****** ******
      ****** ****** ****** ****** ****** ****** ****** ****** ****** ******
      ****** ****** ****** ****** ****** ****** ****** ****** ****** ******
  17  ****** ****** ****** ****** ****** ****** ****** ****** ****** ******
      ****** ****** ****** ****** ****** ****** ****** ****** ****** ******
      ****** ****** ****** ****** ****** ****** ****** ****** ****** ******
  18  ****** ****** ****** ****** ****** ****** ****** ****** ****** ******
      ****** ****** ****** ****** ****** ****** ****** ****** ****** ******
      ****** ****** ****** ****** ****** ****** ****** ****** ****** ******
  19  ****** ****** ****** ****** ****** ****** ****** ****** ****** ******
      ****** ****** ****** ****** ****** ****** ****** ****** ****** ******
      ****** ****** ****** ****** ****** ****** ****** ****** ****** ******
  20  ****** ****** ****** ****** ****** ****** ****** ****** ****** ******
      ****** ****** ****** ****** ****** ****** ****** ****** ****** ******
      ****** ****** ****** ****** ****** ****** ****** ****** ****** ******
  21  ****** ****** ****** ****** ****** ****** ****** ****** ****** ******
      ****** ****** ****** ****** ****** ****** ****** ****** ****** ******
      ****** ****** ****** ****** ****** ****** ****** ****** ****** ******
  22  ****** ****** ****** ****** ****** ****** ****** ****** ****** ******
      ****** ****** ****** ****** ****** ****** ****** ****** ****** ******
      ****** ****** ****** ****** ****** ****** ****** ****** ****** ******
  23  ****** ****** ****** ****** ****** ****** ****** ****** ****** ******
      ****** ****** ****** ****** ****** ****** ****** ****** ****** ******
      ****** ****** ****** ****** ****** ****** ****** ****** ****** ******
  24  ****** ****** ****** ****** ****** ****** ****** ****** ****** ******
      ****** ****** ****** ****** ****** ****** ****** ****** ****** ******
      ****** ****** ****** ****** ****** ****** ****** ****** ****** ******
  25  ****** ****** ****** ****** ****** ****** ****** ****** ****** ******
      ****** ****** ****** ****** ****** ****** ****** ****** ****** ******
      ****** ****** ****** ****** ****** ****** ****** ****** ****** ******

 HEAD WILL BE SAVED ON UNIT   51 AT END OF TIME STEP    1, STRESS PERIOD    8
1
  VOLUMETRIC BUDGET FOR ENTIRE MODEL AT END OF TIME STEP    1, STRESS PERIOD   8
  ------------------------------------------------------------------------------

     CUMULATIVE VOLUMES      L**3       RATES FOR THIS TIME STEP      L**3/T
     ------------------                 ------------------------

           IN:                                      IN:
           ---                                      ---
             STORAGE =    25339151.1405               STORAGE =           0.0000
       CONSTANT HEAD =   119059143.8057         CONSTANT HEAD =      170270.3512
               WELLS =           0.0000                 WELLS =           0.0000
            RECHARGE =    17608800.0000              RECHARGE =       27600.0000
      STREAM LEAKAGE =     4752480.5284        STREAM LEAKAGE =        6779.3646

            TOTAL IN =   166759575.4747              TOTAL IN =      204649.7158

          OUT:                                     OUT:
          ----                                     ----
             STORAGE =     1483216.2523               STORAGE =        4958.2380
       CONSTANT HEAD =           0.0000         CONSTANT HEAD =           0.0000
               WELLS =    62011267.0143                 WELLS =       79349.6446
            RECHARGE =           0.0000              RECHARGE =           0.0000
      STREAM LEAKAGE =   103265092.9943        STREAM LEAKAGE =      120341.8323

           TOTAL OUT =   166759576.2609             TOTAL OUT =      204649.7149

            IN - OUT =          -0.7862              IN - OUT =       8.8377E-04

 PERCENT DISCREPANCY =          -0.00     PERCENT DISCREPANCY =           0.00






         TIME SUMMARY AT END OF TIME STEP    1 IN STRESS PERIOD    8
                    SECONDS     MINUTES      HOURS       DAYS        YEARS
                    -----------------------------------------------------------
   TIME STEP LENGTH 7.86240E+06 1.31040E+05  2184.0      91.000     0.24914    
 STRESS PERIOD TIME 7.86240E+06 1.31040E+05  2184.0      91.000     0.24914    
         TOTAL TIME 6.30720E+07 1.05120E+06  17520.      730.00      1.9986    
1
1
                            STRESS PERIOD NO.    9, LENGTH =   92.00000    
                            -----------------------------------------------

                              NUMBER OF TIME STEPS =     1

                               MULTIPLIER FOR DELT =     1.500

                            INITIAL TIME STEP SIZE =   92.00000    

 WELL NO.  LAYER   ROW   COL   STRESS RATE         
 --------------------------------------------------
      1      1      5     14     -0.2088E+05
      2      1      4     17     -0.2248E+05
      3      1      3     26     -0.3599E+05

      3 WELLS

                 RECHARGE =  5.000000E-04

 REUSING STREAM SEGMENT DATA FROM LAST STRESS PERIOD
 
 SOLVING FOR HEAD 


     6 CALLS TO PCG ROUTINE FOR TIME STEP   1 IN STRESS PERIOD    9
    22 TOTAL ITERATIONS

 OUTPUT CONTROL FOR STRESS PERIOD    9   TIME STEP    1
    SAVE BUDGET
    SAVE HEAD FOR ALL LAYERS
    PRINT HEAD FOR ALL LAYERS
 UBDSV2 SAVING "STREAMFLOW OUT  " ON UNIT  50 AT TIME STEP  1, STRESS PERIOD   9



 STREAM LISTING     PERIOD      9   STEP        1

 LAYER ROW COL. STREAM  RCH.  FLOW INTO     FLOW TO   FLOW OUT OF   OVRLND.     DIRECT     STREAM       STREAM     STREAM     STREAM   STREAMBED  STREAMBED
                SEG.NO.  NO.  STRM. RCH.    AQUIFER    STRM. RCH.    RUNOFF     PRECIP       ET          HEAD       DEPTH      WIDTH   CONDCTNC.   GRADIENT

   1   13    1     1     1    1.0000E+05 -2.5446E+03   1.0254E+05  0.000E+00  0.000E+00  0.000E+00  4.84071E+01  1.458E-01  2.000E+01  2.000E+04 -1.272E-01
   1   13    2     1     2    1.0254E+05 -4.2685E+03   1.0681E+05  0.000E+00  0.000E+00  0.000E+00  4.79328E+01  1.487E-01  2.000E+01  2.000E+04 -2.134E-01
   1   14    3     1     3    1.0681E+05 -3.4322E+03   1.1025E+05  0.000E+00  0.000E+00  0.000E+00  4.74588E+01  1.519E-01  2.000E+01  2.000E+04 -1.716E-01
   1   15    4     1     4    1.1025E+05 -3.3990E+03   1.1364E+05  0.000E+00  0.000E+00  0.000E+00  4.69843E+01  1.548E-01  2.000E+01  2.000E+04 -1.700E-01
   1   16    5     1     5    1.1364E+05 -3.8761E+03   1.1752E+05  0.000E+00  0.000E+00  0.000E+00  4.65101E+01  1.578E-01  2.000E+01  2.000E+04 -1.938E-01
   1   16    6     1     6    1.1752E+05 -2.9933E+03   1.2051E+05  0.000E+00  0.000E+00  0.000E+00  4.60356E+01  1.606E-01  2.000E+01  2.000E+04 -1.497E-01
   1   16    7     1     7    1.2051E+05 -3.0244E+03   1.2354E+05  0.000E+00  0.000E+00  0.000E+00  4.55607E+01  1.630E-01  2.000E+01  2.000E+04 -1.512E-01
   1   16    8     1     8    1.2354E+05 -3.0383E+03   1.2658E+05  0.000E+00  0.000E+00  0.000E+00  4.50859E+01  1.654E-01  2.000E+01  2.000E+04 -1.519E-01
   1   16    9     1     9    1.2658E+05 -3.0232E+03   1.2960E+05  0.000E+00  0.000E+00  0.000E+00  4.46110E+01  1.678E-01  2.000E+01  2.000E+04 -1.512E-01
   1   16   10     1    10    1.2960E+05 -2.9885E+03   1.3259E+05  0.000E+00  0.000E+00  0.000E+00  4.41361E+01  1.702E-01  2.000E+01  2.000E+04 -1.494E-01
   1   16   11     1    11    1.3259E+05 -2.9733E+03   1.3556E+05  0.000E+00  0.000E+00  0.000E+00  4.36611E+01  1.725E-01  2.000E+01  2.000E+04 -1.487E-01
   1   16   12     1    12    1.3556E+05 -4.0994E+03   1.3966E+05  0.000E+00  0.000E+00  0.000E+00  4.31866E+01  1.752E-01  2.000E+01  2.000E+04 -2.050E-01
   1   15   13     1    13    1.3966E+05 -3.4709E+03   1.4313E+05  0.000E+00  0.000E+00  0.000E+00  4.27122E+01  1.781E-01  2.000E+01  2.000E+04 -1.735E-01
   1   14   14     1    14    1.4313E+05 -3.2516E+03   1.4638E+05  0.000E+00  0.000E+00  0.000E+00  4.22374E+01  1.806E-01  2.000E+01  2.000E+04 -1.626E-01
   1   13   15     1    15    1.4638E+05 -3.1360E+03   1.4952E+05  0.000E+00  0.000E+00  0.000E+00  4.17625E+01  1.830E-01  2.000E+01  2.000E+04 -1.568E-01
   1   12   16     1    16    1.4952E+05 -3.4052E+03   1.5292E+05  0.000E+00  0.000E+00  0.000E+00  4.12877E+01  1.854E-01  2.000E+01  2.000E+04 -1.703E-01
   1   12   17     1    17    1.5292E+05 -2.3460E+03   1.5527E+05  0.000E+00  0.000E+00  0.000E+00  4.08125E+01  1.875E-01  2.000E+01  2.000E+04 -1.173E-01
   1   12   18     1    18    1.5527E+05 -2.3177E+03   1.5759E+05  0.000E+00  0.000E+00  0.000E+00  4.03369E+01  1.892E-01  2.000E+01  2.000E+04 -1.159E-01
   1   12   19     1    19    1.5759E+05 -3.0294E+03   1.6062E+05  0.000E+00  0.000E+00  0.000E+00  3.98616E+01  1.911E-01  2.000E+01  2.000E+04 -1.515E-01
   1   13   20     1    20    1.6062E+05 -2.4274E+03   1.6304E+05  0.000E+00  0.000E+00  0.000E+00  3.93863E+01  1.931E-01  2.000E+01  2.000E+04 -1.214E-01
   1   14   21     1    21    1.6304E+05 -2.1638E+03   1.6521E+05  0.000E+00  0.000E+00  0.000E+00  3.89106E+01  1.947E-01  2.000E+01  2.000E+04 -1.082E-01
   1   14   22     1    22    1.6521E+05  5.1415E+03   1.6007E+05  0.000E+00  0.000E+00  0.000E+00  3.84323E+01  1.937E-01  2.000E+01  2.000E+04  2.571E-01
   1    9   30     2     1    5.0000E+04 -1.7037E+03   5.1704E+04  0.000E+00  0.000E+00  0.000E+00  4.02420E+01  1.170E-01  2.000E+01  2.000E+04 -8.518E-02
   1    9   29     2     2    5.1704E+04 -1.9606E+03   5.3664E+04  0.000E+00  0.000E+00  0.000E+00  3.99946E+01  1.196E-01  2.000E+01  2.000E+04 -9.803E-02
   1    9   28     2     3    5.3664E+04 -2.1751E+03   5.5839E+04  0.000E+00  0.000E+00  0.000E+00  3.97474E+01  1.224E-01  2.000E+01  2.000E+04 -1.088E-01
   1    9   27     2     4    5.5839E+04 -3.9332E+03   5.9773E+04  0.000E+00  0.000E+00  0.000E+00  3.95014E+01  1.264E-01  2.000E+01  2.000E+04 -1.967E-01
   1   10   26     2     5    5.9773E+04 -2.3519E+03   6.2124E+04  0.000E+00  0.000E+00  0.000E+00  3.92555E+01  1.305E-01  2.000E+01  2.000E+04 -1.176E-01
   1   11   25     2     6    6.2124E+04 -1.6637E+03   6.3788E+04  0.000E+00  0.000E+00  0.000E+00  3.90080E+01  1.330E-01  2.000E+01  2.000E+04 -8.318E-02
   1   12   24     2     7    6.3788E+04 -1.0977E+03   6.4886E+04  0.000E+00  0.000E+00  0.000E+00  3.87598E+01  1.348E-01  2.000E+01  2.000E+04 -5.489E-02
   1   13   23     2     8    6.4886E+04 -5.8500E+02   6.5471E+04  0.000E+00  0.000E+00  0.000E+00  3.85108E+01  1.358E-01  2.000E+01  2.000E+04 -2.925E-02
   1   14   22     2     9    6.5471E+04  1.6983E+03   6.3773E+04  0.000E+00  0.000E+00  0.000E+00  3.82601E+01  1.351E-01  2.000E+01  2.000E+04  8.492E-02
   1   14   22     3     1    2.2384E+05 -8.4564E+03   2.3230E+05  0.000E+00  0.000E+00  0.000E+00  3.77524E+01  1.969E-01  2.000E+01  2.000E+04 -4.228E-01
   1   15   23     3     2    2.3230E+05 -3.0339E+03   2.3533E+05  0.000E+00  0.000E+00  0.000E+00  3.68665E+01  1.998E-01  2.000E+01  2.000E+04 -1.517E-01
   1   15   24     3     3    2.3533E+05 -2.0683E+03   2.3740E+05  0.000E+00  0.000E+00  0.000E+00  3.59789E+01  2.011E-01  2.000E+01  2.000E+04 -1.034E-01
   1   15   25     3     4    2.3740E+05 -1.9323E+03   2.3933E+05  0.000E+00  0.000E+00  0.000E+00  3.50910E+01  2.021E-01  2.000E+01  2.000E+04 -9.662E-02
   1   15   26     3     5    2.3933E+05 -2.2571E+03   2.4159E+05  0.000E+00  0.000E+00  0.000E+00  3.42032E+01  2.032E-01  2.000E+01  2.000E+04 -1.129E-01
   1   16   27     3     6    2.4159E+05 -3.2146E+03   2.4480E+05  0.000E+00  0.000E+00  0.000E+00  3.33157E+01  2.046E-01  2.000E+01  2.000E+04 -1.607E-01
   1   17   28     3     7    2.4480E+05 -4.0407E+03   2.4884E+05  0.000E+00  0.000E+00  0.000E+00  3.24286E+01  2.064E-01  2.000E+01  2.000E+04 -2.020E-01
   1   18   29     3     8    2.4884E+05 -5.7277E+03   2.5457E+05  0.000E+00  0.000E+00  0.000E+00  3.15422E+01  2.089E-01  2.000E+01  2.000E+04 -2.864E-01
   1   18   30     3     9    2.5457E+05 -4.7677E+03   2.5934E+05  0.000E+00  0.000E+00  0.000E+00  3.06559E+01  2.115E-01  2.000E+01  2.000E+04 -2.384E-01



1
              HEAD IN LAYER   1 AT END OF TIME STEP   1 IN STRESS PERIOD    9
  ---------------------------------------------------------------------------

          1      2      3      4      5      6      7      8      9     10
         11     12     13     14     15     16     17     18     19     20
         21     22     23     24     25     26     27     28     29     30
 .........................................................................
   1  ****** ****** ****** ****** ****** ****** ****** ****** ****** ******
      ****** ****** ****** ****** ****** ****** ****** ****** ****** ******
      ****** ****** ****** ****** ****** ****** ****** ****** ****** ******
   2  ****** ****** ****** ****** ****** ****** ****** ****** ****** ******
      ****** ****** ****** ****** ****** ****** ****** ****** ****** ******
      ****** ****** ****** ****** ****** ****** ****** ****** ****** ******
   3  ****** ****** ****** ****** ****** ****** ****** ****** ****** ******
      ****** ****** ****** ****** ****** ****** ****** ****** ****** ******
      ****** ****** ****** ****** ****** ****** ****** ****** ****** ******
   4  ****** ****** ****** ****** ****** ****** ****** ****** ****** ******
      ****** ****** ****** ****** ****** ****** ****** ****** ****** ******
      ****** ****** ****** ****** ****** ****** ****** ****** ****** ******
   5  ****** ****** ****** ****** ****** ****** ****** ****** ****** ******
      ****** ****** ****** ****** ****** ****** ****** ****** ****** ******
      ****** ****** ****** ****** ****** ****** ****** ****** ****** ******
   6  ****** ****** ****** ****** ****** ****** ****** ****** ****** ******
      ****** ****** ****** ****** ****** ****** ****** ****** ****** ******
      ****** ****** ****** ****** ****** ****** ****** ****** ****** ******
   7  ****** ****** ****** ****** ****** ****** ****** ****** ****** ******
      ****** ****** ****** ****** ****** ****** ****** ****** ****** ******
      ****** ****** ****** ****** ****** ****** ****** ****** ****** ******
   8  ****** ****** ****** ****** ****** ****** ****** ****** ****** ******
      ****** ****** ****** ****** ****** ****** ****** ****** ****** ******
      ****** ****** ****** ****** ****** ****** ****** ****** ****** ******
   9  ****** ****** ****** ****** ****** ****** ****** ****** ****** ******
      ****** ****** ****** ****** ****** ****** ****** ****** ****** ******
      ****** ****** ****** ****** ****** ****** ****** ****** ****** ******
  10  ****** ****** ****** ****** ****** ****** ****** ****** ****** ******
      ****** ****** ****** ****** ****** ****** ****** ****** ****** ******
      ****** ****** ****** ****** ****** ****** ****** ****** ****** ******
  11  ****** ****** ****** ****** ****** ****** ****** ****** ****** ******
      ****** ****** ****** ****** ****** ****** ****** ****** ****** ******
      ****** ****** ****** ****** ****** ****** ****** ****** ****** ******
  12  ****** ****** ****** ****** ****** ****** ****** ****** ****** ******
      ****** ****** ****** ****** ****** ****** ****** ****** ****** ******
      ****** ****** ****** ****** ****** ****** ****** ****** ****** ******
  13  ****** ****** ****** ****** ****** ****** ****** ****** ****** ******
      ****** ****** ****** ****** ****** ****** ****** ****** ****** ******
      ****** ****** ****** ****** ****** ****** ****** ****** ****** ******
  14  ****** ****** ****** ****** ****** ****** ****** ****** ****** ******
      ****** ****** ****** ****** ****** ****** ****** ****** ****** ******
      ****** ****** ****** ****** ****** ****** ****** ****** ****** ******
  15  ****** ****** ****** ****** ****** ****** ****** ****** ****** ******
      ****** ****** ****** ****** ****** ****** ****** ****** ****** ******
      ****** ****** ****** ****** ****** ****** ****** ****** ****** ******
  16  ****** ****** ****** ****** ****** ****** ****** ****** ****** ******
      ****** ****** ****** ****** ****** ****** ****** ****** ****** ******
      ****** ****** ****** ****** ****** ****** ****** ****** ****** ******
  17  ****** ****** ****** ****** ****** ****** ****** ****** ****** ******
      ****** ****** ****** ****** ****** ****** ****** ****** ****** ******
      ****** ****** ****** ****** ****** ****** ****** ****** ****** ******
  18  ****** ****** ****** ****** ****** ****** ****** ****** ****** ******
      ****** ****** ****** ****** ****** ****** ****** ****** ****** ******
      ****** ****** ****** ****** ****** ****** ****** ****** ****** ******
  19  ****** ****** ****** ****** ****** ****** ****** ****** ****** ******
      ****** ****** ****** ****** ****** ****** ****** ****** ****** ******
      ****** ****** ****** ****** ****** ****** ****** ****** ****** ******
  20  ****** ****** ****** ****** ****** ****** ****** ****** ****** ******
      ****** ****** ****** ****** ****** ****** ****** ****** ****** ******
      ****** ****** ****** ****** ****** ****** ****** ****** ****** ******
  21  ****** ****** ****** ****** ****** ****** ****** ****** ****** ******
      ****** ****** ****** ****** ****** ****** ****** ****** ****** ******
      ****** ****** ****** ****** ****** ****** ****** ****** ****** ******
  22  ****** ****** ****** ****** ****** ****** ****** ****** ****** ******
      ****** ****** ****** ****** ****** ****** ****** ****** ****** ******
      ****** ****** ****** ****** ****** ****** ****** ****** ****** ******
  23  ****** ****** ****** ****** ****** ****** ****** ****** ****** ******
      ****** ****** ****** ****** ****** ****** ****** ****** ****** ******
      ****** ****** ****** ****** ****** ****** ****** ****** ****** ******
  24  ****** ****** ****** ****** ****** ****** ****** ****** ****** ******
      ****** ****** ****** ****** ****** ****** ****** ****** ****** ******
      ****** ****** ****** ****** ****** ****** ****** ****** ****** ******
  25  ****** ****** ****** ****** ****** ****** ****** ****** ****** ******
      ****** ****** ****** ****** ****** ****** ****** ****** ****** ******
      ****** ****** ****** ****** ****** ****** ****** ****** ****** ******

 HEAD WILL BE SAVED ON UNIT   51 AT END OF TIME STEP    1, STRESS PERIOD    9
1
  VOLUMETRIC BUDGET FOR ENTIRE MODEL AT END OF TIME STEP    1, STRESS PERIOD   9
  ------------------------------------------------------------------------------

     CUMULATIVE VOLUMES      L**3       RATES FOR THIS TIME STEP      L**3/T
     ------------------                 ------------------------

           IN:                                      IN:
           ---                                      ---
             STORAGE =    25536661.9419               STORAGE =        2146.8565
       CONSTANT HEAD =   134951347.6757         CONSTANT HEAD =      172741.3464
               WELLS =           0.0000                 WELLS =           0.0000
            RECHARGE =    18878400.0000              RECHARGE =       13800.0000
      STREAM LEAKAGE =     5381748.3031        STREAM LEAKAGE =        6839.8671

            TOTAL IN =   184748157.9207              TOTAL IN =      195528.0701

          OUT:                                     OUT:
          ----                                     ----
             STORAGE =     1483216.2523               STORAGE =           0.0000
       CONSTANT HEAD =           0.0000         CONSTANT HEAD =           0.0000
               WELLS =    69311434.3177                 WELLS =       79349.6446
            RECHARGE =           0.0000              RECHARGE =           0.0000
      STREAM LEAKAGE =   113953508.4012        STREAM LEAKAGE =      116178.4283

           TOTAL OUT =   184748158.9711             TOTAL OUT =      195528.0729

            IN - OUT =          -1.0504              IN - OUT =      -2.8717E-03

 PERCENT DISCREPANCY =          -0.00     PERCENT DISCREPANCY =          -0.00






         TIME SUMMARY AT END OF TIME STEP    1 IN STRESS PERIOD    9
                    SECONDS     MINUTES      HOURS       DAYS        YEARS
                    -----------------------------------------------------------
   TIME STEP LENGTH 7.94880E+06 1.32480E+05  2208.0      92.000     0.25188    
 STRESS PERIOD TIME 7.94880E+06 1.32480E+05  2208.0      92.000     0.25188    
         TOTAL TIME 7.10208E+07 1.18368E+06  19728.      822.00      2.2505    
1
1
                            STRESS PERIOD NO.   10, LENGTH =   91.00000    
                            -----------------------------------------------

                              NUMBER OF TIME STEPS =     1

                               MULTIPLIER FOR DELT =     1.500

                            INITIAL TIME STEP SIZE =   91.00000    

 WELL NO.  LAYER   ROW   COL   STRESS RATE         
 --------------------------------------------------
      1      1      5     14     -0.2088E+05
      2      1      4     17     -0.2248E+05
      3      1      3     26     -0.3599E+05

      3 WELLS

                 RECHARGE =  2.000000E-03

 REUSING STREAM SEGMENT DATA FROM LAST STRESS PERIOD
 
 SOLVING FOR HEAD 


     7 CALLS TO PCG ROUTINE FOR TIME STEP   1 IN STRESS PERIOD   10
    26 TOTAL ITERATIONS

 OUTPUT CONTROL FOR STRESS PERIOD   10   TIME STEP    1
    SAVE BUDGET
    SAVE HEAD FOR ALL LAYERS
    PRINT HEAD FOR ALL LAYERS
 UBDSV2 SAVING "STREAMFLOW OUT  " ON UNIT  50 AT TIME STEP  1, STRESS PERIOD  10



 STREAM LISTING     PERIOD     10   STEP        1

 LAYER ROW COL. STREAM  RCH.  FLOW INTO     FLOW TO   FLOW OUT OF   OVRLND.     DIRECT     STREAM       STREAM     STREAM     STREAM   STREAMBED  STREAMBED
                SEG.NO.  NO.  STRM. RCH.    AQUIFER    STRM. RCH.    RUNOFF     PRECIP       ET          HEAD       DEPTH      WIDTH   CONDCTNC.   GRADIENT

   1   13    1     1     1    1.0000E+05 -2.9730E+03   1.0297E+05  0.000E+00  0.000E+00  0.000E+00  4.84073E+01  1.459E-01  2.000E+01  2.000E+04 -1.487E-01
   1   13    2     1     2    1.0297E+05 -4.8398E+03   1.0781E+05  0.000E+00  0.000E+00  0.000E+00  4.79334E+01  1.493E-01  2.000E+01  2.000E+04 -2.420E-01
   1   14    3     1     3    1.0781E+05 -4.0054E+03   1.1182E+05  0.000E+00  0.000E+00  0.000E+00  4.74598E+01  1.530E-01  2.000E+01  2.000E+04 -2.003E-01
   1   15    4     1     4    1.1182E+05 -3.9637E+03   1.1578E+05  0.000E+00  0.000E+00  0.000E+00  4.69859E+01  1.563E-01  2.000E+01  2.000E+04 -1.982E-01
   1   16    5     1     5    1.1578E+05 -4.3935E+03   1.2018E+05  0.000E+00  0.000E+00  0.000E+00  4.65120E+01  1.597E-01  2.000E+01  2.000E+04 -2.197E-01
   1   16    6     1     6    1.2018E+05 -3.4040E+03   1.2358E+05  0.000E+00  0.000E+00  0.000E+00  4.60379E+01  1.629E-01  2.000E+01  2.000E+04 -1.702E-01
   1   16    7     1     7    1.2358E+05 -3.4424E+03   1.2702E+05  0.000E+00  0.000E+00  0.000E+00  4.55633E+01  1.656E-01  2.000E+01  2.000E+04 -1.721E-01
   1   16    8     1     8    1.2702E+05 -3.4607E+03   1.3048E+05  0.000E+00  0.000E+00  0.000E+00  4.50888E+01  1.683E-01  2.000E+01  2.000E+04 -1.730E-01
   1   16    9     1     9    1.3048E+05 -3.4456E+03   1.3393E+05  0.000E+00  0.000E+00  0.000E+00  4.46142E+01  1.710E-01  2.000E+01  2.000E+04 -1.723E-01
   1   16   10     1    10    1.3393E+05 -3.4070E+03   1.3734E+05  0.000E+00  0.000E+00  0.000E+00  4.41396E+01  1.737E-01  2.000E+01  2.000E+04 -1.703E-01
   1   16   11     1    11    1.3734E+05 -3.3853E+03   1.4072E+05  0.000E+00  0.000E+00  0.000E+00  4.36649E+01  1.763E-01  2.000E+01  2.000E+04 -1.693E-01
   1   16   12     1    12    1.4072E+05 -4.6270E+03   1.4535E+05  0.000E+00  0.000E+00  0.000E+00  4.31907E+01  1.793E-01  2.000E+01  2.000E+04 -2.314E-01
   1   15   13     1    13    1.4535E+05 -4.0497E+03   1.4940E+05  0.000E+00  0.000E+00  0.000E+00  4.27166E+01  1.825E-01  2.000E+01  2.000E+04 -2.025E-01
   1   14   14     1    14    1.4940E+05 -3.8443E+03   1.5324E+05  0.000E+00  0.000E+00  0.000E+00  4.22423E+01  1.855E-01  2.000E+01  2.000E+04 -1.922E-01
   1   13   15     1    15    1.5324E+05 -3.7223E+03   1.5696E+05  0.000E+00  0.000E+00  0.000E+00  4.17678E+01  1.882E-01  2.000E+01  2.000E+04 -1.861E-01
   1   12   16     1    16    1.5696E+05 -3.9744E+03   1.6094E+05  0.000E+00  0.000E+00  0.000E+00  4.12933E+01  1.910E-01  2.000E+01  2.000E+04 -1.987E-01
   1   12   17     1    17    1.6094E+05 -2.7637E+03   1.6370E+05  0.000E+00  0.000E+00  0.000E+00  4.08184E+01  1.934E-01  2.000E+01  2.000E+04 -1.382E-01
   1   12   18     1    18    1.6370E+05 -2.7265E+03   1.6643E+05  0.000E+00  0.000E+00  0.000E+00  4.03431E+01  1.954E-01  2.000E+01  2.000E+04 -1.363E-01
   1   12   19     1    19    1.6643E+05 -3.5273E+03   1.6996E+05  0.000E+00  0.000E+00  0.000E+00  3.98681E+01  1.976E-01  2.000E+01  2.000E+04 -1.764E-01
   1   13   20     1    20    1.6996E+05 -2.9046E+03   1.7286E+05  0.000E+00  0.000E+00  0.000E+00  3.93930E+01  1.999E-01  2.000E+01  2.000E+04 -1.452E-01
   1   14   21     1    21    1.7286E+05 -2.6007E+03   1.7546E+05  0.000E+00  0.000E+00  0.000E+00  3.89177E+01  2.018E-01  2.000E+01  2.000E+04 -1.300E-01
   1   14   22     1    22    1.7546E+05  5.0594E+03   1.7040E+05  0.000E+00  0.000E+00  0.000E+00  3.84396E+01  2.009E-01  2.000E+01  2.000E+04  2.530E-01
   1    9   30     2     1    5.0000E+04 -2.0656E+03   5.2066E+04  0.000E+00  0.000E+00  0.000E+00  4.02423E+01  1.173E-01  2.000E+01  2.000E+04 -1.033E-01
   1    9   29     2     2    5.2066E+04 -2.3200E+03   5.4386E+04  0.000E+00  0.000E+00  0.000E+00  3.99953E+01  1.203E-01  2.000E+01  2.000E+04 -1.160E-01
   1    9   28     2     3    5.4386E+04 -2.5333E+03   5.6919E+04  0.000E+00  0.000E+00  0.000E+00  3.97486E+01  1.236E-01  2.000E+01  2.000E+04 -1.267E-01
   1    9   27     2     4    5.6919E+04 -4.4165E+03   6.1335E+04  0.000E+00  0.000E+00  0.000E+00  3.95031E+01  1.281E-01  2.000E+01  2.000E+04 -2.208E-01
   1   10   26     2     5    6.1335E+04 -2.8514E+03   6.4187E+04  0.000E+00  0.000E+00  0.000E+00  3.92578E+01  1.328E-01  2.000E+01  2.000E+04 -1.426E-01
   1   11   25     2     6    6.4187E+04 -2.1421E+03   6.6329E+04  0.000E+00  0.000E+00  0.000E+00  3.90109E+01  1.359E-01  2.000E+01  2.000E+04 -1.071E-01
   1   12   24     2     7    6.6329E+04 -1.5208E+03   6.7850E+04  0.000E+00  0.000E+00  0.000E+00  3.87632E+01  1.382E-01  2.000E+01  2.000E+04 -7.604E-02
   1   13   23     2     8    6.7850E+04 -9.1433E+02   6.8764E+04  0.000E+00  0.000E+00  0.000E+00  3.85147E+01  1.397E-01  2.000E+01  2.000E+04 -4.572E-02
   1   14   22     2     9    6.8764E+04  1.5545E+03   6.7210E+04  0.000E+00  0.000E+00  0.000E+00  3.82643E+01  1.393E-01  2.000E+01  2.000E+04  7.773E-02
   1   14   22     3     1    2.3761E+05 -8.5424E+03   2.4615E+05  0.000E+00  0.000E+00  0.000E+00  3.77595E+01  2.039E-01  2.000E+01  2.000E+04 -4.271E-01
   1   15   23     3     2    2.4615E+05 -3.4403E+03   2.4959E+05  0.000E+00  0.000E+00  0.000E+00  3.68736E+01  2.069E-01  2.000E+01  2.000E+04 -1.720E-01
   1   15   24     3     3    2.4959E+05 -2.3605E+03   2.5195E+05  0.000E+00  0.000E+00  0.000E+00  3.59862E+01  2.084E-01  2.000E+01  2.000E+04 -1.180E-01
   1   15   25     3     4    2.5195E+05 -2.2243E+03   2.5418E+05  0.000E+00  0.000E+00  0.000E+00  3.50984E+01  2.095E-01  2.000E+01  2.000E+04 -1.112E-01
   1   15   26     3     5    2.5418E+05 -2.6318E+03   2.5681E+05  0.000E+00  0.000E+00  0.000E+00  3.42107E+01  2.107E-01  2.000E+01  2.000E+04 -1.316E-01
   1   16   27     3     6    2.5681E+05 -3.6863E+03   2.6050E+05  0.000E+00  0.000E+00  0.000E+00  3.33234E+01  2.123E-01  2.000E+01  2.000E+04 -1.843E-01
   1   17   28     3     7    2.6050E+05 -4.5225E+03   2.6502E+05  0.000E+00  0.000E+00  0.000E+00  3.24365E+01  2.143E-01  2.000E+01  2.000E+04 -2.261E-01
   1   18   29     3     8    2.6502E+05 -6.1807E+03   2.7120E+05  0.000E+00  0.000E+00  0.000E+00  3.15502E+01  2.169E-01  2.000E+01  2.000E+04 -3.090E-01
   1   18   30     3     9    2.7120E+05 -5.1081E+03   2.7631E+05  0.000E+00  0.000E+00  0.000E+00  3.06641E+01  2.196E-01  2.000E+01  2.000E+04 -2.554E-01



1
              HEAD IN LAYER   1 AT END OF TIME STEP   1 IN STRESS PERIOD   10
  ---------------------------------------------------------------------------

          1      2      3      4      5      6      7      8      9     10
         11     12     13     14     15     16     17     18     19     20
         21     22     23     24     25     26     27     28     29     30
 .........................................................................
   1  ****** ****** ****** ****** ****** ****** ****** ****** ****** ******
      ****** ****** ****** ****** ****** ****** ****** ****** ****** ******
      ****** ****** ****** ****** ****** ****** ****** ****** ****** ******
   2  ****** ****** ****** ****** ****** ****** ****** ****** ****** ******
      ****** ****** ****** ****** ****** ****** ****** ****** ****** ******
      ****** ****** ****** ****** ****** ****** ****** ****** ****** ******
   3  ****** ****** ****** ****** ****** ****** ****** ****** ****** ******
      ****** ****** ****** ****** ****** ****** ****** ****** ****** ******
      ****** ****** ****** ****** ****** ****** ****** ****** ****** ******
   4  ****** ****** ****** ****** ****** ****** ****** ****** ****** ******
      ****** ****** ****** ****** ****** ****** ****** ****** ****** ******
      ****** ****** ****** ****** ****** ****** ****** ****** ****** ******
   5  ****** ****** ****** ****** ****** ****** ****** ****** ****** ******
      ****** ****** ****** ****** ****** ****** ****** ****** ****** ******
      ****** ****** ****** ****** ****** ****** ****** ****** ****** ******
   6  ****** ****** ****** ****** ****** ****** ****** ****** ****** ******
      ****** ****** ****** ****** ****** ****** ****** ****** ****** ******
      ****** ****** ****** ****** ****** ****** ****** ****** ****** ******
   7  ****** ****** ****** ****** ****** ****** ****** ****** ****** ******
      ****** ****** ****** ****** ****** ****** ****** ****** ****** ******
      ****** ****** ****** ****** ****** ****** ****** ****** ****** ******
   8  ****** ****** ****** ****** ****** ****** ****** ****** ****** ******
      ****** ****** ****** ****** ****** ****** ****** ****** ****** ******
      ****** ****** ****** ****** ****** ****** ****** ****** ****** ******
   9  ****** ****** ****** ****** ****** ****** ****** ****** ****** ******
      ****** ****** ****** ****** ****** ****** ****** ****** ****** ******
      ****** ****** ****** ****** ****** ****** ****** ****** ****** ******
  10  ****** ****** ****** ****** ****** ****** ****** ****** ****** ******
      ****** ****** ****** ****** ****** ****** ****** ****** ****** ******
      ****** ****** ****** ****** ****** ****** ****** ****** ****** ******
  11  ****** ****** ****** ****** ****** ****** ****** ****** ****** ******
      ****** ****** ****** ****** ****** ****** ****** ****** ****** ******
      ****** ****** ****** ****** ****** ****** ****** ****** ****** ******
  12  ****** ****** ****** ****** ****** ****** ****** ****** ****** ******
      ****** ****** ****** ****** ****** ****** ****** ****** ****** ******
      ****** ****** ****** ****** ****** ****** ****** ****** ****** ******
  13  ****** ****** ****** ****** ****** ****** ****** ****** ****** ******
      ****** ****** ****** ****** ****** ****** ****** ****** ****** ******
      ****** ****** ****** ****** ****** ****** ****** ****** ****** ******
  14  ****** ****** ****** ****** ****** ****** ****** ****** ****** ******
      ****** ****** ****** ****** ****** ****** ****** ****** ****** ******
      ****** ****** ****** ****** ****** ****** ****** ****** ****** ******
  15  ****** ****** ****** ****** ****** ****** ****** ****** ****** ******
      ****** ****** ****** ****** ****** ****** ****** ****** ****** ******
      ****** ****** ****** ****** ****** ****** ****** ****** ****** ******
  16  ****** ****** ****** ****** ****** ****** ****** ****** ****** ******
      ****** ****** ****** ****** ****** ****** ****** ****** ****** ******
      ****** ****** ****** ****** ****** ****** ****** ****** ****** ******
  17  ****** ****** ****** ****** ****** ****** ****** ****** ****** ******
      ****** ****** ****** ****** ****** ****** ****** ****** ****** ******
      ****** ****** ****** ****** ****** ****** ****** ****** ****** ******
  18  ****** ****** ****** ****** ****** ****** ****** ****** ****** ******
      ****** ****** ****** ****** ****** ****** ****** ****** ****** ******
      ****** ****** ****** ****** ****** ****** ****** ****** ****** ******
  19  ****** ****** ****** ****** ****** ****** ****** ****** ****** ******
      ****** ****** ****** ****** ****** ****** ****** ****** ****** ******
      ****** ****** ****** ****** ****** ****** ****** ****** ****** ******
  20  ****** ****** ****** ****** ****** ****** ****** ****** ****** ******
      ****** ****** ****** ****** ****** ****** ****** ****** ****** ******
      ****** ****** ****** ****** ****** ****** ****** ****** ****** ******
  21  ****** ****** ****** ****** ****** ****** ****** ****** ****** ******
      ****** ****** ****** ****** ****** ****** ****** ****** ****** ******
      ****** ****** ****** ****** ****** ****** ****** ****** ****** ******
  22  ****** ****** ****** ****** ****** ****** ****** ****** ****** ******
      ****** ****** ****** ****** ****** ****** ****** ****** ****** ******
      ****** ****** ****** ****** ****** ****** ****** ****** ****** ******
  23  ****** ****** ****** ****** ****** ****** ****** ****** ****** ******
      ****** ****** ****** ****** ****** ****** ****** ****** ****** ******
      ****** ****** ****** ****** ****** ****** ****** ****** ****** ******
  24  ****** ****** ****** ****** ****** ****** ****** ****** ****** ******
      ****** ****** ****** ****** ****** ****** ****** ****** ****** ******
      ****** ****** ****** ****** ****** ****** ****** ****** ****** ******
  25  ****** ****** ****** ****** ****** ****** ****** ****** ****** ******
      ****** ****** ****** ****** ****** ****** ****** ****** ****** ******
      ****** ****** ****** ****** ****** ****** ****** ****** ****** ******

 HEAD WILL BE SAVED ON UNIT   51 AT END OF TIME STEP    1, STRESS PERIOD   10
1
  VOLUMETRIC BUDGET FOR ENTIRE MODEL AT END OF TIME STEP    1, STRESS PERIOD  10
  ------------------------------------------------------------------------------

     CUMULATIVE VOLUMES      L**3       RATES FOR THIS TIME STEP      L**3/T
     ------------------                 ------------------------

           IN:                                      IN:
           ---                                      ---
             STORAGE =    25536661.9419               STORAGE =           0.0000
       CONSTANT HEAD =   149641756.9521         CONSTANT HEAD =      161433.0690
               WELLS =           0.0000                 WELLS =           0.0000
            RECHARGE =    23901600.0000              RECHARGE =       55200.0000
      STREAM LEAKAGE =     5983616.4773        STREAM LEAKAGE =        6613.9360

            TOTAL IN =   205063635.3714              TOTAL IN =      223247.0050

          OUT:                                     OUT:
          ----                                     ----
             STORAGE =     2481967.6598               STORAGE =       10975.2902
       CONSTANT HEAD =           0.0000         CONSTANT HEAD =           0.0000
               WELLS =    76532251.9765                 WELLS =       79349.6446
            RECHARGE =           0.0000              RECHARGE =           0.0000
      STREAM LEAKAGE =   126049416.6267        STREAM LEAKAGE =      132922.0684

           TOTAL OUT =   205063636.2630             TOTAL OUT =      223247.0032

            IN - OUT =          -0.8916              IN - OUT =       1.7450E-03

 PERCENT DISCREPANCY =          -0.00     PERCENT DISCREPANCY =           0.00






         TIME SUMMARY AT END OF TIME STEP    1 IN STRESS PERIOD   10
                    SECONDS     MINUTES      HOURS       DAYS        YEARS
                    -----------------------------------------------------------
   TIME STEP LENGTH 7.86240E+06 1.31040E+05  2184.0      91.000     0.24914    
 STRESS PERIOD TIME 7.86240E+06 1.31040E+05  2184.0      91.000     0.24914    
         TOTAL TIME 7.88832E+07 1.31472E+06  21912.      913.00      2.4997    
1
1
                            STRESS PERIOD NO.   11, LENGTH =   91.00000    
                            -----------------------------------------------

                              NUMBER OF TIME STEPS =     1

                               MULTIPLIER FOR DELT =     1.500

                            INITIAL TIME STEP SIZE =   91.00000    

 WELL NO.  LAYER   ROW   COL   STRESS RATE         
 --------------------------------------------------
      1      1      5     14     -0.2088E+05
      2      1      4     17     -0.2248E+05
      3      1      3     26     -0.3599E+05

      3 WELLS

                 RECHARGE =   0.00000    

 REUSING STREAM SEGMENT DATA FROM LAST STRESS PERIOD
 
 SOLVING FOR HEAD 


     7 CALLS TO PCG ROUTINE FOR TIME STEP   1 IN STRESS PERIOD   11
    26 TOTAL ITERATIONS

 OUTPUT CONTROL FOR STRESS PERIOD   11   TIME STEP    1
    SAVE BUDGET
    SAVE HEAD FOR ALL LAYERS
    PRINT HEAD FOR ALL LAYERS
 UBDSV2 SAVING "STREAMFLOW OUT  " ON UNIT  50 AT TIME STEP  1, STRESS PERIOD  11



 STREAM LISTING     PERIOD     11   STEP        1

 LAYER ROW COL. STREAM  RCH.  FLOW INTO     FLOW TO   FLOW OUT OF   OVRLND.     DIRECT     STREAM       STREAM     STREAM     STREAM   STREAMBED  STREAMBED
                SEG.NO.  NO.  STRM. RCH.    AQUIFER    STRM. RCH.    RUNOFF     PRECIP       ET          HEAD       DEPTH      WIDTH   CONDCTNC.   GRADIENT

   1   13    1     1     1    1.0000E+05 -2.4915E+03   1.0249E+05  0.000E+00  0.000E+00  0.000E+00  4.84071E+01  1.457E-01  2.000E+01  2.000E+04 -1.246E-01
   1   13    2     1     2    1.0249E+05 -4.2114E+03   1.0670E+05  0.000E+00  0.000E+00  0.000E+00  4.79327E+01  1.486E-01  2.000E+01  2.000E+04 -2.106E-01
   1   14    3     1     3    1.0670E+05 -3.3538E+03   1.1006E+05  0.000E+00  0.000E+00  0.000E+00  4.74586E+01  1.518E-01  2.000E+01  2.000E+04 -1.677E-01
   1   15    4     1     4    1.1006E+05 -3.3145E+03   1.1337E+05  0.000E+00  0.000E+00  0.000E+00  4.69841E+01  1.546E-01  2.000E+01  2.000E+04 -1.657E-01
   1   16    5     1     5    1.1337E+05 -3.7930E+03   1.1716E+05  0.000E+00  0.000E+00  0.000E+00  4.65098E+01  1.575E-01  2.000E+01  2.000E+04 -1.896E-01
   1   16    6     1     6    1.1716E+05 -2.9296E+03   1.2009E+05  0.000E+00  0.000E+00  0.000E+00  4.60353E+01  1.603E-01  2.000E+01  2.000E+04 -1.465E-01
   1   16    7     1     7    1.2009E+05 -2.9615E+03   1.2306E+05  0.000E+00  0.000E+00  0.000E+00  4.55604E+01  1.626E-01  2.000E+01  2.000E+04 -1.481E-01
   1   16    8     1     8    1.2306E+05 -2.9759E+03   1.2603E+05  0.000E+00  0.000E+00  0.000E+00  4.50855E+01  1.650E-01  2.000E+01  2.000E+04 -1.488E-01
   1   16    9     1     9    1.2603E+05 -2.9610E+03   1.2899E+05  0.000E+00  0.000E+00  0.000E+00  4.46105E+01  1.674E-01  2.000E+01  2.000E+04 -1.481E-01
   1   16   10     1    10    1.2899E+05 -2.9264E+03   1.3192E+05  0.000E+00  0.000E+00  0.000E+00  4.41356E+01  1.697E-01  2.000E+01  2.000E+04 -1.463E-01
   1   16   11     1    11    1.3192E+05 -2.9108E+03   1.3483E+05  0.000E+00  0.000E+00  0.000E+00  4.36606E+01  1.719E-01  2.000E+01  2.000E+04 -1.455E-01
   1   16   12     1    12    1.3483E+05 -4.0186E+03   1.3885E+05  0.000E+00  0.000E+00  0.000E+00  4.31860E+01  1.746E-01  2.000E+01  2.000E+04 -2.009E-01
   1   15   13     1    13    1.3885E+05 -3.3887E+03   1.4224E+05  0.000E+00  0.000E+00  0.000E+00  4.27115E+01  1.774E-01  2.000E+01  2.000E+04 -1.694E-01
   1   14   14     1    14    1.4224E+05 -3.1731E+03   1.4541E+05  0.000E+00  0.000E+00  0.000E+00  4.22367E+01  1.799E-01  2.000E+01  2.000E+04 -1.587E-01
   1   13   15     1    15    1.4541E+05 -3.0640E+03   1.4847E+05  0.000E+00  0.000E+00  0.000E+00  4.17618E+01  1.822E-01  2.000E+01  2.000E+04 -1.532E-01
   1   12   16     1    16    1.4847E+05 -3.3532E+03   1.5183E+05  0.000E+00  0.000E+00  0.000E+00  4.12869E+01  1.846E-01  2.000E+01  2.000E+04 -1.677E-01
   1   12   17     1    17    1.5183E+05 -2.2937E+03   1.5412E+05  0.000E+00  0.000E+00  0.000E+00  4.08117E+01  1.867E-01  2.000E+01  2.000E+04 -1.147E-01
   1   12   18     1    18    1.5412E+05 -2.2626E+03   1.5638E+05  0.000E+00  0.000E+00  0.000E+00  4.03361E+01  1.883E-01  2.000E+01  2.000E+04 -1.131E-01
   1   12   19     1    19    1.5638E+05 -2.9619E+03   1.5935E+05  0.000E+00  0.000E+00  0.000E+00  3.98607E+01  1.902E-01  2.000E+01  2.000E+04 -1.481E-01
   1   13   20     1    20    1.5935E+05 -2.3432E+03   1.6169E+05  0.000E+00  0.000E+00  0.000E+00  3.93853E+01  1.921E-01  2.000E+01  2.000E+04 -1.172E-01
   1   14   21     1    21    1.6169E+05 -2.0859E+03   1.6377E+05  0.000E+00  0.000E+00  0.000E+00  3.89096E+01  1.937E-01  2.000E+01  2.000E+04 -1.043E-01
   1   14   22     1    22    1.6377E+05  5.1626E+03   1.5861E+05  0.000E+00  0.000E+00  0.000E+00  3.84313E+01  1.926E-01  2.000E+01  2.000E+04  2.581E-01
   1    9   30     2     1    5.0000E+04 -1.6245E+03   5.1625E+04  0.000E+00  0.000E+00  0.000E+00  4.02420E+01  1.170E-01  2.000E+01  2.000E+04 -8.123E-02
   1    9   29     2     2    5.1625E+04 -1.8827E+03   5.3507E+04  0.000E+00  0.000E+00  0.000E+00  3.99944E+01  1.194E-01  2.000E+01  2.000E+04 -9.414E-02
   1    9   28     2     3    5.3507E+04 -2.0998E+03   5.5607E+04  0.000E+00  0.000E+00  0.000E+00  3.97471E+01  1.221E-01  2.000E+01  2.000E+04 -1.050E-01
   1    9   27     2     4    5.5607E+04 -3.8465E+03   5.9454E+04  0.000E+00  0.000E+00  0.000E+00  3.95010E+01  1.260E-01  2.000E+01  2.000E+04 -1.923E-01
   1   10   26     2     5    5.9454E+04 -2.2555E+03   6.1709E+04  0.000E+00  0.000E+00  0.000E+00  3.92550E+01  1.300E-01  2.000E+01  2.000E+04 -1.128E-01
   1   11   25     2     6    6.1709E+04 -1.5696E+03   6.3279E+04  0.000E+00  0.000E+00  0.000E+00  3.90075E+01  1.325E-01  2.000E+01  2.000E+04 -7.848E-02
   1   12   24     2     7    6.3279E+04 -1.0112E+03   6.4290E+04  0.000E+00  0.000E+00  0.000E+00  3.87591E+01  1.341E-01  2.000E+01  2.000E+04 -5.056E-02
   1   13   23     2     8    6.4290E+04 -5.1278E+02   6.4803E+04  0.000E+00  0.000E+00  0.000E+00  3.85101E+01  1.351E-01  2.000E+01  2.000E+04 -2.564E-02
   1   14   22     2     9    6.4803E+04  1.7230E+03   6.3080E+04  0.000E+00  0.000E+00  0.000E+00  3.82593E+01  1.343E-01  2.000E+01  2.000E+04  8.615E-02
   1   14   22     3     1    2.2169E+05 -8.4371E+03   2.3013E+05  0.000E+00  0.000E+00  0.000E+00  3.77513E+01  1.957E-01  2.000E+01  2.000E+04 -4.219E-01
   1   15   23     3     2    2.3013E+05 -2.9587E+03   2.3309E+05  0.000E+00  0.000E+00  0.000E+00  3.68653E+01  1.987E-01  2.000E+01  2.000E+04 -1.479E-01
   1   15   24     3     3    2.3309E+05 -2.0054E+03   2.3509E+05  0.000E+00  0.000E+00  0.000E+00  3.59777E+01  2.000E-01  2.000E+01  2.000E+04 -1.003E-01
   1   15   25     3     4    2.3509E+05 -1.8655E+03   2.3696E+05  0.000E+00  0.000E+00  0.000E+00  3.50898E+01  2.009E-01  2.000E+01  2.000E+04 -9.328E-02
   1   15   26     3     5    2.3696E+05 -2.1675E+03   2.3913E+05  0.000E+00  0.000E+00  0.000E+00  3.42020E+01  2.020E-01  2.000E+01  2.000E+04 -1.084E-01
   1   16   27     3     6    2.3913E+05 -3.1101E+03   2.4224E+05  0.000E+00  0.000E+00  0.000E+00  3.33144E+01  2.033E-01  2.000E+01  2.000E+04 -1.555E-01
   1   17   28     3     7    2.4224E+05 -3.9358E+03   2.4617E+05  0.000E+00  0.000E+00  0.000E+00  3.24273E+01  2.051E-01  2.000E+01  2.000E+04 -1.968E-01
   1   18   29     3     8    2.4617E+05 -5.6337E+03   2.5181E+05  0.000E+00  0.000E+00  0.000E+00  3.15408E+01  2.075E-01  2.000E+01  2.000E+04 -2.817E-01
   1   18   30     3     9    2.5181E+05 -4.6911E+03   2.5650E+05  0.000E+00  0.000E+00  0.000E+00  3.06545E+01  2.101E-01  2.000E+01  2.000E+04 -2.346E-01



1
              HEAD IN LAYER   1 AT END OF TIME STEP   1 IN STRESS PERIOD   11
  ---------------------------------------------------------------------------

          1      2      3      4      5      6      7      8      9     10
         11     12     13     14     15     16     17     18     19     20
         21     22     23     24     25     26     27     28     29     30
 .........................................................................
   1  ****** ****** ****** ****** ****** ****** ****** ****** ****** ******
      ****** ****** ****** ****** ****** ****** ****** ****** ****** ******
      ****** ****** ****** ****** ****** ****** ****** ****** ****** ******
   2  ****** ****** ****** ****** ****** ****** ****** ****** ****** ******
      ****** ****** ****** ****** ****** ****** ****** ****** ****** ******
      ****** ****** ****** ****** ****** ****** ****** ****** ****** ******
   3  ****** ****** ****** ****** ****** ****** ****** ****** ****** ******
      ****** ****** ****** ****** ****** ****** ****** ****** ****** ******
      ****** ****** ****** ****** ****** ****** ****** ****** ****** ******
   4  ****** ****** ****** ****** ****** ****** ****** ****** ****** ******
      ****** ****** ****** ****** ****** ****** ****** ****** ****** ******
      ****** ****** ****** ****** ****** ****** ****** ****** ****** ******
   5  ****** ****** ****** ****** ****** ****** ****** ****** ****** ******
      ****** ****** ****** ****** ****** ****** ****** ****** ****** ******
      ****** ****** ****** ****** ****** ****** ****** ****** ****** ******
   6  ****** ****** ****** ****** ****** ****** ****** ****** ****** ******
      ****** ****** ****** ****** ****** ****** ****** ****** ****** ******
      ****** ****** ****** ****** ****** ****** ****** ****** ****** ******
   7  ****** ****** ****** ****** ****** ****** ****** ****** ****** ******
      ****** ****** ****** ****** ****** ****** ****** ****** ****** ******
      ****** ****** ****** ****** ****** ****** ****** ****** ****** ******
   8  ****** ****** ****** ****** ****** ****** ****** ****** ****** ******
      ****** ****** ****** ****** ****** ****** ****** ****** ****** ******
      ****** ****** ****** ****** ****** ****** ****** ****** ****** ******
   9  ****** ****** ****** ****** ****** ****** ****** ****** ****** ******
      ****** ****** ****** ****** ****** ****** ****** ****** ****** ******
      ****** ****** ****** ****** ****** ****** ****** ****** ****** ******
  10  ****** ****** ****** ****** ****** ****** ****** ****** ****** ******
      ****** ****** ****** ****** ****** ****** ****** ****** ****** ******
      ****** ****** ****** ****** ****** ****** ****** ****** ****** ******
  11  ****** ****** ****** ****** ****** ****** ****** ****** ****** ******
      ****** ****** ****** ****** ****** ****** ****** ****** ****** ******
      ****** ****** ****** ****** ****** ****** ****** ****** ****** ******
  12  ****** ****** ****** ****** ****** ****** ****** ****** ****** ******
      ****** ****** ****** ****** ****** ****** ****** ****** ****** ******
      ****** ****** ****** ****** ****** ****** ****** ****** ****** ******
  13  ****** ****** ****** ****** ****** ****** ****** ****** ****** ******
      ****** ****** ****** ****** ****** ****** ****** ****** ****** ******
      ****** ****** ****** ****** ****** ****** ****** ****** ****** ******
  14  ****** ****** ****** ****** ****** ****** ****** ****** ****** ******
      ****** ****** ****** ****** ****** ****** ****** ****** ****** ******
      ****** ****** ****** ****** ****** ****** ****** ****** ****** ******
  15  ****** ****** ****** ****** ****** ****** ****** ****** ****** ******
      ****** ****** ****** ****** ****** ****** ****** ****** ****** ******
      ****** ****** ****** ****** ****** ****** ****** ****** ****** ******
  16  ****** ****** ****** ****** ****** ****** ****** ****** ****** ******
      ****** ****** ****** ****** ****** ****** ****** ****** ****** ******
      ****** ****** ****** ****** ****** ****** ****** ****** ****** ******
  17  ****** ****** ****** ****** ****** ****** ****** ****** ****** ******
      ****** ****** ****** ****** ****** ****** ****** ****** ****** ******
      ****** ****** ****** ****** ****** ****** ****** ****** ****** ******
  18  ****** ****** ****** ****** ****** ****** ****** ****** ****** ******
      ****** ****** ****** ****** ****** ****** ****** ****** ****** ******
      ****** ****** ****** ****** ****** ****** ****** ****** ****** ******
  19  ****** ****** ****** ****** ****** ****** ****** ****** ****** ******
      ****** ****** ****** ****** ****** ****** ****** ****** ****** ******
      ****** ****** ****** ****** ****** ****** ****** ****** ****** ******
  20  ****** ****** ****** ****** ****** ****** ****** ****** ****** ******
      ****** ****** ****** ****** ****** ****** ****** ****** ****** ******
      ****** ****** ****** ****** ****** ****** ****** ****** ****** ******
  21  ****** ****** ****** ****** ****** ****** ****** ****** ****** ******
      ****** ****** ****** ****** ****** ****** ****** ****** ****** ******
      ****** ****** ****** ****** ****** ****** ****** ****** ****** ******
  22  ****** ****** ****** ****** ****** ****** ****** ****** ****** ******
      ****** ****** ****** ****** ****** ****** ****** ****** ****** ******
      ****** ****** ****** ****** ****** ****** ****** ****** ****** ******
  23  ****** ****** ****** ****** ****** ****** ****** ****** ****** ******
      ****** ****** ****** ****** ****** ****** ****** ****** ****** ******
      ****** ****** ****** ****** ****** ****** ****** ****** ****** ******
  24  ****** ****** ****** ****** ****** ****** ****** ****** ****** ******
      ****** ****** ****** ****** ****** ****** ****** ****** ****** ******
      ****** ****** ****** ****** ****** ****** ****** ****** ****** ******
  25  ****** ****** ****** ****** ****** ****** ****** ****** ****** ******
      ****** ****** ****** ****** ****** ****** ****** ****** ****** ******
      ****** ****** ****** ****** ****** ****** ****** ****** ****** ******

 HEAD WILL BE SAVED ON UNIT   51 AT END OF TIME STEP    1, STRESS PERIOD   11
1
  VOLUMETRIC BUDGET FOR ENTIRE MODEL AT END OF TIME STEP    1, STRESS PERIOD  11
  ------------------------------------------------------------------------------

     CUMULATIVE VOLUMES      L**3       RATES FOR THIS TIME STEP      L**3/T
     ------------------                 ------------------------

           IN:                                      IN:
           ---                                      ---
             STORAGE =    26606936.3220               STORAGE =       11761.2569
       CONSTANT HEAD =   165483472.0719         CONSTANT HEAD =      174084.7815
               WELLS =           0.0000                 WELLS =           0.0000
            RECHARGE =    23901600.0000              RECHARGE =           0.0000
      STREAM LEAKAGE =     6610199.6415        STREAM LEAKAGE =        6885.5293

            TOTAL IN =   222602208.0353              TOTAL IN =      192731.5677

          OUT:                                     OUT:
          ----                                     ----
             STORAGE =     2481967.6598               STORAGE =           0.0000
       CONSTANT HEAD =           0.0000         CONSTANT HEAD =           0.0000
               WELLS =    83753069.6353                 WELLS =       79349.6446
            RECHARGE =           0.0000              RECHARGE =           0.0000
      STREAM LEAKAGE =   136367171.8247        STREAM LEAKAGE =      113381.9253

           TOTAL OUT =   222602209.1198             TOTAL OUT =      192731.5699

            IN - OUT =          -1.0845              IN - OUT =      -2.1195E-03

 PERCENT DISCREPANCY =          -0.00     PERCENT DISCREPANCY =          -0.00






         TIME SUMMARY AT END OF TIME STEP    1 IN STRESS PERIOD   11
                    SECONDS     MINUTES      HOURS       DAYS        YEARS
                    -----------------------------------------------------------
   TIME STEP LENGTH 7.86240E+06 1.31040E+05  2184.0      91.000     0.24914    
 STRESS PERIOD TIME 7.86240E+06 1.31040E+05  2184.0      91.000     0.24914    
         TOTAL TIME 8.67456E+07 1.44576E+06  24096.      1004.0      2.7488    
1
1
                            STRESS PERIOD NO.   12, LENGTH =   91.00000    
                            -----------------------------------------------

                              NUMBER OF TIME STEPS =     1

                               MULTIPLIER FOR DELT =     1.500

                            INITIAL TIME STEP SIZE =   91.00000    

 WELL NO.  LAYER   ROW   COL   STRESS RATE         
 --------------------------------------------------
      1      1      5     14     -0.2088E+05
      2      1      4     17     -0.2248E+05
      3      1      3     26     -0.3599E+05

      3 WELLS

                 RECHARGE =  1.000000E-03

 REUSING STREAM SEGMENT DATA FROM LAST STRESS PERIOD
 
 SOLVING FOR HEAD 


     6 CALLS TO PCG ROUTINE FOR TIME STEP   1 IN STRESS PERIOD   12
    23 TOTAL ITERATIONS

 OUTPUT CONTROL FOR STRESS PERIOD   12   TIME STEP    1
    SAVE BUDGET
    SAVE HEAD FOR ALL LAYERS
    PRINT HEAD FOR ALL LAYERS
 UBDSV2 SAVING "STREAMFLOW OUT  " ON UNIT  50 AT TIME STEP  1, STRESS PERIOD  12



 STREAM LISTING     PERIOD     12   STEP        1

 LAYER ROW COL. STREAM  RCH.  FLOW INTO     FLOW TO   FLOW OUT OF   OVRLND.     DIRECT     STREAM       STREAM     STREAM     STREAM   STREAMBED  STREAMBED
                SEG.NO.  NO.  STRM. RCH.    AQUIFER    STRM. RCH.    RUNOFF     PRECIP       ET          HEAD       DEPTH      WIDTH   CONDCTNC.   GRADIENT

   1   13    1     1     1    1.0000E+05 -2.6663E+03   1.0267E+05  0.000E+00  0.000E+00  0.000E+00  4.84072E+01  1.458E-01  2.000E+01  2.000E+04 -1.333E-01
   1   13    2     1     2    1.0267E+05 -4.4316E+03   1.0710E+05  0.000E+00  0.000E+00  0.000E+00  4.79329E+01  1.488E-01  2.000E+01  2.000E+04 -2.216E-01
   1   14    3     1     3    1.0710E+05 -3.5943E+03   1.1069E+05  0.000E+00  0.000E+00  0.000E+00  4.74591E+01  1.522E-01  2.000E+01  2.000E+04 -1.797E-01
   1   15    4     1     4    1.1069E+05 -3.5567E+03   1.1425E+05  0.000E+00  0.000E+00  0.000E+00  4.69848E+01  1.552E-01  2.000E+01  2.000E+04 -1.778E-01
   1   16    5     1     5    1.1425E+05 -4.0160E+03   1.1826E+05  0.000E+00  0.000E+00  0.000E+00  4.65106E+01  1.583E-01  2.000E+01  2.000E+04 -2.008E-01
   1   16    6     1     6    1.1826E+05 -3.1075E+03   1.2137E+05  0.000E+00  0.000E+00  0.000E+00  4.60362E+01  1.612E-01  2.000E+01  2.000E+04 -1.554E-01
   1   16    7     1     7    1.2137E+05 -3.1414E+03   1.2451E+05  0.000E+00  0.000E+00  0.000E+00  4.55615E+01  1.637E-01  2.000E+01  2.000E+04 -1.571E-01
   1   16    8     1     8    1.2451E+05 -3.1569E+03   1.2767E+05  0.000E+00  0.000E+00  0.000E+00  4.50867E+01  1.662E-01  2.000E+01  2.000E+04 -1.578E-01
   1   16    9     1     9    1.2767E+05 -3.1419E+03   1.3081E+05  0.000E+00  0.000E+00  0.000E+00  4.46119E+01  1.687E-01  2.000E+01  2.000E+04 -1.571E-01
   1   16   10     1    10    1.3081E+05 -3.1061E+03   1.3392E+05  0.000E+00  0.000E+00  0.000E+00  4.41371E+01  1.712E-01  2.000E+01  2.000E+04 -1.553E-01
   1   16   11     1    11    1.3392E+05 -3.0884E+03   1.3701E+05  0.000E+00  0.000E+00  0.000E+00  4.36622E+01  1.735E-01  2.000E+01  2.000E+04 -1.544E-01
   1   16   12     1    12    1.3701E+05 -4.2420E+03   1.4125E+05  0.000E+00  0.000E+00  0.000E+00  4.31877E+01  1.763E-01  2.000E+01  2.000E+04 -2.121E-01
   1   15   13     1    13    1.4125E+05 -3.6332E+03   1.4488E+05  0.000E+00  0.000E+00  0.000E+00  4.27134E+01  1.793E-01  2.000E+01  2.000E+04 -1.817E-01
   1   14   14     1    14    1.4488E+05 -3.4206E+03   1.4830E+05  0.000E+00  0.000E+00  0.000E+00  4.22388E+01  1.820E-01  2.000E+01  2.000E+04 -1.710E-01
   1   13   15     1    15    1.4830E+05 -3.3063E+03   1.5161E+05  0.000E+00  0.000E+00  0.000E+00  4.17640E+01  1.845E-01  2.000E+01  2.000E+04 -1.653E-01
   1   12   16     1    16    1.5161E+05 -3.5752E+03   1.5518E+05  0.000E+00  0.000E+00  0.000E+00  4.12893E+01  1.870E-01  2.000E+01  2.000E+04 -1.788E-01
   1   12   17     1    17    1.5518E+05 -2.4687E+03   1.5765E+05  0.000E+00  0.000E+00  0.000E+00  4.08142E+01  1.892E-01  2.000E+01  2.000E+04 -1.234E-01
   1   12   18     1    18    1.5765E+05 -2.4370E+03   1.6009E+05  0.000E+00  0.000E+00  0.000E+00  4.03387E+01  1.910E-01  2.000E+01  2.000E+04 -1.218E-01
   1   12   19     1    19    1.6009E+05 -3.1746E+03   1.6326E+05  0.000E+00  0.000E+00  0.000E+00  3.98634E+01  1.930E-01  2.000E+01  2.000E+04 -1.587E-01
   1   13   20     1    20    1.6326E+05 -2.5626E+03   1.6583E+05  0.000E+00  0.000E+00  0.000E+00  3.93882E+01  1.950E-01  2.000E+01  2.000E+04 -1.281E-01
   1   14   21     1    21    1.6583E+05 -2.2830E+03   1.6811E+05  0.000E+00  0.000E+00  0.000E+00  3.89127E+01  1.967E-01  2.000E+01  2.000E+04 -1.142E-01
   1   14   22     1    22    1.6811E+05  5.1179E+03   1.6299E+05  0.000E+00  0.000E+00  0.000E+00  3.84344E+01  1.957E-01  2.000E+01  2.000E+04  2.559E-01
   1    9   30     2     1    5.0000E+04 -1.8041E+03   5.1804E+04  0.000E+00  0.000E+00  0.000E+00  4.02421E+01  1.171E-01  2.000E+01  2.000E+04 -9.021E-02
   1    9   29     2     2    5.1804E+04 -2.0606E+03   5.3865E+04  0.000E+00  0.000E+00  0.000E+00  3.99948E+01  1.198E-01  2.000E+01  2.000E+04 -1.030E-01
   1    9   28     2     3    5.3865E+04 -2.2752E+03   5.6140E+04  0.000E+00  0.000E+00  0.000E+00  3.97477E+01  1.227E-01  2.000E+01  2.000E+04 -1.138E-01
   1    9   27     2     4    5.6140E+04 -4.0678E+03   6.0208E+04  0.000E+00  0.000E+00  0.000E+00  3.95019E+01  1.269E-01  2.000E+01  2.000E+04 -2.034E-01
   1   10   26     2     5    6.0208E+04 -2.4937E+03   6.2701E+04  0.000E+00  0.000E+00  0.000E+00  3.92561E+01  1.311E-01  2.000E+01  2.000E+04 -1.247E-01
   1   11   25     2     6    6.2701E+04 -1.8013E+03   6.4503E+04  0.000E+00  0.000E+00  0.000E+00  3.90089E+01  1.339E-01  2.000E+01  2.000E+04 -9.006E-02
   1   12   24     2     7    6.4503E+04 -1.2216E+03   6.5724E+04  0.000E+00  0.000E+00  0.000E+00  3.87608E+01  1.358E-01  2.000E+01  2.000E+04 -6.108E-02
   1   13   23     2     8    6.5724E+04 -6.8357E+02   6.6408E+04  0.000E+00  0.000E+00  0.000E+00  3.85119E+01  1.369E-01  2.000E+01  2.000E+04 -3.418E-02
   1   14   22     2     9    6.6408E+04  1.6572E+03   6.4751E+04  0.000E+00  0.000E+00  0.000E+00  3.82613E+01  1.363E-01  2.000E+01  2.000E+04  8.286E-02
   1   14   22     3     1    2.2774E+05 -8.4811E+03   2.3622E+05  0.000E+00  0.000E+00  0.000E+00  3.77544E+01  1.989E-01  2.000E+01  2.000E+04 -4.241E-01
   1   15   23     3     2    2.3622E+05 -3.1433E+03   2.3937E+05  0.000E+00  0.000E+00  0.000E+00  3.68685E+01  2.018E-01  2.000E+01  2.000E+04 -1.572E-01
   1   15   24     3     3    2.3937E+05 -2.1498E+03   2.4152E+05  0.000E+00  0.000E+00  0.000E+00  3.59810E+01  2.032E-01  2.000E+01  2.000E+04 -1.075E-01
   1   15   25     3     4    2.4152E+05 -2.0147E+03   2.4353E+05  0.000E+00  0.000E+00  0.000E+00  3.50931E+01  2.042E-01  2.000E+01  2.000E+04 -1.007E-01
   1   15   26     3     5    2.4353E+05 -2.3625E+03   2.4589E+05  0.000E+00  0.000E+00  0.000E+00  3.42053E+01  2.053E-01  2.000E+01  2.000E+04 -1.181E-01
   1   16   27     3     6    2.4589E+05 -3.3446E+03   2.4924E+05  0.000E+00  0.000E+00  0.000E+00  3.33179E+01  2.068E-01  2.000E+01  2.000E+04 -1.672E-01
   1   17   28     3     7    2.4924E+05 -4.1727E+03   2.5341E+05  0.000E+00  0.000E+00  0.000E+00  3.24309E+01  2.087E-01  2.000E+01  2.000E+04 -2.086E-01
   1   18   29     3     8    2.5341E+05 -5.8504E+03   2.5926E+05  0.000E+00  0.000E+00  0.000E+00  3.15445E+01  2.111E-01  2.000E+01  2.000E+04 -2.925E-01
   1   18   30     3     9    2.5926E+05 -4.8618E+03   2.6412E+05  0.000E+00  0.000E+00  0.000E+00  3.06582E+01  2.138E-01  2.000E+01  2.000E+04 -2.431E-01



1
              HEAD IN LAYER   1 AT END OF TIME STEP   1 IN STRESS PERIOD   12
  ---------------------------------------------------------------------------

          1      2      3      4      5      6      7      8      9     10
         11     12     13     14     15     16     17     18     19     20
         21     22     23     24     25     26     27     28     29     30
 .........................................................................
   1  ****** ****** ****** ****** ****** ****** ****** ****** ****** ******
      ****** ****** ****** ****** ****** ****** ****** ****** ****** ******
      ****** ****** ****** ****** ****** ****** ****** ****** ****** ******
   2  ****** ****** ****** ****** ****** ****** ****** ****** ****** ******
      ****** ****** ****** ****** ****** ****** ****** ****** ****** ******
      ****** ****** ****** ****** ****** ****** ****** ****** ****** ******
   3  ****** ****** ****** ****** ****** ****** ****** ****** ****** ******
      ****** ****** ****** ****** ****** ****** ****** ****** ****** ******
      ****** ****** ****** ****** ****** ****** ****** ****** ****** ******
   4  ****** ****** ****** ****** ****** ****** ****** ****** ****** ******
      ****** ****** ****** ****** ****** ****** ****** ****** ****** ******
      ****** ****** ****** ****** ****** ****** ****** ****** ****** ******
   5  ****** ****** ****** ****** ****** ****** ****** ****** ****** ******
      ****** ****** ****** ****** ****** ****** ****** ****** ****** ******
      ****** ****** ****** ****** ****** ****** ****** ****** ****** ******
   6  ****** ****** ****** ****** ****** ****** ****** ****** ****** ******
      ****** ****** ****** ****** ****** ****** ****** ****** ****** ******
      ****** ****** ****** ****** ****** ****** ****** ****** ****** ******
   7  ****** ****** ****** ****** ****** ****** ****** ****** ****** ******
      ****** ****** ****** ****** ****** ****** ****** ****** ****** ******
      ****** ****** ****** ****** ****** ****** ****** ****** ****** ******
   8  ****** ****** ****** ****** ****** ****** ****** ****** ****** ******
      ****** ****** ****** ****** ****** ****** ****** ****** ****** ******
      ****** ****** ****** ****** ****** ****** ****** ****** ****** ******
   9  ****** ****** ****** ****** ****** ****** ****** ****** ****** ******
      ****** ****** ****** ****** ****** ****** ****** ****** ****** ******
      ****** ****** ****** ****** ****** ****** ****** ****** ****** ******
  10  ****** ****** ****** ****** ****** ****** ****** ****** ****** ******
      ****** ****** ****** ****** ****** ****** ****** ****** ****** ******
      ****** ****** ****** ****** ****** ****** ****** ****** ****** ******
  11  ****** ****** ****** ****** ****** ****** ****** ****** ****** ******
      ****** ****** ****** ****** ****** ****** ****** ****** ****** ******
      ****** ****** ****** ****** ****** ****** ****** ****** ****** ******
  12  ****** ****** ****** ****** ****** ****** ****** ****** ****** ******
      ****** ****** ****** ****** ****** ****** ****** ****** ****** ******
      ****** ****** ****** ****** ****** ****** ****** ****** ****** ******
  13  ****** ****** ****** ****** ****** ****** ****** ****** ****** ******
      ****** ****** ****** ****** ****** ****** ****** ****** ****** ******
      ****** ****** ****** ****** ****** ****** ****** ****** ****** ******
  14  ****** ****** ****** ****** ****** ****** ****** ****** ****** ******
      ****** ****** ****** ****** ****** ****** ****** ****** ****** ******
      ****** ****** ****** ****** ****** ****** ****** ****** ****** ******
  15  ****** ****** ****** ****** ****** ****** ****** ****** ****** ******
      ****** ****** ****** ****** ****** ****** ****** ****** ****** ******
      ****** ****** ****** ****** ****** ****** ****** ****** ****** ******
  16  ****** ****** ****** ****** ****** ****** ****** ****** ****** ******
      ****** ****** ****** ****** ****** ****** ****** ****** ****** ******
      ****** ****** ****** ****** ****** ****** ****** ****** ****** ******
  17  ****** ****** ****** ****** ****** ****** ****** ****** ****** ******
      ****** ****** ****** ****** ****** ****** ****** ****** ****** ******
      ****** ****** ****** ****** ****** ****** ****** ****** ****** ******
  18  ****** ****** ****** ****** ****** ****** ****** ****** ****** ******
      ****** ****** ****** ****** ****** ****** ****** ****** ****** ******
      ****** ****** ****** ****** ****** ****** ****** ****** ****** ******
  19  ****** ****** ****** ****** ****** ****** ****** ****** ****** ******
      ****** ****** ****** ****** ****** ****** ****** ****** ****** ******
      ****** ****** ****** ****** ****** ****** ****** ****** ****** ******
  20  ****** ****** ****** ****** ****** ****** ****** ****** ****** ******
      ****** ****** ****** ****** ****** ****** ****** ****** ****** ******
      ****** ****** ****** ****** ****** ****** ****** ****** ****** ******
  21  ****** ****** ****** ****** ****** ****** ****** ****** ****** ******
      ****** ****** ****** ****** ****** ****** ****** ****** ****** ******
      ****** ****** ****** ****** ****** ****** ****** ****** ****** ******
  22  ****** ****** ****** ****** ****** ****** ****** ****** ****** ******
      ****** ****** ****** ****** ****** ****** ****** ****** ****** ******
      ****** ****** ****** ****** ****** ****** ****** ****** ****** ******
  23  ****** ****** ****** ****** ****** ****** ****** ****** ****** ******
      ****** ****** ****** ****** ****** ****** ****** ****** ****** ******
      ****** ****** ****** ****** ****** ****** ****** ****** ****** ******
  24  ****** ****** ****** ****** ****** ****** ****** ****** ****** ******
      ****** ****** ****** ****** ****** ****** ****** ****** ****** ******
      ****** ****** ****** ****** ****** ****** ****** ****** ****** ******
  25  ****** ****** ****** ****** ****** ****** ****** ****** ****** ******
      ****** ****** ****** ****** ****** ****** ****** ****** ****** ******
      ****** ****** ****** ****** ****** ****** ****** ****** ****** ******

 HEAD WILL BE SAVED ON UNIT   51 AT END OF TIME STEP    1, STRESS PERIOD   12
1
  VOLUMETRIC BUDGET FOR ENTIRE MODEL AT END OF TIME STEP    1, STRESS PERIOD  12
  ------------------------------------------------------------------------------

     CUMULATIVE VOLUMES      L**3       RATES FOR THIS TIME STEP      L**3/T
     ------------------                 ------------------------

           IN:                                      IN:
           ---                                      ---
             STORAGE =    26606936.3220               STORAGE =           0.0000
       CONSTANT HEAD =   180921041.0589         CONSTANT HEAD =      169643.6152
               WELLS =           0.0000                 WELLS =           0.0000
            RECHARGE =    26413200.0000              RECHARGE =       27600.0000
      STREAM LEAKAGE =     7226738.3630        STREAM LEAKAGE =        6775.1508

            TOTAL IN =   241167915.7439              TOTAL IN =      204018.7660

          OUT:                                     OUT:
          ----                                     ----
             STORAGE =     2825022.6758               STORAGE =        3769.8353
       CONSTANT HEAD =           0.0000         CONSTANT HEAD =           0.0000
               WELLS =    90973887.2941                 WELLS =       79349.6446
            RECHARGE =           0.0000              RECHARGE =           0.0000
      STREAM LEAKAGE =   147369006.7821        STREAM LEAKAGE =      120899.2852

           TOTAL OUT =   241167916.7520             TOTAL OUT =      204018.7652

            IN - OUT =          -1.0081              IN - OUT =       8.3886E-04

 PERCENT DISCREPANCY =          -0.00     PERCENT DISCREPANCY =           0.00






         TIME SUMMARY AT END OF TIME STEP    1 IN STRESS PERIOD   12
                    SECONDS     MINUTES      HOURS       DAYS        YEARS
                    -----------------------------------------------------------
   TIME STEP LENGTH 7.86240E+06 1.31040E+05  2184.0      91.000     0.24914    
 STRESS PERIOD TIME 7.86240E+06 1.31040E+05  2184.0      91.000     0.24914    
         TOTAL TIME 9.46080E+07 1.57680E+06  26280.      1095.0      2.9979    
1

 Run end date and time (yyyy/mm/dd hh:mm:ss): 2018/10/08 23:36:22
 Elapsed run time:  0.067 Seconds

