                                  MODFLOW-2005     
      U.S. GEOLOGICAL SURVEY MODULAR FINITE-DIFFERENCE GROUND-WATER FLOW MODEL
                            VERSION 1.11.00 8/8/2013

 LIST FILE: supply2.lst
                         UNIT   10

 OPENING ..\data\supply.dis
 FILE TYPE:DIS   UNIT   11   STATUS:OLD    
 FORMAT:FORMATTED              ACCESS:SEQUENTIAL          

 OPENING ..\data\supply.ba6
 FILE TYPE:BAS6   UNIT   12   STATUS:OLD    
 FORMAT:FORMATTED              ACCESS:SEQUENTIAL          

 OPENING ..\data\supply_het.bc6
 FILE TYPE:BCF6   UNIT   13   STATUS:OLD    
 FORMAT:FORMATTED              ACCESS:SEQUENTIAL          

 OPENING ..\data\supply.rch
 FILE TYPE:RCH   UNIT   15   STATUS:OLD    
 FORMAT:FORMATTED              ACCESS:SEQUENTIAL          

 OPENING ..\data\supply2.sfr
 FILE TYPE:SFR   UNIT   16   STATUS:OLD    
 FORMAT:FORMATTED              ACCESS:SEQUENTIAL          

 OPENING ..\data\supply.oc
 FILE TYPE:OC   UNIT   17   STATUS:OLD    
 FORMAT:FORMATTED              ACCESS:SEQUENTIAL          

 OPENING ..\data\supply.pcg
 FILE TYPE:PCG   UNIT   18   STATUS:OLD    
 FORMAT:FORMATTED              ACCESS:SEQUENTIAL          

 OPENING supply2.wel
 FILE TYPE:WEL   UNIT   19   STATUS:OLD    
 FORMAT:FORMATTED              ACCESS:SEQUENTIAL          

 OPENING supply2sf.cbc
 FILE TYPE:DATA(BINARY)   UNIT   50   STATUS:UNKNOWN
 FORMAT:BINARY                 ACCESS:SEQUENTIAL          

 OPENING supply2hd.bhd
 FILE TYPE:DATA(BINARY)   UNIT   51   STATUS:UNKNOWN
 FORMAT:BINARY                 ACCESS:SEQUENTIAL          

 BAS -- BASIC PACKAGE, VERSION 7, 5/2/2005 INPUT READ FROM UNIT   12
 
 MODFLOW was compiled using uniform precision
 Precision of REAL and DOUBLE PRECISION variables:          15

 DISCRETIZATION INPUT DATA READ FROM UNIT   11
    1 LAYERS        25 ROWS        30 COLUMNS
   12 STRESS PERIOD(S) IN SIMULATION
 MODEL TIME UNIT IS DAYS
 MODEL LENGTH UNIT IS UNDEFINED
  Confining bed flag for each layer:
   0

                     DELR =   200.000    

                     DELC =   200.000    

 TOP ELEVATION OF LAYER 1 =  100.0000    

   MODEL LAYER BOTTOM EL. =   0.00000     FOR LAYER   1


 STRESS PERIOD     LENGTH       TIME STEPS     MULTIPLIER FOR DELT    SS FLAG
 ----------------------------------------------------------------------------
        1         92.00000          1                    1.500         TR
        2         91.00000          1                    1.500         TR
        3         91.00000          1                    1.500         TR
        4         91.00000          1                    1.500         TR
        5         92.00000          1                    1.500         TR
        6         91.00000          1                    1.500         TR
        7         91.00000          1                    1.500         TR
        8         91.00000          1                    1.500         TR
        9         92.00000          1                    1.500         TR
       10         91.00000          1                    1.500         TR
       11         91.00000          1                    1.500         TR
       12         91.00000          1                    1.500         TR

 TRANSIENT SIMULATION



 
 #MODOFC transient water supply sample problem                                   
 #                                                                               
 THE FREE FORMAT OPTION HAS BEEN SELECTED



                     BOUNDARY ARRAY FOR LAYER   1
 READING ON UNIT   12 WITH FORMAT: (20I4)              

 AQUIFER HEAD WILL BE SET TO   0.0000     AT ALL NO-FLOW NODES (IBOUND=0).



                       INITIAL HEAD FOR LAYER   1
 READING ON UNIT   12 WITH FORMAT: (10F13.0)           

 OUTPUT CONTROL IS SPECIFIED ONLY AT TIME STEPS FOR WHICH OUTPUT IS DESIRED
 COMPACT CELL-BY-CELL BUDGET FILES WILL BE WRITTEN
 HEAD PRINT FORMAT CODE IS  18    DRAWDOWN PRINT FORMAT CODE IS   0
 HEADS WILL BE SAVED ON UNIT   51    DRAWDOWNS WILL BE SAVED ON UNIT    0

 BCF -- BLOCK-CENTERED FLOW PACKAGE, VERSION 7, 5/2/2005
         INPUT READ FROM UNIT 13
 TRANSIENT SIMULATION
 HEAD AT CELLS THAT CONVERT TO DRY=   0.0000    
 WETTING CAPABILITY IS NOT ACTIVE
      LAYER  LAYER-TYPE CODE     INTERBLOCK T
      --------------------------------------------
         1            0          0 -- HARMONIC    

 COLUMN TO ROW ANISOTROPY =  1.000000    

     PRIMARY STORAGE COEF =  5.000000E-02 FOR LAYER   1



               TRANSMIS. ALONG ROWS FOR LAYER   1
 READING ON UNIT   13 WITH FORMAT: (FREE)              

 WEL -- WELL PACKAGE, VERSION 7, 5/2/2005 INPUT READ FROM UNIT   19
 # Well package input file written by MMProc
 No named parameters
 MAXIMUM OF      4 ACTIVE WELLS AT ONE TIME


     0 Well parameters

 RCH -- RECHARGE PACKAGE, VERSION 7, 5/2/2005 INPUT READ FROM UNIT   15
 No named parameters
 OPTION 1 -- RECHARGE TO TOP LAYER


     0 Recharge parameters

 SFR7 -- STREAMFLOW ROUTING PACKAGE, VERSION 1.0.7, 2013-01-15
         INPUT READ FROM UNIT  16
 #  Supply2 test problem for GWM-VI
 #  The eighth entry in the first data line is ISTCB2 -
 #    Setting this to a negative number indicates that
 #    streamflows out of the reach will be saved to a
 #    binary file.  The absolute value of ISTCB2 is the
 #    unit to which unformatted flows will be written.
 #
 No named parameters
 Segment information will not be 
 read by reach
 No named parameters
 No specifed inflow files


 NUMBER OF STREAM REACHES IS   40

 NUMBER OF STREAM SEGMENTS IS    3

 NUMBER OF STREAM PARAMETERS IS    0

 NUMBER OF STREAM SEGMENTS DEFINED USING PARAMETERS IS              0

 MAXIMUM ERROR FOR STREAM LEAKAGE RATES IS  1.00E-04

 CONSTANT FOR MANNINGS EQUATION IS  1.2839E+05





   STREAM NETWORK DESCRIPTION: 

   LAYER    ROW    COL   SEGMENT   REACH     LENGTH
                          NUMBER   NUMBER    IN CELL        
   --------------------------------------------------
      1     13      1       1        1    2.0000E+02
      1     13      2       1        2    2.0000E+02
      1     14      3       1        3    2.0000E+02
      1     15      4       1        4    2.0000E+02
      1     16      5       1        5    2.0000E+02
      1     16      6       1        6    2.0000E+02
      1     16      7       1        7    2.0000E+02
      1     16      8       1        8    2.0000E+02
      1     16      9       1        9    2.0000E+02
      1     16     10       1       10    2.0000E+02
      1     16     11       1       11    2.0000E+02
      1     16     12       1       12    2.0000E+02
      1     15     13       1       13    2.0000E+02
      1     14     14       1       14    2.0000E+02
      1     13     15       1       15    2.0000E+02
      1     12     16       1       16    2.0000E+02
      1     12     17       1       17    2.0000E+02
      1     12     18       1       18    2.0000E+02
      1     12     19       1       19    2.0000E+02
      1     13     20       1       20    2.0000E+02
      1     14     21       1       21    2.0000E+02
      1     14     22       1       22    2.0000E+02
      1      9     30       2        1    2.0000E+02
      1      9     29       2        2    2.0000E+02
      1      9     28       2        3    2.0000E+02
      1      9     27       2        4    2.0000E+02
      1     10     26       2        5    2.0000E+02
      1     11     25       2        6    2.0000E+02
      1     12     24       2        7    2.0000E+02
      1     13     23       2        8    2.0000E+02
      1     14     22       2        9    2.0000E+02
      1     14     22       3        1    2.0000E+02
      1     15     23       3        2    2.0000E+02
      1     15     24       3        3    2.0000E+02
      1     15     25       3        4    2.0000E+02
      1     15     26       3        5    2.0000E+02
      1     16     27       3        6    2.0000E+02
      1     17     28       3        7    2.0000E+02
      1     18     29       3        8    2.0000E+02
      1     18     30       3        9    2.0000E+02




 PCG -- CONJUGATE-GRADIENT SOLUTION PACKAGE, VERSION 7, 5/2/2005
 MAXIMUM OF    500 CALLS OF SOLUTION ROUTINE
 MAXIMUM OF      5 INTERNAL ITERATIONS PER CALL TO SOLUTION ROUTINE
 MATRIX PRECONDITIONING TYPE :    1



                                    SOLUTION BY THE CONJUGATE-GRADIENT METHOD
                                   -------------------------------------------
                    MAXIMUM NUMBER OF CALLS TO PCG ROUTINE =      500
                        MAXIMUM ITERATIONS PER CALL TO PCG =        5
                               MATRIX PRECONDITIONING TYPE =        1
        RELAXATION FACTOR (ONLY USED WITH PRECOND. TYPE 1) =    0.10000E+01
 PARAMETER OF POLYNOMIAL PRECOND. = 2 (2) OR IS CALCULATED :        0
                         HEAD CHANGE CRITERION FOR CLOSURE =    0.10000E-05
                     RESIDUAL CHANGE CRITERION FOR CLOSURE =    0.10000E+01
            PCG HEAD AND RESIDUAL CHANGE PRINTOUT INTERVAL =        1
     PRINTING FROM SOLVER IS LIMITED(1) OR SUPPRESSED (>1) =        1
                            STEADY-STATE DAMPING PARAMETER =    0.10000E+01
                               TRANSIENT DAMPING PARAMETER =    0.10000E+01
1
                            STRESS PERIOD NO.    1, LENGTH =   92.00000    
                            -----------------------------------------------

                              NUMBER OF TIME STEPS =     1

                               MULTIPLIER FOR DELT =     1.500

                            INITIAL TIME STEP SIZE =   92.00000    

 WELL NO.  LAYER   ROW   COL   STRESS RATE         
 --------------------------------------------------
      1      1     11     23      -9982.    
      2      1     13     22      -7684.    
      3      1      6     18      -7790.    
      4      1      7     23     -0.1266E+05

      4 WELLS

                 RECHARGE =  5.000000E-04



 CLASSIFICATION & COUNT OF STREAM SEGMENTS BASED ON SOURCE OF INFLOW:

                HEADWATER     DIVERSION     RECEIVES TRIBUTARY FLOW
                ---------     ---------     -----------------------
                     2              0               1



                    INPUT DATA FOR EACH STREAM SEGMENT
 ---------------------------------------------------------------------------------------------

 SEGMENT    SEG.     INFLOW   OVERLAND   STREAM    STREAM   ICALC  OUTFLOW  DIVERSION PRIORITY
    NO.    LENGTH     RATE     RUNOFF      ET       PPT.    METH.  TO SEG.  FROM SEG.    NO.

      1  4.400E+03 1.000E+05 0.000E+00 0.000E+00 0.000E+00    1        3        0        0
      2  1.800E+03 5.000E+04 0.000E+00 0.000E+00 0.000E+00    1        3        0        0
      3  1.800E+03 0.000E+00 0.000E+00 0.000E+00 0.000E+00    1        0        0        0


         STREAMBED PROPERTIES AND STREAM DIMENSIONS

 SEGMENT     BED HYD. COND.      BED THICKNESS     ELEV.-TOP OF BED     WIDTH OF STREAM     DEPTH OF STREAM    STREAM ROUGHNESS
    No.     UPPER     LOWER     UPPER     LOWER     UPPER     LOWER     UPPER     LOWER     UPPER     LOWER   CHANNEL      BANK

     1  5.000E+00 5.000E+00 1.000E+00 1.000E+00 4.850E+01 3.800E+01 2.000E+01 2.000E+01                     5.000E-02
     2  5.000E+00 5.000E+00 1.000E+00 1.000E+00 4.025E+01 3.800E+01 2.000E+01 2.000E+01                     5.000E-02
     3  5.000E+00 5.000E+00 1.000E+00 1.000E+00 3.800E+01 3.000E+01 2.000E+01 2.000E+01                     5.000E-02



 
 SOLVING FOR HEAD 


     9 CALLS TO PCG ROUTINE FOR TIME STEP   1 IN STRESS PERIOD    1
    36 TOTAL ITERATIONS

 OUTPUT CONTROL FOR STRESS PERIOD    1   TIME STEP    1
    SAVE BUDGET
    SAVE HEAD FOR ALL LAYERS
    PRINT HEAD FOR ALL LAYERS
 UBDSV2 SAVING "STREAMFLOW OUT  " ON UNIT  50 AT TIME STEP  1, STRESS PERIOD   1



 STREAM LISTING     PERIOD      1   STEP        1

 LAYER ROW COL. STREAM  RCH.  FLOW INTO     FLOW TO   FLOW OUT OF   OVRLND.     DIRECT     STREAM       STREAM     STREAM     STREAM   STREAMBED  STREAMBED
                SEG.NO.  NO.  STRM. RCH.    AQUIFER    STRM. RCH.    RUNOFF     PRECIP       ET          HEAD       DEPTH      WIDTH   CONDCTNC.   GRADIENT

   1   13    1     1     1    1.0000E+05 -6.1164E+03   1.0612E+05  0.000E+00  0.000E+00  0.000E+00  4.84087E+01  1.473E-01  2.000E+01  2.000E+04 -3.058E-01
   1   13    2     1     2    1.0612E+05 -7.5857E+03   1.1370E+05  0.000E+00  0.000E+00  0.000E+00  4.79372E+01  1.531E-01  2.000E+01  2.000E+04 -3.793E-01
   1   14    3     1     3    1.1370E+05 -2.1988E+03   1.1590E+05  0.000E+00  0.000E+00  0.000E+00  4.74640E+01  1.571E-01  2.000E+01  2.000E+04 -1.099E-01
   1   15    4     1     4    1.1590E+05 -2.2703E+03   1.1817E+05  0.000E+00  0.000E+00  0.000E+00  4.69885E+01  1.590E-01  2.000E+01  2.000E+04 -1.135E-01
   1   16    5     1     5    1.1817E+05 -7.1870E+03   1.2536E+05  0.000E+00  0.000E+00  0.000E+00  4.65151E+01  1.628E-01  2.000E+01  2.000E+04 -3.593E-01
   1   16    6     1     6    1.2536E+05 -4.3051E+03   1.2966E+05  0.000E+00  0.000E+00  0.000E+00  4.60424E+01  1.674E-01  2.000E+01  2.000E+04 -2.153E-01
   1   16    7     1     7    1.2966E+05 -4.1404E+03   1.3380E+05  0.000E+00  0.000E+00  0.000E+00  4.55684E+01  1.707E-01  2.000E+01  2.000E+04 -2.070E-01
   1   16    8     1     8    1.3380E+05 -4.1002E+03   1.3790E+05  0.000E+00  0.000E+00  0.000E+00  4.50943E+01  1.738E-01  2.000E+01  2.000E+04 -2.050E-01
   1   16    9     1     9    1.3790E+05 -4.0903E+03   1.4199E+05  0.000E+00  0.000E+00  0.000E+00  4.46202E+01  1.770E-01  2.000E+01  2.000E+04 -2.045E-01
   1   16   10     1    10    1.4199E+05 -4.0887E+03   1.4608E+05  0.000E+00  0.000E+00  0.000E+00  4.41460E+01  1.801E-01  2.000E+01  2.000E+04 -2.044E-01
   1   16   11     1    11    1.4608E+05 -4.1256E+03   1.5021E+05  0.000E+00  0.000E+00  0.000E+00  4.36718E+01  1.831E-01  2.000E+01  2.000E+04 -2.063E-01
   1   16   12     1    12    1.5021E+05 -7.0058E+03   1.5721E+05  0.000E+00  0.000E+00  0.000E+00  4.31986E+01  1.872E-01  2.000E+01  2.000E+04 -3.503E-01
   1   15   13     1    13    1.5721E+05 -7.2913E+03   1.6451E+05  0.000E+00  0.000E+00  0.000E+00  4.27265E+01  1.924E-01  2.000E+01  2.000E+04 -3.646E-01
   1   14   14     1    14    1.6451E+05 -7.7412E+03   1.7225E+05  0.000E+00  0.000E+00  0.000E+00  4.22546E+01  1.977E-01  2.000E+01  2.000E+04 -3.871E-01
   1   13   15     1    15    1.7225E+05 -7.9938E+03   1.8024E+05  0.000E+00  0.000E+00  0.000E+00  4.17828E+01  2.032E-01  2.000E+01  2.000E+04 -3.997E-01
   1   12   16     1    16    1.8024E+05 -8.3532E+03   1.8859E+05  0.000E+00  0.000E+00  0.000E+00  4.13111E+01  2.088E-01  2.000E+01  2.000E+04 -4.177E-01
   1   12   17     1    17    1.8859E+05 -5.8319E+03   1.9443E+05  0.000E+00  0.000E+00  0.000E+00  4.08386E+01  2.136E-01  2.000E+01  2.000E+04 -2.916E-01
   1   12   18     1    18    1.9443E+05 -5.5245E+03   1.9995E+05  0.000E+00  0.000E+00  0.000E+00  4.03651E+01  2.174E-01  2.000E+01  2.000E+04 -2.762E-01
   1   12   19     1    19    1.9995E+05 -6.1687E+03   2.0612E+05  0.000E+00  0.000E+00  0.000E+00  3.98917E+01  2.212E-01  2.000E+01  2.000E+04 -3.084E-01
   1   13   20     1    20    2.0612E+05 -4.8245E+03   2.1094E+05  0.000E+00  0.000E+00  0.000E+00  3.94180E+01  2.248E-01  2.000E+01  2.000E+04 -2.412E-01
   1   14   21     1    21    2.1094E+05 -5.1297E+03   2.1607E+05  0.000E+00  0.000E+00  0.000E+00  3.89439E+01  2.280E-01  2.000E+01  2.000E+04 -2.565E-01
   1   14   22     1    22    2.1607E+05  4.9423E+03   2.1113E+05  0.000E+00  0.000E+00  0.000E+00  3.84667E+01  2.281E-01  2.000E+01  2.000E+04  2.471E-01
   1    9   30     2     1    5.0000E+04 -4.6065E+03   5.4606E+04  0.000E+00  0.000E+00  0.000E+00  4.02440E+01  1.190E-01  2.000E+01  2.000E+04 -2.303E-01
   1    9   29     2     2    5.4606E+04 -4.8498E+03   5.9456E+04  0.000E+00  0.000E+00  0.000E+00  4.00004E+01  1.254E-01  2.000E+01  2.000E+04 -2.425E-01
   1    9   28     2     3    5.9456E+04 -4.9930E+03   6.4449E+04  0.000E+00  0.000E+00  0.000E+00  3.97568E+01  1.318E-01  2.000E+01  2.000E+04 -2.497E-01
   1    9   27     2     4    6.4449E+04 -6.9517E+03   7.1401E+04  0.000E+00  0.000E+00  0.000E+00  3.95142E+01  1.392E-01  2.000E+01  2.000E+04 -3.476E-01
   1   10   26     2     5    7.1401E+04 -5.7185E+03   7.7120E+04  0.000E+00  0.000E+00  0.000E+00  3.92719E+01  1.469E-01  2.000E+01  2.000E+04 -2.859E-01
   1   11   25     2     6    7.7120E+04 -4.1097E+03   8.1229E+04  0.000E+00  0.000E+00  0.000E+00  3.90277E+01  1.527E-01  2.000E+01  2.000E+04 -2.055E-01
   1   12   24     2     7    8.1229E+04 -2.1805E+03   8.3410E+04  0.000E+00  0.000E+00  0.000E+00  3.87813E+01  1.563E-01  2.000E+01  2.000E+04 -1.090E-01
   1   13   23     2     8    8.3410E+04 -5.4003E+02   8.3950E+04  0.000E+00  0.000E+00  0.000E+00  3.85328E+01  1.578E-01  2.000E+01  2.000E+04 -2.700E-02
   1   14   22     2     9    8.3950E+04  1.2561E+03   8.2694E+04  0.000E+00  0.000E+00  0.000E+00  3.82824E+01  1.574E-01  2.000E+01  2.000E+04  6.280E-02
   1   14   22     3     1    2.9382E+05 -8.6572E+03   3.0248E+05  0.000E+00  0.000E+00  0.000E+00  3.77867E+01  2.312E-01  2.000E+01  2.000E+04 -4.329E-01
   1   15   23     3     2    3.0248E+05 -1.9838E+03   3.0447E+05  0.000E+00  0.000E+00  0.000E+00  3.69003E+01  2.337E-01  2.000E+01  2.000E+04 -9.919E-02
   1   15   24     3     3    3.0447E+05 -1.5282E+03   3.0599E+05  0.000E+00  0.000E+00  0.000E+00  3.60122E+01  2.345E-01  2.000E+01  2.000E+04 -7.641E-02
   1   15   25     3     4    3.0599E+05 -1.5782E+03   3.0757E+05  0.000E+00  0.000E+00  0.000E+00  3.51241E+01  2.352E-01  2.000E+01  2.000E+04 -7.891E-02
   1   15   26     3     5    3.0757E+05 -1.8817E+03   3.0945E+05  0.000E+00  0.000E+00  0.000E+00  3.42360E+01  2.360E-01  2.000E+01  2.000E+04 -9.409E-02
   1   16   27     3     6    3.0945E+05 -2.1642E+03   3.1162E+05  0.000E+00  0.000E+00  0.000E+00  3.33480E+01  2.369E-01  2.000E+01  2.000E+04 -1.082E-01
   1   17   28     3     7    3.1162E+05 -6.5782E+03   3.1820E+05  0.000E+00  0.000E+00  0.000E+00  3.24611E+01  2.389E-01  2.000E+01  2.000E+04 -3.289E-01
   1   18   29     3     8    3.1820E+05 -7.9950E+03   3.2619E+05  0.000E+00  0.000E+00  0.000E+00  3.15755E+01  2.422E-01  2.000E+01  2.000E+04 -3.998E-01
   1   18   30     3     9    3.2619E+05 -7.1746E+03   3.3337E+05  0.000E+00  0.000E+00  0.000E+00  3.06900E+01  2.456E-01  2.000E+01  2.000E+04 -3.587E-01



1
              HEAD IN LAYER   1 AT END OF TIME STEP   1 IN STRESS PERIOD    1
  ---------------------------------------------------------------------------

          1      2      3      4      5      6      7      8      9     10
         11     12     13     14     15     16     17     18     19     20
         21     22     23     24     25     26     27     28     29     30
 .........................................................................
   1  ****** ****** ****** ****** ****** ****** ****** ****** ****** ******
      ****** ****** ****** ****** ****** ****** ****** ****** ****** ******
      ****** ****** ****** ****** ****** ****** ****** ****** ****** ******
   2  ****** ****** ****** ****** ****** ****** ****** ****** ****** ******
      ****** ****** ****** ****** ****** ****** ****** ****** ****** ******
      ****** ****** ****** ****** ****** ****** ****** ****** ****** ******
   3  ****** ****** ****** ****** ****** ****** ****** ****** ****** ******
      ****** ****** ****** ****** ****** ****** ****** ****** ****** ******
      ****** ****** ****** ****** ****** ****** ****** ****** ****** ******
   4  ****** ****** ****** ****** ****** ****** ****** ****** ****** ******
      ****** ****** ****** ****** ****** ****** ****** ****** ****** ******
      ****** ****** ****** ****** ****** ****** ****** ****** ****** ******
   5  ****** ****** ****** ****** ****** ****** ****** ****** ****** ******
      ****** ****** ****** ****** ****** ****** ****** ****** ****** ******
      ****** ****** ****** ****** ****** ****** ****** ****** ****** ******
   6  ****** ****** ****** ****** ****** ****** ****** ****** ****** ******
      ****** ****** ****** ****** ****** ****** ****** ****** ****** ******
      ****** ****** ****** ****** ****** ****** ****** ****** ****** ******
   7  ****** ****** ****** ****** ****** ****** ****** ****** ****** ******
      ****** ****** ****** ****** ****** ****** ****** ****** ****** ******
      ****** ****** ****** ****** ****** ****** ****** ****** ****** ******
   8  ****** ****** ****** ****** ****** ****** ****** ****** ****** ******
      ****** ****** ****** ****** ****** ****** ****** ****** ****** ******
      ****** ****** ****** ****** ****** ****** ****** ****** ****** ******
   9  ****** ****** ****** ****** ****** ****** ****** ****** ****** ******
      ****** ****** ****** ****** ****** ****** ****** ****** ****** ******
      ****** ****** ****** ****** ****** ****** ****** ****** ****** ******
  10  ****** ****** ****** ****** ****** ****** ****** ****** ****** ******
      ****** ****** ****** ****** ****** ****** ****** ****** ****** ******
      ****** ****** ****** ****** ****** ****** ****** ****** ****** ******
  11  ****** ****** ****** ****** ****** ****** ****** ****** ****** ******
      ****** ****** ****** ****** ****** ****** ****** ****** ****** ******
      ****** ****** ****** ****** ****** ****** ****** ****** ****** ******
  12  ****** ****** ****** ****** ****** ****** ****** ****** ****** ******
      ****** ****** ****** ****** ****** ****** ****** ****** ****** ******
      ****** ****** ****** ****** ****** ****** ****** ****** ****** ******
  13  ****** ****** ****** ****** ****** ****** ****** ****** ****** ******
      ****** ****** ****** ****** ****** ****** ****** ****** ****** ******
      ****** ****** ****** ****** ****** ****** ****** ****** ****** ******
  14  ****** ****** ****** ****** ****** ****** ****** ****** ****** ******
      ****** ****** ****** ****** ****** ****** ****** ****** ****** ******
      ****** ****** ****** ****** ****** ****** ****** ****** ****** ******
  15  ****** ****** ****** ****** ****** ****** ****** ****** ****** ******
      ****** ****** ****** ****** ****** ****** ****** ****** ****** ******
      ****** ****** ****** ****** ****** ****** ****** ****** ****** ******
  16  ****** ****** ****** ****** ****** ****** ****** ****** ****** ******
      ****** ****** ****** ****** ****** ****** ****** ****** ****** ******
      ****** ****** ****** ****** ****** ****** ****** ****** ****** ******
  17  ****** ****** ****** ****** ****** ****** ****** ****** ****** ******
      ****** ****** ****** ****** ****** ****** ****** ****** ****** ******
      ****** ****** ****** ****** ****** ****** ****** ****** ****** ******
  18  ****** ****** ****** ****** ****** ****** ****** ****** ****** ******
      ****** ****** ****** ****** ****** ****** ****** ****** ****** ******
      ****** ****** ****** ****** ****** ****** ****** ****** ****** ******
  19  ****** ****** ****** ****** ****** ****** ****** ****** ****** ******
      ****** ****** ****** ****** ****** ****** ****** ****** ****** ******
      ****** ****** ****** ****** ****** ****** ****** ****** ****** ******
  20  ****** ****** ****** ****** ****** ****** ****** ****** ****** ******
      ****** ****** ****** ****** ****** ****** ****** ****** ****** ******
      ****** ****** ****** ****** ****** ****** ****** ****** ****** ******
  21  ****** ****** ****** ****** ****** ****** ****** ****** ****** ******
      ****** ****** ****** ****** ****** ****** ****** ****** ****** ******
      ****** ****** ****** ****** ****** ****** ****** ****** ****** ******
  22  ****** ****** ****** ****** ****** ****** ****** ****** ****** ******
      ****** ****** ****** ****** ****** ****** ****** ****** ****** ******
      ****** ****** ****** ****** ****** ****** ****** ****** ****** ******
  23  ****** ****** ****** ****** ****** ****** ****** ****** ****** ******
      ****** ****** ****** ****** ****** ****** ****** ****** ****** ******
      ****** ****** ****** ****** ****** ****** ****** ****** ****** ******
  24  ****** ****** ****** ****** ****** ****** ****** ****** ****** ******
      ****** ****** ****** ****** ****** ****** ****** ****** ****** ******
      ****** ****** ****** ****** ****** ****** ****** ****** ****** ******
  25  ****** ****** ****** ****** ****** ****** ****** ****** ****** ******
      ****** ****** ****** ****** ****** ****** ****** ****** ****** ******
      ****** ****** ****** ****** ****** ****** ****** ****** ****** ******

 HEAD WILL BE SAVED ON UNIT   51 AT END OF TIME STEP    1, STRESS PERIOD    1
1
  VOLUMETRIC BUDGET FOR ENTIRE MODEL AT END OF TIME STEP    1, STRESS PERIOD   1
  ------------------------------------------------------------------------------

     CUMULATIVE VOLUMES      L**3       RATES FOR THIS TIME STEP      L**3/T
     ------------------                 ------------------------

           IN:                                      IN:
           ---                                      ---
             STORAGE =    17929798.5324               STORAGE =      194889.1145
       CONSTANT HEAD =     1176639.6216         CONSTANT HEAD =       12789.5611
               WELLS =           0.0000                 WELLS =           0.0000
            RECHARGE =     1269600.0000              RECHARGE =       13800.0000
      STREAM LEAKAGE =      570247.3673        STREAM LEAKAGE =        6198.3409

            TOTAL IN =    20946285.5213              TOTAL IN =      227677.0165

          OUT:                                     OUT:
          ----                                     ----
             STORAGE =           0.0000               STORAGE =           0.0000
       CONSTANT HEAD =           0.0000         CONSTANT HEAD =           0.0000
               WELLS =     3506391.8974                 WELLS =       38112.9554
            RECHARGE =           0.0000              RECHARGE =           0.0000
      STREAM LEAKAGE =    17439893.9129        STREAM LEAKAGE =      189564.0643

           TOTAL OUT =    20946285.8103             TOTAL OUT =      227677.0197

            IN - OUT =          -0.2890              IN - OUT =      -3.1413E-03

 PERCENT DISCREPANCY =          -0.00     PERCENT DISCREPANCY =          -0.00






         TIME SUMMARY AT END OF TIME STEP    1 IN STRESS PERIOD    1
                    SECONDS     MINUTES      HOURS       DAYS        YEARS
                    -----------------------------------------------------------
   TIME STEP LENGTH 7.94880E+06 1.32480E+05  2208.0      92.000     0.25188    
 STRESS PERIOD TIME 7.94880E+06 1.32480E+05  2208.0      92.000     0.25188    
         TOTAL TIME 7.94880E+06 1.32480E+05  2208.0      92.000     0.25188    
1
1
                            STRESS PERIOD NO.    2, LENGTH =   91.00000    
                            -----------------------------------------------

                              NUMBER OF TIME STEPS =     1

                               MULTIPLIER FOR DELT =     1.500

                            INITIAL TIME STEP SIZE =   91.00000    

 WELL NO.  LAYER   ROW   COL   STRESS RATE         
 --------------------------------------------------
      1      1     11     23      -9982.    
      2      1     13     22      -7684.    
      3      1      6     18      -7790.    
      4      1      7     23     -0.1266E+05

      4 WELLS

                 RECHARGE =  2.000000E-03

 REUSING STREAM SEGMENT DATA FROM LAST STRESS PERIOD
 
 SOLVING FOR HEAD 


     7 CALLS TO PCG ROUTINE FOR TIME STEP   1 IN STRESS PERIOD    2
    27 TOTAL ITERATIONS

 OUTPUT CONTROL FOR STRESS PERIOD    2   TIME STEP    1
    SAVE BUDGET
    SAVE HEAD FOR ALL LAYERS
    PRINT HEAD FOR ALL LAYERS
 UBDSV2 SAVING "STREAMFLOW OUT  " ON UNIT  50 AT TIME STEP  1, STRESS PERIOD   2



 STREAM LISTING     PERIOD      2   STEP        1

 LAYER ROW COL. STREAM  RCH.  FLOW INTO     FLOW TO   FLOW OUT OF   OVRLND.     DIRECT     STREAM       STREAM     STREAM     STREAM   STREAMBED  STREAMBED
                SEG.NO.  NO.  STRM. RCH.    AQUIFER    STRM. RCH.    RUNOFF     PRECIP       ET          HEAD       DEPTH      WIDTH   CONDCTNC.   GRADIENT

   1   13    1     1     1    1.0000E+05 -3.9903E+03   1.0399E+05  0.000E+00  0.000E+00  0.000E+00  4.84077E+01  1.464E-01  2.000E+01  2.000E+04 -1.995E-01
   1   13    2     1     2    1.0399E+05 -5.2513E+03   1.0924E+05  0.000E+00  0.000E+00  0.000E+00  4.79344E+01  1.503E-01  2.000E+01  2.000E+04 -2.626E-01
   1   14    3     1     3    1.0924E+05 -1.1155E+03   1.1036E+05  0.000E+00  0.000E+00  0.000E+00  4.74598E+01  1.530E-01  2.000E+01  2.000E+04 -5.578E-02
   1   15    4     1     4    1.1036E+05 -1.1441E+03   1.1150E+05  0.000E+00  0.000E+00  0.000E+00  4.69835E+01  1.539E-01  2.000E+01  2.000E+04 -5.720E-02
   1   16    5     1     5    1.1150E+05 -4.2600E+03   1.1576E+05  0.000E+00  0.000E+00  0.000E+00  4.65085E+01  1.562E-01  2.000E+01  2.000E+04 -2.130E-01
   1   16    6     1     6    1.1576E+05 -2.5121E+03   1.1827E+05  0.000E+00  0.000E+00  0.000E+00  4.60340E+01  1.590E-01  2.000E+01  2.000E+04 -1.256E-01
   1   16    7     1     7    1.1827E+05 -2.4186E+03   1.2069E+05  0.000E+00  0.000E+00  0.000E+00  4.55587E+01  1.610E-01  2.000E+01  2.000E+04 -1.209E-01
   1   16    8     1     8    1.2069E+05 -2.3907E+03   1.2308E+05  0.000E+00  0.000E+00  0.000E+00  4.50833E+01  1.629E-01  2.000E+01  2.000E+04 -1.195E-01
   1   16    9     1     9    1.2308E+05 -2.3716E+03   1.2545E+05  0.000E+00  0.000E+00  0.000E+00  4.46080E+01  1.648E-01  2.000E+01  2.000E+04 -1.186E-01
   1   16   10     1    10    1.2545E+05 -2.3494E+03   1.2780E+05  0.000E+00  0.000E+00  0.000E+00  4.41326E+01  1.667E-01  2.000E+01  2.000E+04 -1.175E-01
   1   16   11     1    11    1.2780E+05 -2.3583E+03   1.3016E+05  0.000E+00  0.000E+00  0.000E+00  4.36572E+01  1.685E-01  2.000E+01  2.000E+04 -1.179E-01
   1   16   12     1    12    1.3016E+05 -4.1370E+03   1.3430E+05  0.000E+00  0.000E+00  0.000E+00  4.31824E+01  1.710E-01  2.000E+01  2.000E+04 -2.069E-01
   1   15   13     1    13    1.3430E+05 -4.0485E+03   1.3835E+05  0.000E+00  0.000E+00  0.000E+00  4.27083E+01  1.742E-01  2.000E+01  2.000E+04 -2.024E-01
   1   14   14     1    14    1.3835E+05 -4.3467E+03   1.4269E+05  0.000E+00  0.000E+00  0.000E+00  4.22342E+01  1.774E-01  2.000E+01  2.000E+04 -2.173E-01
   1   13   15     1    15    1.4269E+05 -4.5469E+03   1.4724E+05  0.000E+00  0.000E+00  0.000E+00  4.17603E+01  1.808E-01  2.000E+01  2.000E+04 -2.273E-01
   1   12   16     1    16    1.4724E+05 -4.9376E+03   1.5218E+05  0.000E+00  0.000E+00  0.000E+00  4.12866E+01  1.843E-01  2.000E+01  2.000E+04 -2.469E-01
   1   12   17     1    17    1.5218E+05 -3.1206E+03   1.5530E+05  0.000E+00  0.000E+00  0.000E+00  4.08122E+01  1.872E-01  2.000E+01  2.000E+04 -1.560E-01
   1   12   18     1    18    1.5530E+05 -2.7689E+03   1.5807E+05  0.000E+00  0.000E+00  0.000E+00  4.03371E+01  1.894E-01  2.000E+01  2.000E+04 -1.384E-01
   1   12   19     1    19    1.5807E+05 -2.5572E+03   1.6063E+05  0.000E+00  0.000E+00  0.000E+00  3.98618E+01  1.913E-01  2.000E+01  2.000E+04 -1.279E-01
   1   13   20     1    20    1.6063E+05 -1.4047E+03   1.6203E+05  0.000E+00  0.000E+00  0.000E+00  3.93859E+01  1.927E-01  2.000E+01  2.000E+04 -7.024E-02
   1   14   21     1    21    1.6203E+05 -2.2993E+03   1.6433E+05  0.000E+00  0.000E+00  0.000E+00  3.89100E+01  1.941E-01  2.000E+01  2.000E+04 -1.150E-01
   1   14   22     1    22    1.6433E+05  5.7972E+03   1.5853E+05  0.000E+00  0.000E+00  0.000E+00  3.84314E+01  1.928E-01  2.000E+01  2.000E+04  2.899E-01
   1    9   30     2     1    5.0000E+04 -1.7205E+03   5.1721E+04  0.000E+00  0.000E+00  0.000E+00  4.02421E+01  1.171E-01  2.000E+01  2.000E+04 -8.603E-02
   1    9   29     2     2    5.1721E+04 -1.9582E+03   5.3679E+04  0.000E+00  0.000E+00  0.000E+00  3.99946E+01  1.196E-01  2.000E+01  2.000E+04 -9.791E-02
   1    9   28     2     3    5.3679E+04 -2.0688E+03   5.5748E+04  0.000E+00  0.000E+00  0.000E+00  3.97473E+01  1.223E-01  2.000E+01  2.000E+04 -1.034E-01
   1    9   27     2     4    5.5748E+04 -2.9434E+03   5.8691E+04  0.000E+00  0.000E+00  0.000E+00  3.95006E+01  1.256E-01  2.000E+01  2.000E+04 -1.472E-01
   1   10   26     2     5    5.8691E+04 -1.6179E+03   6.0309E+04  0.000E+00  0.000E+00  0.000E+00  3.92536E+01  1.286E-01  2.000E+01  2.000E+04 -8.090E-02
   1   11   25     2     6    6.0309E+04 -1.4698E+02   6.0456E+04  0.000E+00  0.000E+00  0.000E+00  3.90048E+01  1.298E-01  2.000E+01  2.000E+04 -7.349E-03
   1   12   24     2     7    6.0456E+04  1.4767E+03   5.8979E+04  0.000E+00  0.000E+00  0.000E+00  3.87539E+01  1.289E-01  2.000E+01  2.000E+04  7.383E-02
   1   13   23     2     8    5.8979E+04  6.0026E+02   5.8379E+04  0.000E+00  0.000E+00  0.000E+00  3.85025E+01  1.275E-01  2.000E+01  2.000E+04  3.001E-02
   1   14   22     2     9    5.8379E+04  2.1828E+03   5.6196E+04  0.000E+00  0.000E+00  0.000E+00  3.82507E+01  1.257E-01  2.000E+01  2.000E+04  1.091E-01
   1   14   22     3     1    2.1473E+05 -7.8817E+03   2.2261E+05  0.000E+00  0.000E+00  0.000E+00  3.77475E+01  1.919E-01  2.000E+01  2.000E+04 -3.941E-01
   1   15   23     3     2    2.2261E+05 -1.0491E+03   2.2366E+05  0.000E+00  0.000E+00  0.000E+00  3.68610E+01  1.943E-01  2.000E+01  2.000E+04 -5.245E-02
   1   15   24     3     3    2.2366E+05 -6.6285E+02   2.2432E+05  0.000E+00  0.000E+00  0.000E+00  3.59725E+01  1.947E-01  2.000E+01  2.000E+04 -3.314E-02
   1   15   25     3     4    2.2432E+05 -6.6928E+02   2.2499E+05  0.000E+00  0.000E+00  0.000E+00  3.50840E+01  1.951E-01  2.000E+01  2.000E+04 -3.346E-02
   1   15   26     3     5    2.2499E+05 -7.7086E+02   2.2576E+05  0.000E+00  0.000E+00  0.000E+00  3.41955E+01  1.955E-01  2.000E+01  2.000E+04 -3.854E-02
   1   16   27     3     6    2.2576E+05 -8.9781E+02   2.2666E+05  0.000E+00  0.000E+00  0.000E+00  3.33070E+01  1.959E-01  2.000E+01  2.000E+04 -4.489E-02
   1   17   28     3     7    2.2666E+05 -3.2549E+03   2.2991E+05  0.000E+00  0.000E+00  0.000E+00  3.24192E+01  1.970E-01  2.000E+01  2.000E+04 -1.627E-01
   1   18   29     3     8    2.2991E+05 -5.0574E+03   2.3497E+05  0.000E+00  0.000E+00  0.000E+00  3.15324E+01  1.991E-01  2.000E+01  2.000E+04 -2.529E-01
   1   18   30     3     9    2.3497E+05 -4.6847E+03   2.3966E+05  0.000E+00  0.000E+00  0.000E+00  3.06460E+01  2.016E-01  2.000E+01  2.000E+04 -2.342E-01



1
              HEAD IN LAYER   1 AT END OF TIME STEP   1 IN STRESS PERIOD    2
  ---------------------------------------------------------------------------

          1      2      3      4      5      6      7      8      9     10
         11     12     13     14     15     16     17     18     19     20
         21     22     23     24     25     26     27     28     29     30
 .........................................................................
   1  ****** ****** ****** ****** ****** ****** ****** ****** ****** ******
      ****** ****** ****** ****** ****** ****** ****** ****** ****** ******
      ****** ****** ****** ****** ****** ****** ****** ****** ****** ******
   2  ****** ****** ****** ****** ****** ****** ****** ****** ****** ******
      ****** ****** ****** ****** ****** ****** ****** ****** ****** ******
      ****** ****** ****** ****** ****** ****** ****** ****** ****** ******
   3  ****** ****** ****** ****** ****** ****** ****** ****** ****** ******
      ****** ****** ****** ****** ****** ****** ****** ****** ****** ******
      ****** ****** ****** ****** ****** ****** ****** ****** ****** ******
   4  ****** ****** ****** ****** ****** ****** ****** ****** ****** ******
      ****** ****** ****** ****** ****** ****** ****** ****** ****** ******
      ****** ****** ****** ****** ****** ****** ****** ****** ****** ******
   5  ****** ****** ****** ****** ****** ****** ****** ****** ****** ******
      ****** ****** ****** ****** ****** ****** ****** ****** ****** ******
      ****** ****** ****** ****** ****** ****** ****** ****** ****** ******
   6  ****** ****** ****** ****** ****** ****** ****** ****** ****** ******
      ****** ****** ****** ****** ****** ****** ****** ****** ****** ******
      ****** ****** ****** ****** ****** ****** ****** ****** ****** ******
   7  ****** ****** ****** ****** ****** ****** ****** ****** ****** ******
      ****** ****** ****** ****** ****** ****** ****** ****** ****** ******
      ****** ****** ****** ****** ****** ****** ****** ****** ****** ******
   8  ****** ****** ****** ****** ****** ****** ****** ****** ****** ******
      ****** ****** ****** ****** ****** ****** ****** ****** ****** ******
      ****** ****** ****** ****** ****** ****** ****** ****** ****** ******
   9  ****** ****** ****** ****** ****** ****** ****** ****** ****** ******
      ****** ****** ****** ****** ****** ****** ****** ****** ****** ******
      ****** ****** ****** ****** ****** ****** ****** ****** ****** ******
  10  ****** ****** ****** ****** ****** ****** ****** ****** ****** ******
      ****** ****** ****** ****** ****** ****** ****** ****** ****** ******
      ****** ****** ****** ****** ****** ****** ****** ****** ****** ******
  11  ****** ****** ****** ****** ****** ****** ****** ****** ****** ******
      ****** ****** ****** ****** ****** ****** ****** ****** ****** ******
      ****** ****** ****** ****** ****** ****** ****** ****** ****** ******
  12  ****** ****** ****** ****** ****** ****** ****** ****** ****** ******
      ****** ****** ****** ****** ****** ****** ****** ****** ****** ******
      ****** ****** ****** ****** ****** ****** ****** ****** ****** ******
  13  ****** ****** ****** ****** ****** ****** ****** ****** ****** ******
      ****** ****** ****** ****** ****** ****** ****** ****** ****** ******
      ****** ****** ****** ****** ****** ****** ****** ****** ****** ******
  14  ****** ****** ****** ****** ****** ****** ****** ****** ****** ******
      ****** ****** ****** ****** ****** ****** ****** ****** ****** ******
      ****** ****** ****** ****** ****** ****** ****** ****** ****** ******
  15  ****** ****** ****** ****** ****** ****** ****** ****** ****** ******
      ****** ****** ****** ****** ****** ****** ****** ****** ****** ******
      ****** ****** ****** ****** ****** ****** ****** ****** ****** ******
  16  ****** ****** ****** ****** ****** ****** ****** ****** ****** ******
      ****** ****** ****** ****** ****** ****** ****** ****** ****** ******
      ****** ****** ****** ****** ****** ****** ****** ****** ****** ******
  17  ****** ****** ****** ****** ****** ****** ****** ****** ****** ******
      ****** ****** ****** ****** ****** ****** ****** ****** ****** ******
      ****** ****** ****** ****** ****** ****** ****** ****** ****** ******
  18  ****** ****** ****** ****** ****** ****** ****** ****** ****** ******
      ****** ****** ****** ****** ****** ****** ****** ****** ****** ******
      ****** ****** ****** ****** ****** ****** ****** ****** ****** ******
  19  ****** ****** ****** ****** ****** ****** ****** ****** ****** ******
      ****** ****** ****** ****** ****** ****** ****** ****** ****** ******
      ****** ****** ****** ****** ****** ****** ****** ****** ****** ******
  20  ****** ****** ****** ****** ****** ****** ****** ****** ****** ******
      ****** ****** ****** ****** ****** ****** ****** ****** ****** ******
      ****** ****** ****** ****** ****** ****** ****** ****** ****** ******
  21  ****** ****** ****** ****** ****** ****** ****** ****** ****** ******
      ****** ****** ****** ****** ****** ****** ****** ****** ****** ******
      ****** ****** ****** ****** ****** ****** ****** ****** ****** ******
  22  ****** ****** ****** ****** ****** ****** ****** ****** ****** ******
      ****** ****** ****** ****** ****** ****** ****** ****** ****** ******
      ****** ****** ****** ****** ****** ****** ****** ****** ****** ******
  23  ****** ****** ****** ****** ****** ****** ****** ****** ****** ******
      ****** ****** ****** ****** ****** ****** ****** ****** ****** ******
      ****** ****** ****** ****** ****** ****** ****** ****** ****** ******
  24  ****** ****** ****** ****** ****** ****** ****** ****** ****** ******
      ****** ****** ****** ****** ****** ****** ****** ****** ****** ******
      ****** ****** ****** ****** ****** ****** ****** ****** ****** ******
  25  ****** ****** ****** ****** ****** ****** ****** ****** ****** ******
      ****** ****** ****** ****** ****** ****** ****** ****** ****** ******
      ****** ****** ****** ****** ****** ****** ****** ****** ****** ******

 HEAD WILL BE SAVED ON UNIT   51 AT END OF TIME STEP    1, STRESS PERIOD    2
1
  VOLUMETRIC BUDGET FOR ENTIRE MODEL AT END OF TIME STEP    1, STRESS PERIOD   2
  ------------------------------------------------------------------------------

     CUMULATIVE VOLUMES      L**3       RATES FOR THIS TIME STEP      L**3/T
     ------------------                 ------------------------

           IN:                                      IN:
           ---                                      ---
             STORAGE =    22937728.3244               STORAGE =       55032.1955
       CONSTANT HEAD =     2772544.9852         CONSTANT HEAD =       17537.4216
               WELLS =           0.0000                 WELLS =           0.0000
            RECHARGE =     6292800.0000              RECHARGE =       55200.0000
      STREAM LEAKAGE =     1485423.7606        STREAM LEAKAGE =       10056.8834

            TOTAL IN =    33488497.0702              TOTAL IN =      137826.5005

          OUT:                                     OUT:
          ----                                     ----
             STORAGE =           0.0000               STORAGE =           0.0000
       CONSTANT HEAD =           0.0000         CONSTANT HEAD =           0.0000
               WELLS =     6974670.8394                 WELLS =       38112.9554
            RECHARGE =           0.0000              RECHARGE =           0.0000
      STREAM LEAKAGE =    26513827.4209        STREAM LEAKAGE =       99713.5550

           TOTAL OUT =    33488498.2603             TOTAL OUT =      137826.5104

            IN - OUT =          -1.1901              IN - OUT =      -9.9024E-03

 PERCENT DISCREPANCY =          -0.00     PERCENT DISCREPANCY =          -0.00






         TIME SUMMARY AT END OF TIME STEP    1 IN STRESS PERIOD    2
                    SECONDS     MINUTES      HOURS       DAYS        YEARS
                    -----------------------------------------------------------
   TIME STEP LENGTH 7.86240E+06 1.31040E+05  2184.0      91.000     0.24914    
 STRESS PERIOD TIME 7.86240E+06 1.31040E+05  2184.0      91.000     0.24914    
         TOTAL TIME 1.58112E+07 2.63520E+05  4392.0      183.00     0.50103    
1
1
                            STRESS PERIOD NO.    3, LENGTH =   91.00000    
                            -----------------------------------------------

                              NUMBER OF TIME STEPS =     1

                               MULTIPLIER FOR DELT =     1.500

                            INITIAL TIME STEP SIZE =   91.00000    

 WELL NO.  LAYER   ROW   COL   STRESS RATE         
 --------------------------------------------------
      1      1     11     23      -9982.    
      2      1     13     22      -7684.    
      3      1      6     18      -7790.    
      4      1      7     23     -0.1266E+05

      4 WELLS

                 RECHARGE =   0.00000    

 REUSING STREAM SEGMENT DATA FROM LAST STRESS PERIOD
 
 SOLVING FOR HEAD 


     7 CALLS TO PCG ROUTINE FOR TIME STEP   1 IN STRESS PERIOD    3
    27 TOTAL ITERATIONS

 OUTPUT CONTROL FOR STRESS PERIOD    3   TIME STEP    1
    SAVE BUDGET
    SAVE HEAD FOR ALL LAYERS
    PRINT HEAD FOR ALL LAYERS
 UBDSV2 SAVING "STREAMFLOW OUT  " ON UNIT  50 AT TIME STEP  1, STRESS PERIOD   3



 STREAM LISTING     PERIOD      3   STEP        1

 LAYER ROW COL. STREAM  RCH.  FLOW INTO     FLOW TO   FLOW OUT OF   OVRLND.     DIRECT     STREAM       STREAM     STREAM     STREAM   STREAMBED  STREAMBED
                SEG.NO.  NO.  STRM. RCH.    AQUIFER    STRM. RCH.    RUNOFF     PRECIP       ET          HEAD       DEPTH      WIDTH   CONDCTNC.   GRADIENT

   1   13    1     1     1    1.0000E+05 -2.7296E+03   1.0273E+05  0.000E+00  0.000E+00  0.000E+00  4.84072E+01  1.458E-01  2.000E+01  2.000E+04 -1.365E-01
   1   13    2     1     2    1.0273E+05 -3.8361E+03   1.0657E+05  0.000E+00  0.000E+00  0.000E+00  4.79327E+01  1.486E-01  2.000E+01  2.000E+04 -1.918E-01
   1   14    3     1     3    1.0657E+05 -6.5427E+02   1.0722E+05  0.000E+00  0.000E+00  0.000E+00  4.74574E+01  1.506E-01  2.000E+01  2.000E+04 -3.271E-02
   1   15    4     1     4    1.0722E+05 -6.3921E+02   1.0786E+05  0.000E+00  0.000E+00  0.000E+00  4.69806E+01  1.511E-01  2.000E+01  2.000E+04 -3.196E-02
   1   16    5     1     5    1.0786E+05 -2.4712E+03   1.1033E+05  0.000E+00  0.000E+00  0.000E+00  4.65047E+01  1.524E-01  2.000E+01  2.000E+04 -1.236E-01
   1   16    6     1     6    1.1033E+05 -1.5127E+03   1.1184E+05  0.000E+00  0.000E+00  0.000E+00  4.60291E+01  1.541E-01  2.000E+01  2.000E+04 -7.563E-02
   1   16    7     1     7    1.1184E+05 -1.4775E+03   1.1332E+05  0.000E+00  0.000E+00  0.000E+00  4.55530E+01  1.553E-01  2.000E+01  2.000E+04 -7.387E-02
   1   16    8     1     8    1.1332E+05 -1.4679E+03   1.1479E+05  0.000E+00  0.000E+00  0.000E+00  4.50770E+01  1.565E-01  2.000E+01  2.000E+04 -7.340E-02
   1   16    9     1     9    1.1479E+05 -1.4538E+03   1.1624E+05  0.000E+00  0.000E+00  0.000E+00  4.46009E+01  1.577E-01  2.000E+01  2.000E+04 -7.269E-02
   1   16   10     1    10    1.1624E+05 -1.4327E+03   1.1767E+05  0.000E+00  0.000E+00  0.000E+00  4.41248E+01  1.589E-01  2.000E+01  2.000E+04 -7.164E-02
   1   16   11     1    11    1.1767E+05 -1.4373E+03   1.1911E+05  0.000E+00  0.000E+00  0.000E+00  4.36487E+01  1.601E-01  2.000E+01  2.000E+04 -7.186E-02
   1   16   12     1    12    1.1911E+05 -2.5343E+03   1.2165E+05  0.000E+00  0.000E+00  0.000E+00  4.31730E+01  1.617E-01  2.000E+01  2.000E+04 -1.267E-01
   1   15   13     1    13    1.2165E+05 -2.3841E+03   1.2403E+05  0.000E+00  0.000E+00  0.000E+00  4.26977E+01  1.637E-01  2.000E+01  2.000E+04 -1.192E-01
   1   14   14     1    14    1.2403E+05 -2.6120E+03   1.2664E+05  0.000E+00  0.000E+00  0.000E+00  4.22225E+01  1.656E-01  2.000E+01  2.000E+04 -1.306E-01
   1   13   15     1    15    1.2664E+05 -2.7749E+03   1.2942E+05  0.000E+00  0.000E+00  0.000E+00  4.17473E+01  1.678E-01  2.000E+01  2.000E+04 -1.387E-01
   1   12   16     1    16    1.2942E+05 -3.0254E+03   1.3244E+05  0.000E+00  0.000E+00  0.000E+00  4.12723E+01  1.700E-01  2.000E+01  2.000E+04 -1.513E-01
   1   12   17     1    17    1.3244E+05 -1.7416E+03   1.3418E+05  0.000E+00  0.000E+00  0.000E+00  4.07969E+01  1.719E-01  2.000E+01  2.000E+04 -8.708E-02
   1   12   18     1    18    1.3418E+05 -1.4011E+03   1.3559E+05  0.000E+00  0.000E+00  0.000E+00  4.03208E+01  1.731E-01  2.000E+01  2.000E+04 -7.005E-02
   1   12   19     1    19    1.3559E+05 -7.9308E+02   1.3638E+05  0.000E+00  0.000E+00  0.000E+00  3.98444E+01  1.739E-01  2.000E+01  2.000E+04 -3.965E-02
   1   13   20     1    20    1.3638E+05  1.2999E+02   1.3625E+05  0.000E+00  0.000E+00  0.000E+00  3.93674E+01  1.742E-01  2.000E+01  2.000E+04  6.500E-03
   1   14   21     1    21    1.3625E+05 -8.1806E+02   1.3707E+05  0.000E+00  0.000E+00  0.000E+00  3.88904E+01  1.745E-01  2.000E+01  2.000E+04 -4.090E-02
   1   14   22     1    22    1.3707E+05  6.1795E+03   1.3089E+05  0.000E+00  0.000E+00  0.000E+00  3.84110E+01  1.724E-01  2.000E+01  2.000E+04  3.090E-01
   1    9   30     2     1    5.0000E+04 -4.3306E+02   5.0433E+04  0.000E+00  0.000E+00  0.000E+00  4.02412E+01  1.162E-01  2.000E+01  2.000E+04 -2.165E-02
   1    9   29     2     2    5.0433E+04 -6.6587E+02   5.1099E+04  0.000E+00  0.000E+00  0.000E+00  3.99919E+01  1.169E-01  2.000E+01  2.000E+04 -3.329E-02
   1    9   28     2     3    5.1099E+04 -7.4610E+02   5.1845E+04  0.000E+00  0.000E+00  0.000E+00  3.97429E+01  1.179E-01  2.000E+01  2.000E+04 -3.731E-02
   1    9   27     2     4    5.1845E+04 -9.7361E+02   5.2819E+04  0.000E+00  0.000E+00  0.000E+00  3.94941E+01  1.191E-01  2.000E+01  2.000E+04 -4.868E-02
   1   10   26     2     5    5.2819E+04  1.9006E+02   5.2629E+04  0.000E+00  0.000E+00  0.000E+00  3.92446E+01  1.196E-01  2.000E+01  2.000E+04  9.503E-03
   1   11   25     2     6    5.2629E+04  1.5314E+03   5.1097E+04  0.000E+00  0.000E+00  0.000E+00  3.89934E+01  1.184E-01  2.000E+01  2.000E+04  7.657E-02
   1   12   24     2     7    5.1097E+04  2.9866E+03   4.8111E+04  0.000E+00  0.000E+00  0.000E+00  3.87403E+01  1.153E-01  2.000E+01  2.000E+04  1.493E-01
   1   13   23     2     8    4.8111E+04  9.5950E+02   4.7151E+04  0.000E+00  0.000E+00  0.000E+00  3.84875E+01  1.125E-01  2.000E+01  2.000E+04  4.798E-02
   1   14   22     2     9    4.7151E+04  2.6579E+03   4.4493E+04  0.000E+00  0.000E+00  0.000E+00  3.82350E+01  1.100E-01  2.000E+01  2.000E+04  1.329E-01
   1   14   22     3     1    1.7538E+05 -7.5241E+03   1.8290E+05  0.000E+00  0.000E+00  0.000E+00  3.77259E+01  1.703E-01  2.000E+01  2.000E+04 -3.762E-01
   1   15   23     3     2    1.8290E+05 -6.6327E+02   1.8357E+05  0.000E+00  0.000E+00  0.000E+00  3.68393E+01  1.726E-01  2.000E+01  2.000E+04 -3.316E-02
   1   15   24     3     3    1.8357E+05 -3.4266E+02   1.8391E+05  0.000E+00  0.000E+00  0.000E+00  3.59507E+01  1.729E-01  2.000E+01  2.000E+04 -1.713E-02
   1   15   25     3     4    1.8391E+05 -3.3187E+02   1.8424E+05  0.000E+00  0.000E+00  0.000E+00  3.50620E+01  1.731E-01  2.000E+01  2.000E+04 -1.659E-02
   1   15   26     3     5    1.8424E+05 -3.6783E+02   1.8461E+05  0.000E+00  0.000E+00  0.000E+00  3.41733E+01  1.733E-01  2.000E+01  2.000E+04 -1.839E-02
   1   16   27     3     6    1.8461E+05 -4.3402E+02   1.8504E+05  0.000E+00  0.000E+00  0.000E+00  3.32846E+01  1.735E-01  2.000E+01  2.000E+04 -2.170E-02
   1   17   28     3     7    1.8504E+05 -1.8491E+03   1.8689E+05  0.000E+00  0.000E+00  0.000E+00  3.23964E+01  1.742E-01  2.000E+01  2.000E+04 -9.245E-02
   1   18   29     3     8    1.8689E+05 -3.5546E+03   1.9045E+05  0.000E+00  0.000E+00  0.000E+00  3.15090E+01  1.757E-01  2.000E+01  2.000E+04 -1.777E-01
   1   18   30     3     9    1.9045E+05 -3.5565E+03   1.9400E+05  0.000E+00  0.000E+00  0.000E+00  3.06221E+01  1.777E-01  2.000E+01  2.000E+04 -1.778E-01



1
              HEAD IN LAYER   1 AT END OF TIME STEP   1 IN STRESS PERIOD    3
  ---------------------------------------------------------------------------

          1      2      3      4      5      6      7      8      9     10
         11     12     13     14     15     16     17     18     19     20
         21     22     23     24     25     26     27     28     29     30
 .........................................................................
   1  ****** ****** ****** ****** ****** ****** ****** ****** ****** ******
      ****** ****** ****** ****** ****** ****** ****** ****** ****** ******
      ****** ****** ****** ****** ****** ****** ****** ****** ****** ******
   2  ****** ****** ****** ****** ****** ****** ****** ****** ****** ******
      ****** ****** ****** ****** ****** ****** ****** ****** ****** ******
      ****** ****** ****** ****** ****** ****** ****** ****** ****** ******
   3  ****** ****** ****** ****** ****** ****** ****** ****** ****** ******
      ****** ****** ****** ****** ****** ****** ****** ****** ****** ******
      ****** ****** ****** ****** ****** ****** ****** ****** ****** ******
   4  ****** ****** ****** ****** ****** ****** ****** ****** ****** ******
      ****** ****** ****** ****** ****** ****** ****** ****** ****** ******
      ****** ****** ****** ****** ****** ****** ****** ****** ****** ******
   5  ****** ****** ****** ****** ****** ****** ****** ****** ****** ******
      ****** ****** ****** ****** ****** ****** ****** ****** ****** ******
      ****** ****** ****** ****** ****** ****** ****** ****** ****** ******
   6  ****** ****** ****** ****** ****** ****** ****** ****** ****** ******
      ****** ****** ****** ****** ****** ****** ****** ****** ****** ******
      ****** ****** ****** ****** ****** ****** ****** ****** ****** ******
   7  ****** ****** ****** ****** ****** ****** ****** ****** ****** ******
      ****** ****** ****** ****** ****** ****** ****** ****** ****** ******
      ****** ****** ****** ****** ****** ****** ****** ****** ****** ******
   8  ****** ****** ****** ****** ****** ****** ****** ****** ****** ******
      ****** ****** ****** ****** ****** ****** ****** ****** ****** ******
      ****** ****** ****** ****** ****** ****** ****** ****** ****** ******
   9  ****** ****** ****** ****** ****** ****** ****** ****** ****** ******
      ****** ****** ****** ****** ****** ****** ****** ****** ****** ******
      ****** ****** ****** ****** ****** ****** ****** ****** ****** ******
  10  ****** ****** ****** ****** ****** ****** ****** ****** ****** ******
      ****** ****** ****** ****** ****** ****** ****** ****** ****** ******
      ****** ****** ****** ****** ****** ****** ****** ****** ****** ******
  11  ****** ****** ****** ****** ****** ****** ****** ****** ****** ******
      ****** ****** ****** ****** ****** ****** ****** ****** ****** ******
      ****** ****** ****** ****** ****** ****** ****** ****** ****** ******
  12  ****** ****** ****** ****** ****** ****** ****** ****** ****** ******
      ****** ****** ****** ****** ****** ****** ****** ****** ****** ******
      ****** ****** ****** ****** ****** ****** ****** ****** ****** ******
  13  ****** ****** ****** ****** ****** ****** ****** ****** ****** ******
      ****** ****** ****** ****** ****** ****** ****** ****** ****** ******
      ****** ****** ****** ****** ****** ****** ****** ****** ****** ******
  14  ****** ****** ****** ****** ****** ****** ****** ****** ****** ******
      ****** ****** ****** ****** ****** ****** ****** ****** ****** ******
      ****** ****** ****** ****** ****** ****** ****** ****** ****** ******
  15  ****** ****** ****** ****** ****** ****** ****** ****** ****** ******
      ****** ****** ****** ****** ****** ****** ****** ****** ****** ******
      ****** ****** ****** ****** ****** ****** ****** ****** ****** ******
  16  ****** ****** ****** ****** ****** ****** ****** ****** ****** ******
      ****** ****** ****** ****** ****** ****** ****** ****** ****** ******
      ****** ****** ****** ****** ****** ****** ****** ****** ****** ******
  17  ****** ****** ****** ****** ****** ****** ****** ****** ****** ******
      ****** ****** ****** ****** ****** ****** ****** ****** ****** ******
      ****** ****** ****** ****** ****** ****** ****** ****** ****** ******
  18  ****** ****** ****** ****** ****** ****** ****** ****** ****** ******
      ****** ****** ****** ****** ****** ****** ****** ****** ****** ******
      ****** ****** ****** ****** ****** ****** ****** ****** ****** ******
  19  ****** ****** ****** ****** ****** ****** ****** ****** ****** ******
      ****** ****** ****** ****** ****** ****** ****** ****** ****** ******
      ****** ****** ****** ****** ****** ****** ****** ****** ****** ******
  20  ****** ****** ****** ****** ****** ****** ****** ****** ****** ******
      ****** ****** ****** ****** ****** ****** ****** ****** ****** ******
      ****** ****** ****** ****** ****** ****** ****** ****** ****** ******
  21  ****** ****** ****** ****** ****** ****** ****** ****** ****** ******
      ****** ****** ****** ****** ****** ****** ****** ****** ****** ******
      ****** ****** ****** ****** ****** ****** ****** ****** ****** ******
  22  ****** ****** ****** ****** ****** ****** ****** ****** ****** ******
      ****** ****** ****** ****** ****** ****** ****** ****** ****** ******
      ****** ****** ****** ****** ****** ****** ****** ****** ****** ******
  23  ****** ****** ****** ****** ****** ****** ****** ****** ****** ******
      ****** ****** ****** ****** ****** ****** ****** ****** ****** ******
      ****** ****** ****** ****** ****** ****** ****** ****** ****** ******
  24  ****** ****** ****** ****** ****** ****** ****** ****** ****** ******
      ****** ****** ****** ****** ****** ****** ****** ****** ****** ******
      ****** ****** ****** ****** ****** ****** ****** ****** ****** ******
  25  ****** ****** ****** ****** ****** ****** ****** ****** ****** ******
      ****** ****** ****** ****** ****** ****** ****** ****** ****** ******
      ****** ****** ****** ****** ****** ****** ****** ****** ****** ******

 HEAD WILL BE SAVED ON UNIT   51 AT END OF TIME STEP    1, STRESS PERIOD    3
1
  VOLUMETRIC BUDGET FOR ENTIRE MODEL AT END OF TIME STEP    1, STRESS PERIOD   3
  ------------------------------------------------------------------------------

     CUMULATIVE VOLUMES      L**3       RATES FOR THIS TIME STEP      L**3/T
     ------------------                 ------------------------

           IN:                                      IN:
           ---                                      ---
             STORAGE =    28021605.2972               STORAGE =       55866.7799
       CONSTANT HEAD =     5161339.5716         CONSTANT HEAD =       26250.4900
               WELLS =           0.0000                 WELLS =           0.0000
            RECHARGE =     6292800.0000              RECHARGE =           0.0000
      STREAM LEAKAGE =     2817207.0767        STREAM LEAKAGE =       14634.9815

            TOTAL IN =    42292951.9454              TOTAL IN =       96752.2514

          OUT:                                     OUT:
          ----                                     ----
             STORAGE =           0.0000               STORAGE =           0.0000
       CONSTANT HEAD =           0.0000         CONSTANT HEAD =           0.0000
               WELLS =    10442949.7814                 WELLS =       38112.9554
            RECHARGE =           0.0000              RECHARGE =           0.0000
      STREAM LEAKAGE =    31850004.0432        STREAM LEAKAGE =       58639.3035

           TOTAL OUT =    42292953.8246             TOTAL OUT =       96752.2589

            IN - OUT =          -1.8792              IN - OUT =      -7.5721E-03

 PERCENT DISCREPANCY =          -0.00     PERCENT DISCREPANCY =          -0.00






         TIME SUMMARY AT END OF TIME STEP    1 IN STRESS PERIOD    3
                    SECONDS     MINUTES      HOURS       DAYS        YEARS
                    -----------------------------------------------------------
   TIME STEP LENGTH 7.86240E+06 1.31040E+05  2184.0      91.000     0.24914    
 STRESS PERIOD TIME 7.86240E+06 1.31040E+05  2184.0      91.000     0.24914    
         TOTAL TIME 2.36736E+07 3.94560E+05  6576.0      274.00     0.75017    
1
1
                            STRESS PERIOD NO.    4, LENGTH =   91.00000    
                            -----------------------------------------------

                              NUMBER OF TIME STEPS =     1

                               MULTIPLIER FOR DELT =     1.500

                            INITIAL TIME STEP SIZE =   91.00000    

 WELL NO.  LAYER   ROW   COL   STRESS RATE         
 --------------------------------------------------
      1      1     11     23      -9982.    
      2      1     13     22      -7684.    
      3      1      6     18      -7790.    
      4      1      7     23     -0.1266E+05

      4 WELLS

                 RECHARGE =  1.000000E-03

 REUSING STREAM SEGMENT DATA FROM LAST STRESS PERIOD
 
 SOLVING FOR HEAD 


     6 CALLS TO PCG ROUTINE FOR TIME STEP   1 IN STRESS PERIOD    4
    23 TOTAL ITERATIONS

 OUTPUT CONTROL FOR STRESS PERIOD    4   TIME STEP    1
    SAVE BUDGET
    SAVE HEAD FOR ALL LAYERS
    PRINT HEAD FOR ALL LAYERS
 UBDSV2 SAVING "STREAMFLOW OUT  " ON UNIT  50 AT TIME STEP  1, STRESS PERIOD   4



 STREAM LISTING     PERIOD      4   STEP        1

 LAYER ROW COL. STREAM  RCH.  FLOW INTO     FLOW TO   FLOW OUT OF   OVRLND.     DIRECT     STREAM       STREAM     STREAM     STREAM   STREAMBED  STREAMBED
                SEG.NO.  NO.  STRM. RCH.    AQUIFER    STRM. RCH.    RUNOFF     PRECIP       ET          HEAD       DEPTH      WIDTH   CONDCTNC.   GRADIENT

   1   13    1     1     1    1.0000E+05 -2.4840E+03   1.0248E+05  0.000E+00  0.000E+00  0.000E+00  4.84071E+01  1.457E-01  2.000E+01  2.000E+04 -1.242E-01
   1   13    2     1     2    1.0248E+05 -3.5513E+03   1.0604E+05  0.000E+00  0.000E+00  0.000E+00  4.79324E+01  1.483E-01  2.000E+01  2.000E+04 -1.776E-01
   1   14    3     1     3    1.0604E+05 -6.2529E+02   1.0666E+05  0.000E+00  0.000E+00  0.000E+00  4.74569E+01  1.501E-01  2.000E+01  2.000E+04 -3.126E-02
   1   15    4     1     4    1.0666E+05 -6.0105E+02   1.0726E+05  0.000E+00  0.000E+00  0.000E+00  4.69802E+01  1.506E-01  2.000E+01  2.000E+04 -3.005E-02
   1   16    5     1     5    1.0726E+05 -2.1759E+03   1.0944E+05  0.000E+00  0.000E+00  0.000E+00  4.65041E+01  1.518E-01  2.000E+01  2.000E+04 -1.088E-01
   1   16    6     1     6    1.0944E+05 -1.3679E+03   1.1081E+05  0.000E+00  0.000E+00  0.000E+00  4.60283E+01  1.533E-01  2.000E+01  2.000E+04 -6.839E-02
   1   16    7     1     7    1.1081E+05 -1.3441E+03   1.1215E+05  0.000E+00  0.000E+00  0.000E+00  4.55521E+01  1.544E-01  2.000E+01  2.000E+04 -6.720E-02
   1   16    8     1     8    1.1215E+05 -1.3392E+03   1.1349E+05  0.000E+00  0.000E+00  0.000E+00  4.50760E+01  1.555E-01  2.000E+01  2.000E+04 -6.696E-02
   1   16    9     1     9    1.1349E+05 -1.3286E+03   1.1482E+05  0.000E+00  0.000E+00  0.000E+00  4.45998E+01  1.566E-01  2.000E+01  2.000E+04 -6.643E-02
   1   16   10     1    10    1.1482E+05 -1.3120E+03   1.1613E+05  0.000E+00  0.000E+00  0.000E+00  4.41236E+01  1.577E-01  2.000E+01  2.000E+04 -6.560E-02
   1   16   11     1    11    1.1613E+05 -1.3183E+03   1.1745E+05  0.000E+00  0.000E+00  0.000E+00  4.36474E+01  1.588E-01  2.000E+01  2.000E+04 -6.591E-02
   1   16   12     1    12    1.1745E+05 -2.2810E+03   1.1973E+05  0.000E+00  0.000E+00  0.000E+00  4.31716E+01  1.602E-01  2.000E+01  2.000E+04 -1.141E-01
   1   15   13     1    13    1.1973E+05 -2.1348E+03   1.2186E+05  0.000E+00  0.000E+00  0.000E+00  4.26961E+01  1.620E-01  2.000E+01  2.000E+04 -1.067E-01
   1   14   14     1    14    1.2186E+05 -2.3271E+03   1.2419E+05  0.000E+00  0.000E+00  0.000E+00  4.22206E+01  1.638E-01  2.000E+01  2.000E+04 -1.164E-01
   1   13   15     1    15    1.2419E+05 -2.4478E+03   1.2664E+05  0.000E+00  0.000E+00  0.000E+00  4.17452E+01  1.657E-01  2.000E+01  2.000E+04 -1.224E-01
   1   12   16     1    16    1.2664E+05 -2.5639E+03   1.2920E+05  0.000E+00  0.000E+00  0.000E+00  4.12700E+01  1.677E-01  2.000E+01  2.000E+04 -1.282E-01
   1   12   17     1    17    1.2920E+05 -1.4638E+03   1.3067E+05  0.000E+00  0.000E+00  0.000E+00  4.07943E+01  1.693E-01  2.000E+01  2.000E+04 -7.319E-02
   1   12   18     1    18    1.3067E+05 -1.1392E+03   1.3181E+05  0.000E+00  0.000E+00  0.000E+00  4.03180E+01  1.703E-01  2.000E+01  2.000E+04 -5.696E-02
   1   12   19     1    19    1.3181E+05 -4.5092E+02   1.3226E+05  0.000E+00  0.000E+00  0.000E+00  3.98413E+01  1.709E-01  2.000E+01  2.000E+04 -2.255E-02
   1   13   20     1    20    1.3226E+05  3.2796E+02   1.3193E+05  0.000E+00  0.000E+00  0.000E+00  3.93641E+01  1.709E-01  2.000E+01  2.000E+04  1.640E-02
   1   14   21     1    21    1.3193E+05 -5.9644E+02   1.3252E+05  0.000E+00  0.000E+00  0.000E+00  3.88870E+01  1.710E-01  2.000E+01  2.000E+04 -2.982E-02
   1   14   22     1    22    1.3252E+05  6.2203E+03   1.2630E+05  0.000E+00  0.000E+00  0.000E+00  3.84075E+01  1.689E-01  2.000E+01  2.000E+04  3.110E-01
   1    9   30     2     1    5.0000E+04 -3.0230E+02   5.0302E+04  0.000E+00  0.000E+00  0.000E+00  4.02411E+01  1.161E-01  2.000E+01  2.000E+04 -1.512E-02
   1    9   29     2     2    5.0302E+04 -5.2555E+02   5.0828E+04  0.000E+00  0.000E+00  0.000E+00  3.99916E+01  1.166E-01  2.000E+01  2.000E+04 -2.628E-02
   1    9   28     2     3    5.0828E+04 -5.7873E+02   5.1407E+04  0.000E+00  0.000E+00  0.000E+00  3.97424E+01  1.174E-01  2.000E+01  2.000E+04 -2.894E-02
   1    9   27     2     4    5.1407E+04 -6.0729E+02   5.2014E+04  0.000E+00  0.000E+00  0.000E+00  3.94932E+01  1.182E-01  2.000E+01  2.000E+04 -3.036E-02
   1   10   26     2     5    5.2014E+04  4.2116E+02   5.1593E+04  0.000E+00  0.000E+00  0.000E+00  3.92434E+01  1.184E-01  2.000E+01  2.000E+04  2.106E-02
   1   11   25     2     6    5.1593E+04  1.7123E+03   4.9880E+04  0.000E+00  0.000E+00  0.000E+00  3.89919E+01  1.169E-01  2.000E+01  2.000E+04  8.562E-02
   1   12   24     2     7    4.9880E+04  3.1453E+03   4.6735E+04  0.000E+00  0.000E+00  0.000E+00  3.87385E+01  1.135E-01  2.000E+01  2.000E+04  1.573E-01
   1   13   23     2     8    4.6735E+04  9.4289E+02   4.5792E+04  0.000E+00  0.000E+00  0.000E+00  3.84856E+01  1.106E-01  2.000E+01  2.000E+04  4.714E-02
   1   14   22     2     9    4.5792E+04  2.7291E+03   4.3063E+04  0.000E+00  0.000E+00  0.000E+00  3.82329E+01  1.079E-01  2.000E+01  2.000E+04  1.365E-01
   1   14   22     3     1    1.6937E+05 -7.4817E+03   1.7685E+05  0.000E+00  0.000E+00  0.000E+00  3.77224E+01  1.668E-01  2.000E+01  2.000E+04 -3.741E-01
   1   15   23     3     2    1.7685E+05 -6.4476E+02   1.7749E+05  0.000E+00  0.000E+00  0.000E+00  3.68358E+01  1.692E-01  2.000E+01  2.000E+04 -3.224E-02
   1   15   24     3     3    1.7749E+05 -3.4424E+02   1.7784E+05  0.000E+00  0.000E+00  0.000E+00  3.59472E+01  1.695E-01  2.000E+01  2.000E+04 -1.721E-02
   1   15   25     3     4    1.7784E+05 -3.3285E+02   1.7817E+05  0.000E+00  0.000E+00  0.000E+00  3.50585E+01  1.697E-01  2.000E+01  2.000E+04 -1.664E-02
   1   15   26     3     5    1.7817E+05 -3.7792E+02   1.7855E+05  0.000E+00  0.000E+00  0.000E+00  3.41699E+01  1.699E-01  2.000E+01  2.000E+04 -1.890E-02
   1   16   27     3     6    1.7855E+05 -4.3631E+02   1.7899E+05  0.000E+00  0.000E+00  0.000E+00  3.32812E+01  1.701E-01  2.000E+01  2.000E+04 -2.182E-02
   1   17   28     3     7    1.7899E+05 -1.7927E+03   1.8078E+05  0.000E+00  0.000E+00  0.000E+00  3.23929E+01  1.707E-01  2.000E+01  2.000E+04 -8.964E-02
   1   18   29     3     8    1.8078E+05 -3.3534E+03   1.8413E+05  0.000E+00  0.000E+00  0.000E+00  3.15055E+01  1.722E-01  2.000E+01  2.000E+04 -1.677E-01
   1   18   30     3     9    1.8413E+05 -3.4582E+03   1.8759E+05  0.000E+00  0.000E+00  0.000E+00  3.06185E+01  1.741E-01  2.000E+01  2.000E+04 -1.729E-01



1
              HEAD IN LAYER   1 AT END OF TIME STEP   1 IN STRESS PERIOD    4
  ---------------------------------------------------------------------------

          1      2      3      4      5      6      7      8      9     10
         11     12     13     14     15     16     17     18     19     20
         21     22     23     24     25     26     27     28     29     30
 .........................................................................
   1  ****** ****** ****** ****** ****** ****** ****** ****** ****** ******
      ****** ****** ****** ****** ****** ****** ****** ****** ****** ******
      ****** ****** ****** ****** ****** ****** ****** ****** ****** ******
   2  ****** ****** ****** ****** ****** ****** ****** ****** ****** ******
      ****** ****** ****** ****** ****** ****** ****** ****** ****** ******
      ****** ****** ****** ****** ****** ****** ****** ****** ****** ******
   3  ****** ****** ****** ****** ****** ****** ****** ****** ****** ******
      ****** ****** ****** ****** ****** ****** ****** ****** ****** ******
      ****** ****** ****** ****** ****** ****** ****** ****** ****** ******
   4  ****** ****** ****** ****** ****** ****** ****** ****** ****** ******
      ****** ****** ****** ****** ****** ****** ****** ****** ****** ******
      ****** ****** ****** ****** ****** ****** ****** ****** ****** ******
   5  ****** ****** ****** ****** ****** ****** ****** ****** ****** ******
      ****** ****** ****** ****** ****** ****** ****** ****** ****** ******
      ****** ****** ****** ****** ****** ****** ****** ****** ****** ******
   6  ****** ****** ****** ****** ****** ****** ****** ****** ****** ******
      ****** ****** ****** ****** ****** ****** ****** ****** ****** ******
      ****** ****** ****** ****** ****** ****** ****** ****** ****** ******
   7  ****** ****** ****** ****** ****** ****** ****** ****** ****** ******
      ****** ****** ****** ****** ****** ****** ****** ****** ****** ******
      ****** ****** ****** ****** ****** ****** ****** ****** ****** ******
   8  ****** ****** ****** ****** ****** ****** ****** ****** ****** ******
      ****** ****** ****** ****** ****** ****** ****** ****** ****** ******
      ****** ****** ****** ****** ****** ****** ****** ****** ****** ******
   9  ****** ****** ****** ****** ****** ****** ****** ****** ****** ******
      ****** ****** ****** ****** ****** ****** ****** ****** ****** ******
      ****** ****** ****** ****** ****** ****** ****** ****** ****** ******
  10  ****** ****** ****** ****** ****** ****** ****** ****** ****** ******
      ****** ****** ****** ****** ****** ****** ****** ****** ****** ******
      ****** ****** ****** ****** ****** ****** ****** ****** ****** ******
  11  ****** ****** ****** ****** ****** ****** ****** ****** ****** ******
      ****** ****** ****** ****** ****** ****** ****** ****** ****** ******
      ****** ****** ****** ****** ****** ****** ****** ****** ****** ******
  12  ****** ****** ****** ****** ****** ****** ****** ****** ****** ******
      ****** ****** ****** ****** ****** ****** ****** ****** ****** ******
      ****** ****** ****** ****** ****** ****** ****** ****** ****** ******
  13  ****** ****** ****** ****** ****** ****** ****** ****** ****** ******
      ****** ****** ****** ****** ****** ****** ****** ****** ****** ******
      ****** ****** ****** ****** ****** ****** ****** ****** ****** ******
  14  ****** ****** ****** ****** ****** ****** ****** ****** ****** ******
      ****** ****** ****** ****** ****** ****** ****** ****** ****** ******
      ****** ****** ****** ****** ****** ****** ****** ****** ****** ******
  15  ****** ****** ****** ****** ****** ****** ****** ****** ****** ******
      ****** ****** ****** ****** ****** ****** ****** ****** ****** ******
      ****** ****** ****** ****** ****** ****** ****** ****** ****** ******
  16  ****** ****** ****** ****** ****** ****** ****** ****** ****** ******
      ****** ****** ****** ****** ****** ****** ****** ****** ****** ******
      ****** ****** ****** ****** ****** ****** ****** ****** ****** ******
  17  ****** ****** ****** ****** ****** ****** ****** ****** ****** ******
      ****** ****** ****** ****** ****** ****** ****** ****** ****** ******
      ****** ****** ****** ****** ****** ****** ****** ****** ****** ******
  18  ****** ****** ****** ****** ****** ****** ****** ****** ****** ******
      ****** ****** ****** ****** ****** ****** ****** ****** ****** ******
      ****** ****** ****** ****** ****** ****** ****** ****** ****** ******
  19  ****** ****** ****** ****** ****** ****** ****** ****** ****** ******
      ****** ****** ****** ****** ****** ****** ****** ****** ****** ******
      ****** ****** ****** ****** ****** ****** ****** ****** ****** ******
  20  ****** ****** ****** ****** ****** ****** ****** ****** ****** ******
      ****** ****** ****** ****** ****** ****** ****** ****** ****** ******
      ****** ****** ****** ****** ****** ****** ****** ****** ****** ******
  21  ****** ****** ****** ****** ****** ****** ****** ****** ****** ******
      ****** ****** ****** ****** ****** ****** ****** ****** ****** ******
      ****** ****** ****** ****** ****** ****** ****** ****** ****** ******
  22  ****** ****** ****** ****** ****** ****** ****** ****** ****** ******
      ****** ****** ****** ****** ****** ****** ****** ****** ****** ******
      ****** ****** ****** ****** ****** ****** ****** ****** ****** ******
  23  ****** ****** ****** ****** ****** ****** ****** ****** ****** ******
      ****** ****** ****** ****** ****** ****** ****** ****** ****** ******
      ****** ****** ****** ****** ****** ****** ****** ****** ****** ******
  24  ****** ****** ****** ****** ****** ****** ****** ****** ****** ******
      ****** ****** ****** ****** ****** ****** ****** ****** ****** ******
      ****** ****** ****** ****** ****** ****** ****** ****** ****** ******
  25  ****** ****** ****** ****** ****** ****** ****** ****** ****** ******
      ****** ****** ****** ****** ****** ****** ****** ****** ****** ******
      ****** ****** ****** ****** ****** ****** ****** ****** ****** ******

 HEAD WILL BE SAVED ON UNIT   51 AT END OF TIME STEP    1, STRESS PERIOD    4
1
  VOLUMETRIC BUDGET FOR ENTIRE MODEL AT END OF TIME STEP    1, STRESS PERIOD   4
  ------------------------------------------------------------------------------

     CUMULATIVE VOLUMES      L**3       RATES FOR THIS TIME STEP      L**3/T
     ------------------                 ------------------------

           IN:                                      IN:
           ---                                      ---
             STORAGE =    29764693.6900               STORAGE =       19154.8175
       CONSTANT HEAD =     7796676.5129         CONSTANT HEAD =       28959.7466
               WELLS =           0.0000                 WELLS =           0.0000
            RECHARGE =     8804400.0000              RECHARGE =       27600.0000
      STREAM LEAKAGE =     4227618.2571        STREAM LEAKAGE =       15499.0240

            TOTAL IN =    50593388.4600              TOTAL IN =       91213.5881

          OUT:                                     OUT:
          ----                                     ----
             STORAGE =        1097.8514               STORAGE =          12.0643
       CONSTANT HEAD =           0.0000         CONSTANT HEAD =           0.0000
               WELLS =    13911228.7234                 WELLS =       38112.9554
            RECHARGE =           0.0000              RECHARGE =           0.0000
      STREAM LEAKAGE =    36681063.8371        STREAM LEAKAGE =       53088.5692

           TOTAL OUT =    50593390.4119             TOTAL OUT =       91213.5889

            IN - OUT =          -1.9518              IN - OUT =      -7.9837E-04

 PERCENT DISCREPANCY =          -0.00     PERCENT DISCREPANCY =          -0.00






         TIME SUMMARY AT END OF TIME STEP    1 IN STRESS PERIOD    4
                    SECONDS     MINUTES      HOURS       DAYS        YEARS
                    -----------------------------------------------------------
   TIME STEP LENGTH 7.86240E+06 1.31040E+05  2184.0      91.000     0.24914    
 STRESS PERIOD TIME 7.86240E+06 1.31040E+05  2184.0      91.000     0.24914    
         TOTAL TIME 3.15360E+07 5.25600E+05  8760.0      365.00     0.99932    
1
1
                            STRESS PERIOD NO.    5, LENGTH =   92.00000    
                            -----------------------------------------------

                              NUMBER OF TIME STEPS =     1

                               MULTIPLIER FOR DELT =     1.500

                            INITIAL TIME STEP SIZE =   92.00000    

 WELL NO.  LAYER   ROW   COL   STRESS RATE         
 --------------------------------------------------
      1      1     11     23      -9982.    
      2      1     13     22      -7684.    
      3      1      6     18      -7790.    
      4      1      7     23     -0.1266E+05

      4 WELLS

                 RECHARGE =  5.000000E-04

 REUSING STREAM SEGMENT DATA FROM LAST STRESS PERIOD
 
 SOLVING FOR HEAD 


     7 CALLS TO PCG ROUTINE FOR TIME STEP   1 IN STRESS PERIOD    5
    26 TOTAL ITERATIONS

 OUTPUT CONTROL FOR STRESS PERIOD    5   TIME STEP    1
    SAVE BUDGET
    SAVE HEAD FOR ALL LAYERS
    PRINT HEAD FOR ALL LAYERS
 UBDSV2 SAVING "STREAMFLOW OUT  " ON UNIT  50 AT TIME STEP  1, STRESS PERIOD   5



 STREAM LISTING     PERIOD      5   STEP        1

 LAYER ROW COL. STREAM  RCH.  FLOW INTO     FLOW TO   FLOW OUT OF   OVRLND.     DIRECT     STREAM       STREAM     STREAM     STREAM   STREAMBED  STREAMBED
                SEG.NO.  NO.  STRM. RCH.    AQUIFER    STRM. RCH.    RUNOFF     PRECIP       ET          HEAD       DEPTH      WIDTH   CONDCTNC.   GRADIENT

   1   13    1     1     1    1.0000E+05 -2.0593E+03   1.0206E+05  0.000E+00  0.000E+00  0.000E+00  4.84069E+01  1.455E-01  2.000E+01  2.000E+04 -1.030E-01
   1   13    2     1     2    1.0206E+05 -3.0713E+03   1.0513E+05  0.000E+00  0.000E+00  0.000E+00  4.79318E+01  1.477E-01  2.000E+01  2.000E+04 -1.536E-01
   1   14    3     1     3    1.0513E+05 -5.0237E+02   1.0563E+05  0.000E+00  0.000E+00  0.000E+00  4.74561E+01  1.493E-01  2.000E+01  2.000E+04 -2.512E-02
   1   15    4     1     4    1.0563E+05 -4.7216E+02   1.0611E+05  0.000E+00  0.000E+00  0.000E+00  4.69792E+01  1.497E-01  2.000E+01  2.000E+04 -2.361E-02
   1   16    5     1     5    1.0611E+05 -1.7499E+03   1.0785E+05  0.000E+00  0.000E+00  0.000E+00  4.65029E+01  1.506E-01  2.000E+01  2.000E+04 -8.749E-02
   1   16    6     1     6    1.0785E+05 -1.1181E+03   1.0897E+05  0.000E+00  0.000E+00  0.000E+00  4.60268E+01  1.518E-01  2.000E+01  2.000E+04 -5.591E-02
   1   16    7     1     7    1.0897E+05 -1.1047E+03   1.1008E+05  0.000E+00  0.000E+00  0.000E+00  4.55505E+01  1.528E-01  2.000E+01  2.000E+04 -5.524E-02
   1   16    8     1     8    1.1008E+05 -1.1037E+03   1.1118E+05  0.000E+00  0.000E+00  0.000E+00  4.50741E+01  1.537E-01  2.000E+01  2.000E+04 -5.518E-02
   1   16    9     1     9    1.1118E+05 -1.0965E+03   1.1228E+05  0.000E+00  0.000E+00  0.000E+00  4.45978E+01  1.546E-01  2.000E+01  2.000E+04 -5.482E-02
   1   16   10     1    10    1.1228E+05 -1.0840E+03   1.1336E+05  0.000E+00  0.000E+00  0.000E+00  4.41214E+01  1.555E-01  2.000E+01  2.000E+04 -5.420E-02
   1   16   11     1    11    1.1336E+05 -1.0910E+03   1.1445E+05  0.000E+00  0.000E+00  0.000E+00  4.36450E+01  1.564E-01  2.000E+01  2.000E+04 -5.455E-02
   1   16   12     1    12    1.1445E+05 -1.8735E+03   1.1633E+05  0.000E+00  0.000E+00  0.000E+00  4.31690E+01  1.576E-01  2.000E+01  2.000E+04 -9.368E-02
   1   15   13     1    13    1.1633E+05 -1.6956E+03   1.1802E+05  0.000E+00  0.000E+00  0.000E+00  4.26932E+01  1.591E-01  2.000E+01  2.000E+04 -8.478E-02
   1   14   14     1    14    1.1802E+05 -1.8521E+03   1.1987E+05  0.000E+00  0.000E+00  0.000E+00  4.22173E+01  1.605E-01  2.000E+01  2.000E+04 -9.261E-02
   1   13   15     1    15    1.1987E+05 -1.9458E+03   1.2182E+05  0.000E+00  0.000E+00  0.000E+00  4.17416E+01  1.621E-01  2.000E+01  2.000E+04 -9.729E-02
   1   12   16     1    16    1.2182E+05 -1.9959E+03   1.2382E+05  0.000E+00  0.000E+00  0.000E+00  4.12659E+01  1.636E-01  2.000E+01  2.000E+04 -9.979E-02
   1   12   17     1    17    1.2382E+05 -1.0862E+03   1.2490E+05  0.000E+00  0.000E+00  0.000E+00  4.07899E+01  1.649E-01  2.000E+01  2.000E+04 -5.431E-02
   1   12   18     1    18    1.2490E+05 -7.7934E+02   1.2568E+05  0.000E+00  0.000E+00  0.000E+00  4.03133E+01  1.656E-01  2.000E+01  2.000E+04 -3.897E-02
   1   12   19     1    19    1.2568E+05 -7.2165E+00   1.2569E+05  0.000E+00  0.000E+00  0.000E+00  3.98364E+01  1.659E-01  2.000E+01  2.000E+04 -3.608E-04
   1   13   20     1    20    1.2569E+05  6.9471E+02   1.2499E+05  0.000E+00  0.000E+00  0.000E+00  3.93588E+01  1.656E-01  2.000E+01  2.000E+04  3.474E-02
   1   14   21     1    21    1.2499E+05 -2.2399E+02   1.2522E+05  0.000E+00  0.000E+00  0.000E+00  3.88814E+01  1.655E-01  2.000E+01  2.000E+04 -1.120E-02
   1   14   22     1    22    1.2522E+05  6.3038E+03   1.1891E+05  0.000E+00  0.000E+00  0.000E+00  3.84017E+01  1.630E-01  2.000E+01  2.000E+04  3.152E-01
   1    9   30     2     1    5.0000E+04 -5.0573E+01   5.0051E+04  0.000E+00  0.000E+00  0.000E+00  4.02409E+01  1.159E-01  2.000E+01  2.000E+04 -2.529E-03
   1    9   29     2     2    5.0051E+04 -2.6921E+02   5.0320E+04  0.000E+00  0.000E+00  0.000E+00  3.99911E+01  1.161E-01  2.000E+01  2.000E+04 -1.346E-02
   1    9   28     2     3    5.0320E+04 -3.0761E+02   5.0627E+04  0.000E+00  0.000E+00  0.000E+00  3.97415E+01  1.165E-01  2.000E+01  2.000E+04 -1.538E-02
   1    9   27     2     4    5.0627E+04 -1.7231E+02   5.0800E+04  0.000E+00  0.000E+00  0.000E+00  3.94919E+01  1.169E-01  2.000E+01  2.000E+04 -8.615E-03
   1   10   26     2     5    5.0800E+04  7.9492E+02   5.0005E+04  0.000E+00  0.000E+00  0.000E+00  3.92414E+01  1.164E-01  2.000E+01  2.000E+04  3.975E-02
   1   11   25     2     6    5.0005E+04  2.0533E+03   4.7952E+04  0.000E+00  0.000E+00  0.000E+00  3.89894E+01  1.144E-01  2.000E+01  2.000E+04  1.027E-01
   1   12   24     2     7    4.7952E+04  3.4569E+03   4.4495E+04  0.000E+00  0.000E+00  0.000E+00  3.87355E+01  1.105E-01  2.000E+01  2.000E+04  1.728E-01
   1   13   23     2     8    4.4495E+04  1.0153E+03   4.3479E+04  0.000E+00  0.000E+00  0.000E+00  3.84823E+01  1.073E-01  2.000E+01  2.000E+04  5.077E-02
   1   14   22     2     9    4.3479E+04  2.8589E+03   4.0620E+04  0.000E+00  0.000E+00  0.000E+00  3.82294E+01  1.044E-01  2.000E+01  2.000E+04  1.429E-01
   1   14   22     3     1    1.5953E+05 -7.3974E+03   1.6693E+05  0.000E+00  0.000E+00  0.000E+00  3.77166E+01  1.611E-01  2.000E+01  2.000E+04 -3.699E-01
   1   15   23     3     2    1.6693E+05 -5.4885E+02   1.6748E+05  0.000E+00  0.000E+00  0.000E+00  3.68301E+01  1.634E-01  2.000E+01  2.000E+04 -2.744E-02
   1   15   24     3     3    1.6748E+05 -2.7334E+02   1.6775E+05  0.000E+00  0.000E+00  0.000E+00  3.59414E+01  1.636E-01  2.000E+01  2.000E+04 -1.367E-02
   1   15   25     3     4    1.6775E+05 -2.6236E+02   1.6802E+05  0.000E+00  0.000E+00  0.000E+00  3.50527E+01  1.638E-01  2.000E+01  2.000E+04 -1.312E-02
   1   15   26     3     5    1.6802E+05 -3.0626E+02   1.6832E+05  0.000E+00  0.000E+00  0.000E+00  3.41640E+01  1.640E-01  2.000E+01  2.000E+04 -1.531E-02
   1   16   27     3     6    1.6832E+05 -3.4668E+02   1.6867E+05  0.000E+00  0.000E+00  0.000E+00  3.32753E+01  1.642E-01  2.000E+01  2.000E+04 -1.733E-02
   1   17   28     3     7    1.6867E+05 -1.5280E+03   1.7020E+05  0.000E+00  0.000E+00  0.000E+00  3.23869E+01  1.647E-01  2.000E+01  2.000E+04 -7.640E-02
   1   18   29     3     8    1.7020E+05 -2.9866E+03   1.7318E+05  0.000E+00  0.000E+00  0.000E+00  3.14993E+01  1.660E-01  2.000E+01  2.000E+04 -1.493E-01
   1   18   30     3     9    1.7318E+05 -3.2050E+03   1.7639E+05  0.000E+00  0.000E+00  0.000E+00  3.06122E+01  1.678E-01  2.000E+01  2.000E+04 -1.603E-01



1
              HEAD IN LAYER   1 AT END OF TIME STEP   1 IN STRESS PERIOD    5
  ---------------------------------------------------------------------------

          1      2      3      4      5      6      7      8      9     10
         11     12     13     14     15     16     17     18     19     20
         21     22     23     24     25     26     27     28     29     30
 .........................................................................
   1  ****** ****** ****** ****** ****** ****** ****** ****** ****** ******
      ****** ****** ****** ****** ****** ****** ****** ****** ****** ******
      ****** ****** ****** ****** ****** ****** ****** ****** ****** ******
   2  ****** ****** ****** ****** ****** ****** ****** ****** ****** ******
      ****** ****** ****** ****** ****** ****** ****** ****** ****** ******
      ****** ****** ****** ****** ****** ****** ****** ****** ****** ******
   3  ****** ****** ****** ****** ****** ****** ****** ****** ****** ******
      ****** ****** ****** ****** ****** ****** ****** ****** ****** ******
      ****** ****** ****** ****** ****** ****** ****** ****** ****** ******
   4  ****** ****** ****** ****** ****** ****** ****** ****** ****** ******
      ****** ****** ****** ****** ****** ****** ****** ****** ****** ******
      ****** ****** ****** ****** ****** ****** ****** ****** ****** ******
   5  ****** ****** ****** ****** ****** ****** ****** ****** ****** ******
      ****** ****** ****** ****** ****** ****** ****** ****** ****** ******
      ****** ****** ****** ****** ****** ****** ****** ****** ****** ******
   6  ****** ****** ****** ****** ****** ****** ****** ****** ****** ******
      ****** ****** ****** ****** ****** ****** ****** ****** ****** ******
      ****** ****** ****** ****** ****** ****** ****** ****** ****** ******
   7  ****** ****** ****** ****** ****** ****** ****** ****** ****** ******
      ****** ****** ****** ****** ****** ****** ****** ****** ****** ******
      ****** ****** ****** ****** ****** ****** ****** ****** ****** ******
   8  ****** ****** ****** ****** ****** ****** ****** ****** ****** ******
      ****** ****** ****** ****** ****** ****** ****** ****** ****** ******
      ****** ****** ****** ****** ****** ****** ****** ****** ****** ******
   9  ****** ****** ****** ****** ****** ****** ****** ****** ****** ******
      ****** ****** ****** ****** ****** ****** ****** ****** ****** ******
      ****** ****** ****** ****** ****** ****** ****** ****** ****** ******
  10  ****** ****** ****** ****** ****** ****** ****** ****** ****** ******
      ****** ****** ****** ****** ****** ****** ****** ****** ****** ******
      ****** ****** ****** ****** ****** ****** ****** ****** ****** ******
  11  ****** ****** ****** ****** ****** ****** ****** ****** ****** ******
      ****** ****** ****** ****** ****** ****** ****** ****** ****** ******
      ****** ****** ****** ****** ****** ****** ****** ****** ****** ******
  12  ****** ****** ****** ****** ****** ****** ****** ****** ****** ******
      ****** ****** ****** ****** ****** ****** ****** ****** ****** ******
      ****** ****** ****** ****** ****** ****** ****** ****** ****** ******
  13  ****** ****** ****** ****** ****** ****** ****** ****** ****** ******
      ****** ****** ****** ****** ****** ****** ****** ****** ****** ******
      ****** ****** ****** ****** ****** ****** ****** ****** ****** ******
  14  ****** ****** ****** ****** ****** ****** ****** ****** ****** ******
      ****** ****** ****** ****** ****** ****** ****** ****** ****** ******
      ****** ****** ****** ****** ****** ****** ****** ****** ****** ******
  15  ****** ****** ****** ****** ****** ****** ****** ****** ****** ******
      ****** ****** ****** ****** ****** ****** ****** ****** ****** ******
      ****** ****** ****** ****** ****** ****** ****** ****** ****** ******
  16  ****** ****** ****** ****** ****** ****** ****** ****** ****** ******
      ****** ****** ****** ****** ****** ****** ****** ****** ****** ******
      ****** ****** ****** ****** ****** ****** ****** ****** ****** ******
  17  ****** ****** ****** ****** ****** ****** ****** ****** ****** ******
      ****** ****** ****** ****** ****** ****** ****** ****** ****** ******
      ****** ****** ****** ****** ****** ****** ****** ****** ****** ******
  18  ****** ****** ****** ****** ****** ****** ****** ****** ****** ******
      ****** ****** ****** ****** ****** ****** ****** ****** ****** ******
      ****** ****** ****** ****** ****** ****** ****** ****** ****** ******
  19  ****** ****** ****** ****** ****** ****** ****** ****** ****** ******
      ****** ****** ****** ****** ****** ****** ****** ****** ****** ******
      ****** ****** ****** ****** ****** ****** ****** ****** ****** ******
  20  ****** ****** ****** ****** ****** ****** ****** ****** ****** ******
      ****** ****** ****** ****** ****** ****** ****** ****** ****** ******
      ****** ****** ****** ****** ****** ****** ****** ****** ****** ******
  21  ****** ****** ****** ****** ****** ****** ****** ****** ****** ******
      ****** ****** ****** ****** ****** ****** ****** ****** ****** ******
      ****** ****** ****** ****** ****** ****** ****** ****** ****** ******
  22  ****** ****** ****** ****** ****** ****** ****** ****** ****** ******
      ****** ****** ****** ****** ****** ****** ****** ****** ****** ******
      ****** ****** ****** ****** ****** ****** ****** ****** ****** ******
  23  ****** ****** ****** ****** ****** ****** ****** ****** ****** ******
      ****** ****** ****** ****** ****** ****** ****** ****** ****** ******
      ****** ****** ****** ****** ****** ****** ****** ****** ****** ******
  24  ****** ****** ****** ****** ****** ****** ****** ****** ****** ******
      ****** ****** ****** ****** ****** ****** ****** ****** ****** ******
      ****** ****** ****** ****** ****** ****** ****** ****** ****** ******
  25  ****** ****** ****** ****** ****** ****** ****** ****** ****** ******
      ****** ****** ****** ****** ****** ****** ****** ****** ****** ******
      ****** ****** ****** ****** ****** ****** ****** ****** ****** ******

 HEAD WILL BE SAVED ON UNIT   51 AT END OF TIME STEP    1, STRESS PERIOD    5
1
  VOLUMETRIC BUDGET FOR ENTIRE MODEL AT END OF TIME STEP    1, STRESS PERIOD   5
  ------------------------------------------------------------------------------

     CUMULATIVE VOLUMES      L**3       RATES FOR THIS TIME STEP      L**3/T
     ------------------                 ------------------------

           IN:                                      IN:
           ---                                      ---
             STORAGE =    31489760.5930               STORAGE =       18750.7272
       CONSTANT HEAD =    10736203.6206         CONSTANT HEAD =       31951.3816
               WELLS =           0.0000                 WELLS =           0.0000
            RECHARGE =    10074000.0000              RECHARGE =       13800.0000
      STREAM LEAKAGE =     5807981.8106        STREAM LEAKAGE =       17177.8647

            TOTAL IN =    58107946.0241              TOTAL IN =       81679.9735

          OUT:                                     OUT:
          ----                                     ----
             STORAGE =        1097.8514               STORAGE =           0.0000
       CONSTANT HEAD =           0.0000         CONSTANT HEAD =           0.0000
               WELLS =    17417620.6208                 WELLS =       38112.9554
            RECHARGE =           0.0000              RECHARGE =           0.0000
      STREAM LEAKAGE =    40689229.7914        STREAM LEAKAGE =       43567.0212

           TOTAL OUT =    58107948.2635             TOTAL OUT =       81679.9766

            IN - OUT =          -2.2394              IN - OUT =      -3.1256E-03

 PERCENT DISCREPANCY =          -0.00     PERCENT DISCREPANCY =          -0.00






         TIME SUMMARY AT END OF TIME STEP    1 IN STRESS PERIOD    5
                    SECONDS     MINUTES      HOURS       DAYS        YEARS
                    -----------------------------------------------------------
   TIME STEP LENGTH 7.94880E+06 1.32480E+05  2208.0      92.000     0.25188    
 STRESS PERIOD TIME 7.94880E+06 1.32480E+05  2208.0      92.000     0.25188    
         TOTAL TIME 3.94848E+07 6.58080E+05  10968.      457.00      1.2512    
1
1
                            STRESS PERIOD NO.    6, LENGTH =   91.00000    
                            -----------------------------------------------

                              NUMBER OF TIME STEPS =     1

                               MULTIPLIER FOR DELT =     1.500

                            INITIAL TIME STEP SIZE =   91.00000    

 WELL NO.  LAYER   ROW   COL   STRESS RATE         
 --------------------------------------------------
      1      1     11     23      -9982.    
      2      1     13     22      -7684.    
      3      1      6     18      -7790.    
      4      1      7     23     -0.1266E+05

      4 WELLS

                 RECHARGE =  2.000000E-03

 REUSING STREAM SEGMENT DATA FROM LAST STRESS PERIOD
 
 SOLVING FOR HEAD 


     7 CALLS TO PCG ROUTINE FOR TIME STEP   1 IN STRESS PERIOD    6
    26 TOTAL ITERATIONS

 OUTPUT CONTROL FOR STRESS PERIOD    6   TIME STEP    1
    SAVE BUDGET
    SAVE HEAD FOR ALL LAYERS
    PRINT HEAD FOR ALL LAYERS
 UBDSV2 SAVING "STREAMFLOW OUT  " ON UNIT  50 AT TIME STEP  1, STRESS PERIOD   6



 STREAM LISTING     PERIOD      6   STEP        1

 LAYER ROW COL. STREAM  RCH.  FLOW INTO     FLOW TO   FLOW OUT OF   OVRLND.     DIRECT     STREAM       STREAM     STREAM     STREAM   STREAMBED  STREAMBED
                SEG.NO.  NO.  STRM. RCH.    AQUIFER    STRM. RCH.    RUNOFF     PRECIP       ET          HEAD       DEPTH      WIDTH   CONDCTNC.   GRADIENT

   1   13    1     1     1    1.0000E+05 -2.3660E+03   1.0237E+05  0.000E+00  0.000E+00  0.000E+00  4.84070E+01  1.457E-01  2.000E+01  2.000E+04 -1.183E-01
   1   13    2     1     2    1.0237E+05 -3.4068E+03   1.0577E+05  0.000E+00  0.000E+00  0.000E+00  4.79322E+01  1.482E-01  2.000E+01  2.000E+04 -1.703E-01
   1   14    3     1     3    1.0577E+05 -6.5653E+02   1.0643E+05  0.000E+00  0.000E+00  0.000E+00  4.74567E+01  1.499E-01  2.000E+01  2.000E+04 -3.283E-02
   1   15    4     1     4    1.0643E+05 -6.3821E+02   1.0707E+05  0.000E+00  0.000E+00  0.000E+00  4.69800E+01  1.504E-01  2.000E+01  2.000E+04 -3.191E-02
   1   16    5     1     5    1.0707E+05 -2.2493E+03   1.0932E+05  0.000E+00  0.000E+00  0.000E+00  4.65039E+01  1.516E-01  2.000E+01  2.000E+04 -1.125E-01
   1   16    6     1     6    1.0932E+05 -1.4107E+03   1.1073E+05  0.000E+00  0.000E+00  0.000E+00  4.60282E+01  1.532E-01  2.000E+01  2.000E+04 -7.053E-02
   1   16    7     1     7    1.1073E+05 -1.3819E+03   1.1211E+05  0.000E+00  0.000E+00  0.000E+00  4.55521E+01  1.543E-01  2.000E+01  2.000E+04 -6.910E-02
   1   16    8     1     8    1.1211E+05 -1.3764E+03   1.1349E+05  0.000E+00  0.000E+00  0.000E+00  4.50759E+01  1.555E-01  2.000E+01  2.000E+04 -6.882E-02
   1   16    9     1     9    1.1349E+05 -1.3690E+03   1.1485E+05  0.000E+00  0.000E+00  0.000E+00  4.45998E+01  1.566E-01  2.000E+01  2.000E+04 -6.845E-02
   1   16   10     1    10    1.1485E+05 -1.3586E+03   1.1621E+05  0.000E+00  0.000E+00  0.000E+00  4.41237E+01  1.577E-01  2.000E+01  2.000E+04 -6.793E-02
   1   16   11     1    11    1.1621E+05 -1.3697E+03   1.1758E+05  0.000E+00  0.000E+00  0.000E+00  4.36475E+01  1.589E-01  2.000E+01  2.000E+04 -6.848E-02
   1   16   12     1    12    1.1758E+05 -2.3235E+03   1.1991E+05  0.000E+00  0.000E+00  0.000E+00  4.31717E+01  1.604E-01  2.000E+01  2.000E+04 -1.162E-01
   1   15   13     1    13    1.1991E+05 -2.1495E+03   1.2206E+05  0.000E+00  0.000E+00  0.000E+00  4.26963E+01  1.622E-01  2.000E+01  2.000E+04 -1.075E-01
   1   14   14     1    14    1.2206E+05 -2.2963E+03   1.2435E+05  0.000E+00  0.000E+00  0.000E+00  4.22208E+01  1.639E-01  2.000E+01  2.000E+04 -1.148E-01
   1   13   15     1    15    1.2435E+05 -2.3653E+03   1.2672E+05  0.000E+00  0.000E+00  0.000E+00  4.17453E+01  1.658E-01  2.000E+01  2.000E+04 -1.183E-01
   1   12   16     1    16    1.2672E+05 -2.3585E+03   1.2908E+05  0.000E+00  0.000E+00  0.000E+00  4.12699E+01  1.677E-01  2.000E+01  2.000E+04 -1.179E-01
   1   12   17     1    17    1.2908E+05 -1.3878E+03   1.3046E+05  0.000E+00  0.000E+00  0.000E+00  4.07941E+01  1.691E-01  2.000E+01  2.000E+04 -6.939E-02
   1   12   18     1    18    1.3046E+05 -1.0855E+03   1.3155E+05  0.000E+00  0.000E+00  0.000E+00  4.03178E+01  1.701E-01  2.000E+01  2.000E+04 -5.428E-02
   1   12   19     1    19    1.3155E+05 -3.8467E+02   1.3193E+05  0.000E+00  0.000E+00  0.000E+00  3.98411E+01  1.707E-01  2.000E+01  2.000E+04 -1.923E-02
   1   13   20     1    20    1.3193E+05  2.7727E+02   1.3166E+05  0.000E+00  0.000E+00  0.000E+00  3.93639E+01  1.707E-01  2.000E+01  2.000E+04  1.386E-02
   1   14   21     1    21    1.3166E+05 -6.4067E+02   1.3230E+05  0.000E+00  0.000E+00  0.000E+00  3.88868E+01  1.709E-01  2.000E+01  2.000E+04 -3.203E-02
   1   14   22     1    22    1.3230E+05  6.1928E+03   1.2610E+05  0.000E+00  0.000E+00  0.000E+00  3.84073E+01  1.687E-01  2.000E+01  2.000E+04  3.096E-01
   1    9   30     2     1    5.0000E+04 -4.0476E+02   5.0405E+04  0.000E+00  0.000E+00  0.000E+00  4.02411E+01  1.161E-01  2.000E+01  2.000E+04 -2.024E-02
   1    9   29     2     2    5.0405E+04 -6.1855E+02   5.1023E+04  0.000E+00  0.000E+00  0.000E+00  3.99919E+01  1.169E-01  2.000E+01  2.000E+04 -3.093E-02
   1    9   28     2     3    5.1023E+04 -6.4888E+02   5.1672E+04  0.000E+00  0.000E+00  0.000E+00  3.97427E+01  1.177E-01  2.000E+01  2.000E+04 -3.244E-02
   1    9   27     2     4    5.1672E+04 -5.9678E+02   5.2269E+04  0.000E+00  0.000E+00  0.000E+00  3.94936E+01  1.186E-01  2.000E+01  2.000E+04 -2.984E-02
   1   10   26     2     5    5.2269E+04  3.4081E+02   5.1928E+04  0.000E+00  0.000E+00  0.000E+00  3.92438E+01  1.188E-01  2.000E+01  2.000E+04  1.704E-02
   1   11   25     2     6    5.1928E+04  1.6116E+03   5.0317E+04  0.000E+00  0.000E+00  0.000E+00  3.89924E+01  1.174E-01  2.000E+01  2.000E+04  8.058E-02
   1   12   24     2     7    5.0317E+04  3.0591E+03   4.7257E+04  0.000E+00  0.000E+00  0.000E+00  3.87392E+01  1.142E-01  2.000E+01  2.000E+04  1.530E-01
   1   13   23     2     8    4.7257E+04  8.7932E+02   4.6378E+04  0.000E+00  0.000E+00  0.000E+00  3.84864E+01  1.114E-01  2.000E+01  2.000E+04  4.397E-02
   1   14   22     2     9    4.6378E+04  2.7222E+03   4.3656E+04  0.000E+00  0.000E+00  0.000E+00  3.82338E+01  1.088E-01  2.000E+01  2.000E+04  1.361E-01
   1   14   22     3     1    1.6976E+05 -7.5012E+03   1.7726E+05  0.000E+00  0.000E+00  0.000E+00  3.77226E+01  1.671E-01  2.000E+01  2.000E+04 -3.751E-01
   1   15   23     3     2    1.7726E+05 -6.8806E+02   1.7795E+05  0.000E+00  0.000E+00  0.000E+00  3.68361E+01  1.694E-01  2.000E+01  2.000E+04 -3.440E-02
   1   15   24     3     3    1.7795E+05 -3.9631E+02   1.7835E+05  0.000E+00  0.000E+00  0.000E+00  3.59475E+01  1.697E-01  2.000E+01  2.000E+04 -1.982E-02
   1   15   25     3     4    1.7835E+05 -3.8966E+02   1.7874E+05  0.000E+00  0.000E+00  0.000E+00  3.50588E+01  1.700E-01  2.000E+01  2.000E+04 -1.948E-02
   1   15   26     3     5    1.7874E+05 -4.5821E+02   1.7919E+05  0.000E+00  0.000E+00  0.000E+00  3.41702E+01  1.702E-01  2.000E+01  2.000E+04 -2.291E-02
   1   16   27     3     6    1.7919E+05 -5.1645E+02   1.7971E+05  0.000E+00  0.000E+00  0.000E+00  3.32816E+01  1.705E-01  2.000E+01  2.000E+04 -2.582E-02
   1   17   28     3     7    1.7971E+05 -1.9947E+03   1.8171E+05  0.000E+00  0.000E+00  0.000E+00  3.23934E+01  1.712E-01  2.000E+01  2.000E+04 -9.974E-02
   1   18   29     3     8    1.8171E+05 -3.4350E+03   1.8514E+05  0.000E+00  0.000E+00  0.000E+00  3.15061E+01  1.727E-01  2.000E+01  2.000E+04 -1.717E-01
   1   18   30     3     9    1.8514E+05 -3.5666E+03   1.8871E+05  0.000E+00  0.000E+00  0.000E+00  3.06191E+01  1.747E-01  2.000E+01  2.000E+04 -1.783E-01



1
              HEAD IN LAYER   1 AT END OF TIME STEP   1 IN STRESS PERIOD    6
  ---------------------------------------------------------------------------

          1      2      3      4      5      6      7      8      9     10
         11     12     13     14     15     16     17     18     19     20
         21     22     23     24     25     26     27     28     29     30
 .........................................................................
   1  ****** ****** ****** ****** ****** ****** ****** ****** ****** ******
      ****** ****** ****** ****** ****** ****** ****** ****** ****** ******
      ****** ****** ****** ****** ****** ****** ****** ****** ****** ******
   2  ****** ****** ****** ****** ****** ****** ****** ****** ****** ******
      ****** ****** ****** ****** ****** ****** ****** ****** ****** ******
      ****** ****** ****** ****** ****** ****** ****** ****** ****** ******
   3  ****** ****** ****** ****** ****** ****** ****** ****** ****** ******
      ****** ****** ****** ****** ****** ****** ****** ****** ****** ******
      ****** ****** ****** ****** ****** ****** ****** ****** ****** ******
   4  ****** ****** ****** ****** ****** ****** ****** ****** ****** ******
      ****** ****** ****** ****** ****** ****** ****** ****** ****** ******
      ****** ****** ****** ****** ****** ****** ****** ****** ****** ******
   5  ****** ****** ****** ****** ****** ****** ****** ****** ****** ******
      ****** ****** ****** ****** ****** ****** ****** ****** ****** ******
      ****** ****** ****** ****** ****** ****** ****** ****** ****** ******
   6  ****** ****** ****** ****** ****** ****** ****** ****** ****** ******
      ****** ****** ****** ****** ****** ****** ****** ****** ****** ******
      ****** ****** ****** ****** ****** ****** ****** ****** ****** ******
   7  ****** ****** ****** ****** ****** ****** ****** ****** ****** ******
      ****** ****** ****** ****** ****** ****** ****** ****** ****** ******
      ****** ****** ****** ****** ****** ****** ****** ****** ****** ******
   8  ****** ****** ****** ****** ****** ****** ****** ****** ****** ******
      ****** ****** ****** ****** ****** ****** ****** ****** ****** ******
      ****** ****** ****** ****** ****** ****** ****** ****** ****** ******
   9  ****** ****** ****** ****** ****** ****** ****** ****** ****** ******
      ****** ****** ****** ****** ****** ****** ****** ****** ****** ******
      ****** ****** ****** ****** ****** ****** ****** ****** ****** ******
  10  ****** ****** ****** ****** ****** ****** ****** ****** ****** ******
      ****** ****** ****** ****** ****** ****** ****** ****** ****** ******
      ****** ****** ****** ****** ****** ****** ****** ****** ****** ******
  11  ****** ****** ****** ****** ****** ****** ****** ****** ****** ******
      ****** ****** ****** ****** ****** ****** ****** ****** ****** ******
      ****** ****** ****** ****** ****** ****** ****** ****** ****** ******
  12  ****** ****** ****** ****** ****** ****** ****** ****** ****** ******
      ****** ****** ****** ****** ****** ****** ****** ****** ****** ******
      ****** ****** ****** ****** ****** ****** ****** ****** ****** ******
  13  ****** ****** ****** ****** ****** ****** ****** ****** ****** ******
      ****** ****** ****** ****** ****** ****** ****** ****** ****** ******
      ****** ****** ****** ****** ****** ****** ****** ****** ****** ******
  14  ****** ****** ****** ****** ****** ****** ****** ****** ****** ******
      ****** ****** ****** ****** ****** ****** ****** ****** ****** ******
      ****** ****** ****** ****** ****** ****** ****** ****** ****** ******
  15  ****** ****** ****** ****** ****** ****** ****** ****** ****** ******
      ****** ****** ****** ****** ****** ****** ****** ****** ****** ******
      ****** ****** ****** ****** ****** ****** ****** ****** ****** ******
  16  ****** ****** ****** ****** ****** ****** ****** ****** ****** ******
      ****** ****** ****** ****** ****** ****** ****** ****** ****** ******
      ****** ****** ****** ****** ****** ****** ****** ****** ****** ******
  17  ****** ****** ****** ****** ****** ****** ****** ****** ****** ******
      ****** ****** ****** ****** ****** ****** ****** ****** ****** ******
      ****** ****** ****** ****** ****** ****** ****** ****** ****** ******
  18  ****** ****** ****** ****** ****** ****** ****** ****** ****** ******
      ****** ****** ****** ****** ****** ****** ****** ****** ****** ******
      ****** ****** ****** ****** ****** ****** ****** ****** ****** ******
  19  ****** ****** ****** ****** ****** ****** ****** ****** ****** ******
      ****** ****** ****** ****** ****** ****** ****** ****** ****** ******
      ****** ****** ****** ****** ****** ****** ****** ****** ****** ******
  20  ****** ****** ****** ****** ****** ****** ****** ****** ****** ******
      ****** ****** ****** ****** ****** ****** ****** ****** ****** ******
      ****** ****** ****** ****** ****** ****** ****** ****** ****** ******
  21  ****** ****** ****** ****** ****** ****** ****** ****** ****** ******
      ****** ****** ****** ****** ****** ****** ****** ****** ****** ******
      ****** ****** ****** ****** ****** ****** ****** ****** ****** ******
  22  ****** ****** ****** ****** ****** ****** ****** ****** ****** ******
      ****** ****** ****** ****** ****** ****** ****** ****** ****** ******
      ****** ****** ****** ****** ****** ****** ****** ****** ****** ******
  23  ****** ****** ****** ****** ****** ****** ****** ****** ****** ******
      ****** ****** ****** ****** ****** ****** ****** ****** ****** ******
      ****** ****** ****** ****** ****** ****** ****** ****** ****** ******
  24  ****** ****** ****** ****** ****** ****** ****** ****** ****** ******
      ****** ****** ****** ****** ****** ****** ****** ****** ****** ******
      ****** ****** ****** ****** ****** ****** ****** ****** ****** ******
  25  ****** ****** ****** ****** ****** ****** ****** ****** ****** ******
      ****** ****** ****** ****** ****** ****** ****** ****** ****** ******
      ****** ****** ****** ****** ****** ****** ****** ****** ****** ******

 HEAD WILL BE SAVED ON UNIT   51 AT END OF TIME STEP    1, STRESS PERIOD    6
1
  VOLUMETRIC BUDGET FOR ENTIRE MODEL AT END OF TIME STEP    1, STRESS PERIOD   6
  ------------------------------------------------------------------------------

     CUMULATIVE VOLUMES      L**3       RATES FOR THIS TIME STEP      L**3/T
     ------------------                 ------------------------

           IN:                                      IN:
           ---                                      ---
             STORAGE =    31489771.4000               STORAGE =           0.1188
       CONSTANT HEAD =    13474216.6113         CONSTANT HEAD =       30088.0548
               WELLS =           0.0000                 WELLS =           0.0000
            RECHARGE =    15097200.0000              RECHARGE =       55200.0000
      STREAM LEAKAGE =     7180537.8568        STREAM LEAKAGE =       15083.0335

            TOTAL IN =    67241725.8682              TOTAL IN =      100371.2071

          OUT:                                     OUT:
          ----                                     ----
             STORAGE =      771698.9784               STORAGE =        8468.1443
       CONSTANT HEAD =           0.0000         CONSTANT HEAD =           0.0000
               WELLS =    20885899.5627                 WELLS =       38112.9554
            RECHARGE =           0.0000              RECHARGE =           0.0000
      STREAM LEAKAGE =    45584129.3065        STREAM LEAKAGE =       53790.1046

           TOTAL OUT =    67241727.8477             TOTAL OUT =      100371.2042

            IN - OUT =          -1.9795              IN - OUT =       2.8562E-03

 PERCENT DISCREPANCY =          -0.00     PERCENT DISCREPANCY =           0.00






         TIME SUMMARY AT END OF TIME STEP    1 IN STRESS PERIOD    6
                    SECONDS     MINUTES      HOURS       DAYS        YEARS
                    -----------------------------------------------------------
   TIME STEP LENGTH 7.86240E+06 1.31040E+05  2184.0      91.000     0.24914    
 STRESS PERIOD TIME 7.86240E+06 1.31040E+05  2184.0      91.000     0.24914    
         TOTAL TIME 4.73472E+07 7.89120E+05  13152.      548.00      1.5003    
1
1
                            STRESS PERIOD NO.    7, LENGTH =   91.00000    
                            -----------------------------------------------

                              NUMBER OF TIME STEPS =     1

                               MULTIPLIER FOR DELT =     1.500

                            INITIAL TIME STEP SIZE =   91.00000    

 WELL NO.  LAYER   ROW   COL   STRESS RATE         
 --------------------------------------------------
      1      1     11     23      -9982.    
      2      1     13     22      -7684.    
      3      1      6     18      -7790.    
      4      1      7     23     -0.1266E+05

      4 WELLS

                 RECHARGE =   0.00000    

 REUSING STREAM SEGMENT DATA FROM LAST STRESS PERIOD
 
 SOLVING FOR HEAD 


     7 CALLS TO PCG ROUTINE FOR TIME STEP   1 IN STRESS PERIOD    7
    26 TOTAL ITERATIONS

 OUTPUT CONTROL FOR STRESS PERIOD    7   TIME STEP    1
    SAVE BUDGET
    SAVE HEAD FOR ALL LAYERS
    PRINT HEAD FOR ALL LAYERS
 UBDSV2 SAVING "STREAMFLOW OUT  " ON UNIT  50 AT TIME STEP  1, STRESS PERIOD   7



 STREAM LISTING     PERIOD      7   STEP        1

 LAYER ROW COL. STREAM  RCH.  FLOW INTO     FLOW TO   FLOW OUT OF   OVRLND.     DIRECT     STREAM       STREAM     STREAM     STREAM   STREAMBED  STREAMBED
                SEG.NO.  NO.  STRM. RCH.    AQUIFER    STRM. RCH.    RUNOFF     PRECIP       ET          HEAD       DEPTH      WIDTH   CONDCTNC.   GRADIENT

   1   13    1     1     1    1.0000E+05 -1.6937E+03   1.0169E+05  0.000E+00  0.000E+00  0.000E+00  4.84067E+01  1.454E-01  2.000E+01  2.000E+04 -8.468E-02
   1   13    2     1     2    1.0169E+05 -2.6544E+03   1.0435E+05  0.000E+00  0.000E+00  0.000E+00  4.79313E+01  1.473E-01  2.000E+01  2.000E+04 -1.327E-01
   1   14    3     1     3    1.0435E+05 -4.0389E+02   1.0475E+05  0.000E+00  0.000E+00  0.000E+00  4.74554E+01  1.486E-01  2.000E+01  2.000E+04 -2.019E-02
   1   15    4     1     4    1.0475E+05 -3.7513E+02   1.0513E+05  0.000E+00  0.000E+00  0.000E+00  4.69784E+01  1.489E-01  2.000E+01  2.000E+04 -1.876E-02
   1   16    5     1     5    1.0513E+05 -1.4977E+03   1.0662E+05  0.000E+00  0.000E+00  0.000E+00  4.65020E+01  1.497E-01  2.000E+01  2.000E+04 -7.488E-02
   1   16    6     1     6    1.0662E+05 -9.5687E+02   1.0758E+05  0.000E+00  0.000E+00  0.000E+00  4.60257E+01  1.507E-01  2.000E+01  2.000E+04 -4.784E-02
   1   16    7     1     7    1.0758E+05 -9.4639E+02   1.0853E+05  0.000E+00  0.000E+00  0.000E+00  4.55493E+01  1.515E-01  2.000E+01  2.000E+04 -4.732E-02
   1   16    8     1     8    1.0853E+05 -9.4688E+02   1.0947E+05  0.000E+00  0.000E+00  0.000E+00  4.50728E+01  1.523E-01  2.000E+01  2.000E+04 -4.734E-02
   1   16    9     1     9    1.0947E+05 -9.4271E+02   1.1042E+05  0.000E+00  0.000E+00  0.000E+00  4.45963E+01  1.531E-01  2.000E+01  2.000E+04 -4.714E-02
   1   16   10     1    10    1.1042E+05 -9.3507E+02   1.1135E+05  0.000E+00  0.000E+00  0.000E+00  4.41198E+01  1.539E-01  2.000E+01  2.000E+04 -4.675E-02
   1   16   11     1    11    1.1135E+05 -9.4536E+02   1.1230E+05  0.000E+00  0.000E+00  0.000E+00  4.36433E+01  1.547E-01  2.000E+01  2.000E+04 -4.727E-02
   1   16   12     1    12    1.1230E+05 -1.6102E+03   1.1391E+05  0.000E+00  0.000E+00  0.000E+00  4.31671E+01  1.557E-01  2.000E+01  2.000E+04 -8.051E-02
   1   15   13     1    13    1.1391E+05 -1.3806E+03   1.1529E+05  0.000E+00  0.000E+00  0.000E+00  4.26911E+01  1.570E-01  2.000E+01  2.000E+04 -6.903E-02
   1   14   14     1    14    1.1529E+05 -1.4968E+03   1.1679E+05  0.000E+00  0.000E+00  0.000E+00  4.22150E+01  1.582E-01  2.000E+01  2.000E+04 -7.484E-02
   1   13   15     1    15    1.1679E+05 -1.5609E+03   1.1835E+05  0.000E+00  0.000E+00  0.000E+00  4.17389E+01  1.594E-01  2.000E+01  2.000E+04 -7.804E-02
   1   12   16     1    16    1.1835E+05 -1.5548E+03   1.1990E+05  0.000E+00  0.000E+00  0.000E+00  4.12629E+01  1.607E-01  2.000E+01  2.000E+04 -7.774E-02
   1   12   17     1    17    1.1990E+05 -8.0556E+02   1.2071E+05  0.000E+00  0.000E+00  0.000E+00  4.07866E+01  1.616E-01  2.000E+01  2.000E+04 -4.028E-02
   1   12   18     1    18    1.2071E+05 -5.1781E+02   1.2122E+05  0.000E+00  0.000E+00  0.000E+00  4.03099E+01  1.622E-01  2.000E+01  2.000E+04 -2.589E-02
   1   12   19     1    19    1.2122E+05  3.1042E+02   1.2091E+05  0.000E+00  0.000E+00  0.000E+00  3.98327E+01  1.622E-01  2.000E+01  2.000E+04  1.552E-02
   1   13   20     1    20    1.2091E+05  9.4828E+02   1.1997E+05  0.000E+00  0.000E+00  0.000E+00  3.93549E+01  1.617E-01  2.000E+01  2.000E+04  4.741E-02
   1   14   21     1    21    1.1997E+05  1.6818E+01   1.1995E+05  0.000E+00  0.000E+00  0.000E+00  3.88772E+01  1.613E-01  2.000E+01  2.000E+04  8.409E-04
   1   14   22     1    22    1.1995E+05  6.3566E+03   1.1359E+05  0.000E+00  0.000E+00  0.000E+00  3.83974E+01  1.588E-01  2.000E+01  2.000E+04  3.178E-01
   1    9   30     2     1    5.0000E+04  1.1347E+02   4.9887E+04  0.000E+00  0.000E+00  0.000E+00  4.02408E+01  1.158E-01  2.000E+01  2.000E+04  5.673E-03
   1    9   29     2     2    4.9887E+04 -1.0187E+02   4.9988E+04  0.000E+00  0.000E+00  0.000E+00  3.99908E+01  1.158E-01  2.000E+01  2.000E+04 -5.094E-03
   1    9   28     2     3    4.9988E+04 -1.3021E+02   5.0119E+04  0.000E+00  0.000E+00  0.000E+00  3.97409E+01  1.159E-01  2.000E+01  2.000E+04 -6.510E-03
   1    9   27     2     4    5.0119E+04  1.1081E+02   5.0008E+04  0.000E+00  0.000E+00  0.000E+00  3.94910E+01  1.160E-01  2.000E+01  2.000E+04  5.540E-03
   1   10   26     2     5    5.0008E+04  1.0476E+03   4.8960E+04  0.000E+00  0.000E+00  0.000E+00  3.92401E+01  1.151E-01  2.000E+01  2.000E+04  5.238E-02
   1   11   25     2     6    4.8960E+04  2.2886E+03   4.6672E+04  0.000E+00  0.000E+00  0.000E+00  3.89878E+01  1.128E-01  2.000E+01  2.000E+04  1.144E-01
   1   12   24     2     7    4.6672E+04  3.6762E+03   4.2995E+04  0.000E+00  0.000E+00  0.000E+00  3.87335E+01  1.085E-01  2.000E+01  2.000E+04  1.838E-01
   1   13   23     2     8    4.2995E+04  1.0720E+03   4.1923E+04  0.000E+00  0.000E+00  0.000E+00  3.84800E+01  1.050E-01  2.000E+01  2.000E+04  5.360E-02
   1   14   22     2     9    4.1923E+04  2.9493E+03   3.8974E+04  0.000E+00  0.000E+00  0.000E+00  3.82270E+01  1.020E-01  2.000E+01  2.000E+04  1.475E-01
   1   14   22     3     1    1.5257E+05 -7.3425E+03   1.5991E+05  0.000E+00  0.000E+00  0.000E+00  3.77124E+01  1.569E-01  2.000E+01  2.000E+04 -3.671E-01
   1   15   23     3     2    1.5991E+05 -4.8318E+02   1.6039E+05  0.000E+00  0.000E+00  0.000E+00  3.68259E+01  1.592E-01  2.000E+01  2.000E+04 -2.416E-02
   1   15   24     3     3    1.6039E+05 -2.2358E+02   1.6062E+05  0.000E+00  0.000E+00  0.000E+00  3.59372E+01  1.594E-01  2.000E+01  2.000E+04 -1.118E-02
   1   15   25     3     4    1.6062E+05 -2.1375E+02   1.6083E+05  0.000E+00  0.000E+00  0.000E+00  3.50485E+01  1.596E-01  2.000E+01  2.000E+04 -1.069E-02
   1   15   26     3     5    1.6083E+05 -2.5755E+02   1.6109E+05  0.000E+00  0.000E+00  0.000E+00  3.41597E+01  1.597E-01  2.000E+01  2.000E+04 -1.288E-02
   1   16   27     3     6    1.6109E+05 -2.8509E+02   1.6137E+05  0.000E+00  0.000E+00  0.000E+00  3.32710E+01  1.599E-01  2.000E+01  2.000E+04 -1.425E-02
   1   17   28     3     7    1.6137E+05 -1.3566E+03   1.6273E+05  0.000E+00  0.000E+00  0.000E+00  3.23826E+01  1.604E-01  2.000E+01  2.000E+04 -6.783E-02
   1   18   29     3     8    1.6273E+05 -2.7559E+03   1.6548E+05  0.000E+00  0.000E+00  0.000E+00  3.14949E+01  1.616E-01  2.000E+01  2.000E+04 -1.378E-01
   1   18   30     3     9    1.6548E+05 -3.0424E+03   1.6853E+05  0.000E+00  0.000E+00  0.000E+00  3.06077E+01  1.633E-01  2.000E+01  2.000E+04 -1.521E-01



1
              HEAD IN LAYER   1 AT END OF TIME STEP   1 IN STRESS PERIOD    7
  ---------------------------------------------------------------------------

          1      2      3      4      5      6      7      8      9     10
         11     12     13     14     15     16     17     18     19     20
         21     22     23     24     25     26     27     28     29     30
 .........................................................................
   1  ****** ****** ****** ****** ****** ****** ****** ****** ****** ******
      ****** ****** ****** ****** ****** ****** ****** ****** ****** ******
      ****** ****** ****** ****** ****** ****** ****** ****** ****** ******
   2  ****** ****** ****** ****** ****** ****** ****** ****** ****** ******
      ****** ****** ****** ****** ****** ****** ****** ****** ****** ******
      ****** ****** ****** ****** ****** ****** ****** ****** ****** ******
   3  ****** ****** ****** ****** ****** ****** ****** ****** ****** ******
      ****** ****** ****** ****** ****** ****** ****** ****** ****** ******
      ****** ****** ****** ****** ****** ****** ****** ****** ****** ******
   4  ****** ****** ****** ****** ****** ****** ****** ****** ****** ******
      ****** ****** ****** ****** ****** ****** ****** ****** ****** ******
      ****** ****** ****** ****** ****** ****** ****** ****** ****** ******
   5  ****** ****** ****** ****** ****** ****** ****** ****** ****** ******
      ****** ****** ****** ****** ****** ****** ****** ****** ****** ******
      ****** ****** ****** ****** ****** ****** ****** ****** ****** ******
   6  ****** ****** ****** ****** ****** ****** ****** ****** ****** ******
      ****** ****** ****** ****** ****** ****** ****** ****** ****** ******
      ****** ****** ****** ****** ****** ****** ****** ****** ****** ******
   7  ****** ****** ****** ****** ****** ****** ****** ****** ****** ******
      ****** ****** ****** ****** ****** ****** ****** ****** ****** ******
      ****** ****** ****** ****** ****** ****** ****** ****** ****** ******
   8  ****** ****** ****** ****** ****** ****** ****** ****** ****** ******
      ****** ****** ****** ****** ****** ****** ****** ****** ****** ******
      ****** ****** ****** ****** ****** ****** ****** ****** ****** ******
   9  ****** ****** ****** ****** ****** ****** ****** ****** ****** ******
      ****** ****** ****** ****** ****** ****** ****** ****** ****** ******
      ****** ****** ****** ****** ****** ****** ****** ****** ****** ******
  10  ****** ****** ****** ****** ****** ****** ****** ****** ****** ******
      ****** ****** ****** ****** ****** ****** ****** ****** ****** ******
      ****** ****** ****** ****** ****** ****** ****** ****** ****** ******
  11  ****** ****** ****** ****** ****** ****** ****** ****** ****** ******
      ****** ****** ****** ****** ****** ****** ****** ****** ****** ******
      ****** ****** ****** ****** ****** ****** ****** ****** ****** ******
  12  ****** ****** ****** ****** ****** ****** ****** ****** ****** ******
      ****** ****** ****** ****** ****** ****** ****** ****** ****** ******
      ****** ****** ****** ****** ****** ****** ****** ****** ****** ******
  13  ****** ****** ****** ****** ****** ****** ****** ****** ****** ******
      ****** ****** ****** ****** ****** ****** ****** ****** ****** ******
      ****** ****** ****** ****** ****** ****** ****** ****** ****** ******
  14  ****** ****** ****** ****** ****** ****** ****** ****** ****** ******
      ****** ****** ****** ****** ****** ****** ****** ****** ****** ******
      ****** ****** ****** ****** ****** ****** ****** ****** ****** ******
  15  ****** ****** ****** ****** ****** ****** ****** ****** ****** ******
      ****** ****** ****** ****** ****** ****** ****** ****** ****** ******
      ****** ****** ****** ****** ****** ****** ****** ****** ****** ******
  16  ****** ****** ****** ****** ****** ****** ****** ****** ****** ******
      ****** ****** ****** ****** ****** ****** ****** ****** ****** ******
      ****** ****** ****** ****** ****** ****** ****** ****** ****** ******
  17  ****** ****** ****** ****** ****** ****** ****** ****** ****** ******
      ****** ****** ****** ****** ****** ****** ****** ****** ****** ******
      ****** ****** ****** ****** ****** ****** ****** ****** ****** ******
  18  ****** ****** ****** ****** ****** ****** ****** ****** ****** ******
      ****** ****** ****** ****** ****** ****** ****** ****** ****** ******
      ****** ****** ****** ****** ****** ****** ****** ****** ****** ******
  19  ****** ****** ****** ****** ****** ****** ****** ****** ****** ******
      ****** ****** ****** ****** ****** ****** ****** ****** ****** ******
      ****** ****** ****** ****** ****** ****** ****** ****** ****** ******
  20  ****** ****** ****** ****** ****** ****** ****** ****** ****** ******
      ****** ****** ****** ****** ****** ****** ****** ****** ****** ******
      ****** ****** ****** ****** ****** ****** ****** ****** ****** ******
  21  ****** ****** ****** ****** ****** ****** ****** ****** ****** ******
      ****** ****** ****** ****** ****** ****** ****** ****** ****** ******
      ****** ****** ****** ****** ****** ****** ****** ****** ****** ******
  22  ****** ****** ****** ****** ****** ****** ****** ****** ****** ******
      ****** ****** ****** ****** ****** ****** ****** ****** ****** ******
      ****** ****** ****** ****** ****** ****** ****** ****** ****** ******
  23  ****** ****** ****** ****** ****** ****** ****** ****** ****** ******
      ****** ****** ****** ****** ****** ****** ****** ****** ****** ******
      ****** ****** ****** ****** ****** ****** ****** ****** ****** ******
  24  ****** ****** ****** ****** ****** ****** ****** ****** ****** ******
      ****** ****** ****** ****** ****** ****** ****** ****** ****** ******
      ****** ****** ****** ****** ****** ****** ****** ****** ****** ******
  25  ****** ****** ****** ****** ****** ****** ****** ****** ****** ******
      ****** ****** ****** ****** ****** ****** ****** ****** ****** ******
      ****** ****** ****** ****** ****** ****** ****** ****** ****** ******

 HEAD WILL BE SAVED ON UNIT   51 AT END OF TIME STEP    1, STRESS PERIOD    7
1
  VOLUMETRIC BUDGET FOR ENTIRE MODEL AT END OF TIME STEP    1, STRESS PERIOD   7
  ------------------------------------------------------------------------------

     CUMULATIVE VOLUMES      L**3       RATES FOR THIS TIME STEP      L**3/T
     ------------------                 ------------------------

           IN:                                      IN:
           ---                                      ---
             STORAGE =    33546120.4955               STORAGE =       22597.2428
       CONSTANT HEAD =    16572138.2837         CONSTANT HEAD =       34043.0953
               WELLS =           0.0000                 WELLS =           0.0000
            RECHARGE =    15097200.0000              RECHARGE =           0.0000
      STREAM LEAKAGE =     8899536.5316        STREAM LEAKAGE =       18890.0953

            TOTAL IN =    74114995.3108              TOTAL IN =       75530.4334

          OUT:                                     OUT:
          ----                                     ----
             STORAGE =      771698.9784               STORAGE =           0.0000
       CONSTANT HEAD =           0.0000         CONSTANT HEAD =           0.0000
               WELLS =    24354178.5047                 WELLS =       38112.9554
            RECHARGE =           0.0000              RECHARGE =           0.0000
      STREAM LEAKAGE =    48989120.3044        STREAM LEAKAGE =       37417.4835

           TOTAL OUT =    74114997.7876             TOTAL OUT =       75530.4389

            IN - OUT =          -2.4768              IN - OUT =      -5.4655E-03

 PERCENT DISCREPANCY =          -0.00     PERCENT DISCREPANCY =          -0.00






         TIME SUMMARY AT END OF TIME STEP    1 IN STRESS PERIOD    7
                    SECONDS     MINUTES      HOURS       DAYS        YEARS
                    -----------------------------------------------------------
   TIME STEP LENGTH 7.86240E+06 1.31040E+05  2184.0      91.000     0.24914    
 STRESS PERIOD TIME 7.86240E+06 1.31040E+05  2184.0      91.000     0.24914    
         TOTAL TIME 5.52096E+07 9.20160E+05  15336.      639.00      1.7495    
1
1
                            STRESS PERIOD NO.    8, LENGTH =   91.00000    
                            -----------------------------------------------

                              NUMBER OF TIME STEPS =     1

                               MULTIPLIER FOR DELT =     1.500

                            INITIAL TIME STEP SIZE =   91.00000    

 WELL NO.  LAYER   ROW   COL   STRESS RATE         
 --------------------------------------------------
      1      1     11     23      -9982.    
      2      1     13     22      -7684.    
      3      1      6     18      -7790.    
      4      1      7     23     -0.1266E+05

      4 WELLS

                 RECHARGE =  1.000000E-03

 REUSING STREAM SEGMENT DATA FROM LAST STRESS PERIOD
 
 SOLVING FOR HEAD 


     6 CALLS TO PCG ROUTINE FOR TIME STEP   1 IN STRESS PERIOD    8
    22 TOTAL ITERATIONS

 OUTPUT CONTROL FOR STRESS PERIOD    8   TIME STEP    1
    SAVE BUDGET
    SAVE HEAD FOR ALL LAYERS
    PRINT HEAD FOR ALL LAYERS
 UBDSV2 SAVING "STREAMFLOW OUT  " ON UNIT  50 AT TIME STEP  1, STRESS PERIOD   8



 STREAM LISTING     PERIOD      8   STEP        1

 LAYER ROW COL. STREAM  RCH.  FLOW INTO     FLOW TO   FLOW OUT OF   OVRLND.     DIRECT     STREAM       STREAM     STREAM     STREAM   STREAMBED  STREAMBED
                SEG.NO.  NO.  STRM. RCH.    AQUIFER    STRM. RCH.    RUNOFF     PRECIP       ET          HEAD       DEPTH      WIDTH   CONDCTNC.   GRADIENT

   1   13    1     1     1    1.0000E+05 -1.7622E+03   1.0176E+05  0.000E+00  0.000E+00  0.000E+00  4.84068E+01  1.454E-01  2.000E+01  2.000E+04 -8.811E-02
   1   13    2     1     2    1.0176E+05 -2.7218E+03   1.0448E+05  0.000E+00  0.000E+00  0.000E+00  4.79314E+01  1.473E-01  2.000E+01  2.000E+04 -1.361E-01
   1   14    3     1     3    1.0448E+05 -4.6729E+02   1.0495E+05  0.000E+00  0.000E+00  0.000E+00  4.74555E+01  1.487E-01  2.000E+01  2.000E+04 -2.336E-02
   1   15    4     1     4    1.0495E+05 -4.4339E+02   1.0539E+05  0.000E+00  0.000E+00  0.000E+00  4.69786E+01  1.491E-01  2.000E+01  2.000E+04 -2.217E-02
   1   16    5     1     5    1.0539E+05 -1.6725E+03   1.0707E+05  0.000E+00  0.000E+00  0.000E+00  4.65023E+01  1.500E-01  2.000E+01  2.000E+04 -8.362E-02
   1   16    6     1     6    1.0707E+05 -1.0640E+03   1.0813E+05  0.000E+00  0.000E+00  0.000E+00  4.60262E+01  1.512E-01  2.000E+01  2.000E+04 -5.320E-02
   1   16    7     1     7    1.0813E+05 -1.0484E+03   1.0918E+05  0.000E+00  0.000E+00  0.000E+00  4.55498E+01  1.520E-01  2.000E+01  2.000E+04 -5.242E-02
   1   16    8     1     8    1.0918E+05 -1.0481E+03   1.1023E+05  0.000E+00  0.000E+00  0.000E+00  4.50734E+01  1.529E-01  2.000E+01  2.000E+04 -5.241E-02
   1   16    9     1     9    1.1023E+05 -1.0452E+03   1.1127E+05  0.000E+00  0.000E+00  0.000E+00  4.45970E+01  1.538E-01  2.000E+01  2.000E+04 -5.226E-02
   1   16   10     1    10    1.1127E+05 -1.0403E+03   1.1231E+05  0.000E+00  0.000E+00  0.000E+00  4.41206E+01  1.547E-01  2.000E+01  2.000E+04 -5.202E-02
   1   16   11     1    11    1.1231E+05 -1.0540E+03   1.1337E+05  0.000E+00  0.000E+00  0.000E+00  4.36442E+01  1.555E-01  2.000E+01  2.000E+04 -5.270E-02
   1   16   12     1    12    1.1337E+05 -1.7727E+03   1.1514E+05  0.000E+00  0.000E+00  0.000E+00  4.31681E+01  1.567E-01  2.000E+01  2.000E+04 -8.864E-02
   1   15   13     1    13    1.1514E+05 -1.5475E+03   1.1669E+05  0.000E+00  0.000E+00  0.000E+00  4.26921E+01  1.581E-01  2.000E+01  2.000E+04 -7.737E-02
   1   14   14     1    14    1.1669E+05 -1.6547E+03   1.1834E+05  0.000E+00  0.000E+00  0.000E+00  4.22162E+01  1.594E-01  2.000E+01  2.000E+04 -8.274E-02
   1   13   15     1    15    1.1834E+05 -1.7039E+03   1.2005E+05  0.000E+00  0.000E+00  0.000E+00  4.17403E+01  1.607E-01  2.000E+01  2.000E+04 -8.520E-02
   1   12   16     1    16    1.2005E+05 -1.6560E+03   1.2170E+05  0.000E+00  0.000E+00  0.000E+00  4.12644E+01  1.621E-01  2.000E+01  2.000E+04 -8.280E-02
   1   12   17     1    17    1.2170E+05 -9.1173E+02   1.2261E+05  0.000E+00  0.000E+00  0.000E+00  4.07881E+01  1.631E-01  2.000E+01  2.000E+04 -4.559E-02
   1   12   18     1    18    1.2261E+05 -6.3133E+02   1.2325E+05  0.000E+00  0.000E+00  0.000E+00  4.03115E+01  1.637E-01  2.000E+01  2.000E+04 -3.157E-02
   1   12   19     1    19    1.2325E+05  1.6776E+02   1.2308E+05  0.000E+00  0.000E+00  0.000E+00  3.98344E+01  1.639E-01  2.000E+01  2.000E+04  8.388E-03
   1   13   20     1    20    1.2308E+05  7.7181E+02   1.2231E+05  0.000E+00  0.000E+00  0.000E+00  3.93567E+01  1.635E-01  2.000E+01  2.000E+04  3.859E-02
   1   14   21     1    21    1.2231E+05 -1.4342E+02   1.2245E+05  0.000E+00  0.000E+00  0.000E+00  3.88792E+01  1.633E-01  2.000E+01  2.000E+04 -7.171E-03
   1   14   22     1    22    1.2245E+05  6.3068E+03   1.1614E+05  0.000E+00  0.000E+00  0.000E+00  3.83994E+01  1.608E-01  2.000E+01  2.000E+04  3.153E-01
   1    9   30     2     1    5.0000E+04 -4.6979E+01   5.0047E+04  0.000E+00  0.000E+00  0.000E+00  4.02409E+01  1.159E-01  2.000E+01  2.000E+04 -2.349E-03
   1    9   29     2     2    5.0047E+04 -2.5937E+02   5.0306E+04  0.000E+00  0.000E+00  0.000E+00  3.99911E+01  1.161E-01  2.000E+01  2.000E+04 -1.297E-02
   1    9   28     2     3    5.0306E+04 -2.8172E+02   5.0588E+04  0.000E+00  0.000E+00  0.000E+00  3.97415E+01  1.165E-01  2.000E+01  2.000E+04 -1.409E-02
   1    9   27     2     4    5.0588E+04 -6.0781E+01   5.0649E+04  0.000E+00  0.000E+00  0.000E+00  3.94917E+01  1.167E-01  2.000E+01  2.000E+04 -3.039E-03
   1   10   26     2     5    5.0649E+04  8.4744E+02   4.9801E+04  0.000E+00  0.000E+00  0.000E+00  3.92412E+01  1.162E-01  2.000E+01  2.000E+04  4.237E-02
   1   11   25     2     6    4.9801E+04  2.0894E+03   4.7712E+04  0.000E+00  0.000E+00  0.000E+00  3.89891E+01  1.141E-01  2.000E+01  2.000E+04  1.045E-01
   1   12   24     2     7    4.7712E+04  3.4956E+03   4.4216E+04  0.000E+00  0.000E+00  0.000E+00  3.87352E+01  1.102E-01  2.000E+01  2.000E+04  1.748E-01
   1   13   23     2     8    4.4216E+04  9.9836E+02   4.3218E+04  0.000E+00  0.000E+00  0.000E+00  3.84819E+01  1.069E-01  2.000E+01  2.000E+04  4.992E-02
   1   14   22     2     9    4.3218E+04  2.8982E+03   4.0320E+04  0.000E+00  0.000E+00  0.000E+00  3.82290E+01  1.040E-01  2.000E+01  2.000E+04  1.449E-01
   1   14   22     3     1    1.5646E+05 -7.3863E+03   1.6385E+05  0.000E+00  0.000E+00  0.000E+00  3.77148E+01  1.592E-01  2.000E+01  2.000E+04 -3.693E-01
   1   15   23     3     2    1.6385E+05 -5.4806E+02   1.6440E+05  0.000E+00  0.000E+00  0.000E+00  3.68283E+01  1.616E-01  2.000E+01  2.000E+04 -2.740E-02
   1   15   24     3     3    1.6440E+05 -2.8447E+02   1.6468E+05  0.000E+00  0.000E+00  0.000E+00  3.59396E+01  1.618E-01  2.000E+01  2.000E+04 -1.422E-02
   1   15   25     3     4    1.6468E+05 -2.7632E+02   1.6496E+05  0.000E+00  0.000E+00  0.000E+00  3.50509E+01  1.620E-01  2.000E+01  2.000E+04 -1.382E-02
   1   15   26     3     5    1.6496E+05 -3.3241E+02   1.6529E+05  0.000E+00  0.000E+00  0.000E+00  3.41622E+01  1.622E-01  2.000E+01  2.000E+04 -1.662E-02
   1   16   27     3     6    1.6529E+05 -3.6732E+02   1.6566E+05  0.000E+00  0.000E+00  0.000E+00  3.32735E+01  1.624E-01  2.000E+01  2.000E+04 -1.837E-02
   1   17   28     3     7    1.6566E+05 -1.5618E+03   1.6722E+05  0.000E+00  0.000E+00  0.000E+00  3.23852E+01  1.629E-01  2.000E+01  2.000E+04 -7.809E-02
   1   18   29     3     8    1.6722E+05 -2.9245E+03   1.7014E+05  0.000E+00  0.000E+00  0.000E+00  3.14976E+01  1.643E-01  2.000E+01  2.000E+04 -1.462E-01
   1   18   30     3     9    1.7014E+05 -3.1910E+03   1.7333E+05  0.000E+00  0.000E+00  0.000E+00  3.06105E+01  1.660E-01  2.000E+01  2.000E+04 -1.595E-01



1
              HEAD IN LAYER   1 AT END OF TIME STEP   1 IN STRESS PERIOD    8
  ---------------------------------------------------------------------------

          1      2      3      4      5      6      7      8      9     10
         11     12     13     14     15     16     17     18     19     20
         21     22     23     24     25     26     27     28     29     30
 .........................................................................
   1  ****** ****** ****** ****** ****** ****** ****** ****** ****** ******
      ****** ****** ****** ****** ****** ****** ****** ****** ****** ******
      ****** ****** ****** ****** ****** ****** ****** ****** ****** ******
   2  ****** ****** ****** ****** ****** ****** ****** ****** ****** ******
      ****** ****** ****** ****** ****** ****** ****** ****** ****** ******
      ****** ****** ****** ****** ****** ****** ****** ****** ****** ******
   3  ****** ****** ****** ****** ****** ****** ****** ****** ****** ******
      ****** ****** ****** ****** ****** ****** ****** ****** ****** ******
      ****** ****** ****** ****** ****** ****** ****** ****** ****** ******
   4  ****** ****** ****** ****** ****** ****** ****** ****** ****** ******
      ****** ****** ****** ****** ****** ****** ****** ****** ****** ******
      ****** ****** ****** ****** ****** ****** ****** ****** ****** ******
   5  ****** ****** ****** ****** ****** ****** ****** ****** ****** ******
      ****** ****** ****** ****** ****** ****** ****** ****** ****** ******
      ****** ****** ****** ****** ****** ****** ****** ****** ****** ******
   6  ****** ****** ****** ****** ****** ****** ****** ****** ****** ******
      ****** ****** ****** ****** ****** ****** ****** ****** ****** ******
      ****** ****** ****** ****** ****** ****** ****** ****** ****** ******
   7  ****** ****** ****** ****** ****** ****** ****** ****** ****** ******
      ****** ****** ****** ****** ****** ****** ****** ****** ****** ******
      ****** ****** ****** ****** ****** ****** ****** ****** ****** ******
   8  ****** ****** ****** ****** ****** ****** ****** ****** ****** ******
      ****** ****** ****** ****** ****** ****** ****** ****** ****** ******
      ****** ****** ****** ****** ****** ****** ****** ****** ****** ******
   9  ****** ****** ****** ****** ****** ****** ****** ****** ****** ******
      ****** ****** ****** ****** ****** ****** ****** ****** ****** ******
      ****** ****** ****** ****** ****** ****** ****** ****** ****** ******
  10  ****** ****** ****** ****** ****** ****** ****** ****** ****** ******
      ****** ****** ****** ****** ****** ****** ****** ****** ****** ******
      ****** ****** ****** ****** ****** ****** ****** ****** ****** ******
  11  ****** ****** ****** ****** ****** ****** ****** ****** ****** ******
      ****** ****** ****** ****** ****** ****** ****** ****** ****** ******
      ****** ****** ****** ****** ****** ****** ****** ****** ****** ******
  12  ****** ****** ****** ****** ****** ****** ****** ****** ****** ******
      ****** ****** ****** ****** ****** ****** ****** ****** ****** ******
      ****** ****** ****** ****** ****** ****** ****** ****** ****** ******
  13  ****** ****** ****** ****** ****** ****** ****** ****** ****** ******
      ****** ****** ****** ****** ****** ****** ****** ****** ****** ******
      ****** ****** ****** ****** ****** ****** ****** ****** ****** ******
  14  ****** ****** ****** ****** ****** ****** ****** ****** ****** ******
      ****** ****** ****** ****** ****** ****** ****** ****** ****** ******
      ****** ****** ****** ****** ****** ****** ****** ****** ****** ******
  15  ****** ****** ****** ****** ****** ****** ****** ****** ****** ******
      ****** ****** ****** ****** ****** ****** ****** ****** ****** ******
      ****** ****** ****** ****** ****** ****** ****** ****** ****** ******
  16  ****** ****** ****** ****** ****** ****** ****** ****** ****** ******
      ****** ****** ****** ****** ****** ****** ****** ****** ****** ******
      ****** ****** ****** ****** ****** ****** ****** ****** ****** ******
  17  ****** ****** ****** ****** ****** ****** ****** ****** ****** ******
      ****** ****** ****** ****** ****** ****** ****** ****** ****** ******
      ****** ****** ****** ****** ****** ****** ****** ****** ****** ******
  18  ****** ****** ****** ****** ****** ****** ****** ****** ****** ******
      ****** ****** ****** ****** ****** ****** ****** ****** ****** ******
      ****** ****** ****** ****** ****** ****** ****** ****** ****** ******
  19  ****** ****** ****** ****** ****** ****** ****** ****** ****** ******
      ****** ****** ****** ****** ****** ****** ****** ****** ****** ******
      ****** ****** ****** ****** ****** ****** ****** ****** ****** ******
  20  ****** ****** ****** ****** ****** ****** ****** ****** ****** ******
      ****** ****** ****** ****** ****** ****** ****** ****** ****** ******
      ****** ****** ****** ****** ****** ****** ****** ****** ****** ******
  21  ****** ****** ****** ****** ****** ****** ****** ****** ****** ******
      ****** ****** ****** ****** ****** ****** ****** ****** ****** ******
      ****** ****** ****** ****** ****** ****** ****** ****** ****** ******
  22  ****** ****** ****** ****** ****** ****** ****** ****** ****** ******
      ****** ****** ****** ****** ****** ****** ****** ****** ****** ******
      ****** ****** ****** ****** ****** ****** ****** ****** ****** ******
  23  ****** ****** ****** ****** ****** ****** ****** ****** ****** ******
      ****** ****** ****** ****** ****** ****** ****** ****** ****** ******
      ****** ****** ****** ****** ****** ****** ****** ****** ****** ******
  24  ****** ****** ****** ****** ****** ****** ****** ****** ****** ******
      ****** ****** ****** ****** ****** ****** ****** ****** ****** ******
      ****** ****** ****** ****** ****** ****** ****** ****** ****** ******
  25  ****** ****** ****** ****** ****** ****** ****** ****** ****** ******
      ****** ****** ****** ****** ****** ****** ****** ****** ****** ******
      ****** ****** ****** ****** ****** ****** ****** ****** ****** ******

 HEAD WILL BE SAVED ON UNIT   51 AT END OF TIME STEP    1, STRESS PERIOD    8
1
  VOLUMETRIC BUDGET FOR ENTIRE MODEL AT END OF TIME STEP    1, STRESS PERIOD   8
  ------------------------------------------------------------------------------

     CUMULATIVE VOLUMES      L**3       RATES FOR THIS TIME STEP      L**3/T
     ------------------                 ------------------------

           IN:                                      IN:
           ---                                      ---
             STORAGE =    33696274.2358               STORAGE =        1650.0411
       CONSTANT HEAD =    19645003.0684         CONSTANT HEAD =       33767.7449
               WELLS =           0.0000                 WELLS =           0.0000
            RECHARGE =    17608800.0000              RECHARGE =       27600.0000
      STREAM LEAKAGE =    10498903.4371        STREAM LEAKAGE =       17575.4605

            TOTAL IN =    81448980.7413              TOTAL IN =       80593.2465

          OUT:                                     OUT:
          ----                                     ----
             STORAGE =      914635.1389               STORAGE =        1570.7270
       CONSTANT HEAD =           0.0000         CONSTANT HEAD =           0.0000
               WELLS =    27822457.4467                 WELLS =       38112.9554
            RECHARGE =           0.0000              RECHARGE =           0.0000
      STREAM LEAKAGE =    52711889.8999        STREAM LEAKAGE =       40909.5560

           TOTAL OUT =    81448982.4855             TOTAL OUT =       80593.2384

            IN - OUT =          -1.7442              IN - OUT =       8.0513E-03

 PERCENT DISCREPANCY =          -0.00     PERCENT DISCREPANCY =           0.00






         TIME SUMMARY AT END OF TIME STEP    1 IN STRESS PERIOD    8
                    SECONDS     MINUTES      HOURS       DAYS        YEARS
                    -----------------------------------------------------------
   TIME STEP LENGTH 7.86240E+06 1.31040E+05  2184.0      91.000     0.24914    
 STRESS PERIOD TIME 7.86240E+06 1.31040E+05  2184.0      91.000     0.24914    
         TOTAL TIME 6.30720E+07 1.05120E+06  17520.      730.00      1.9986    
1
1
                            STRESS PERIOD NO.    9, LENGTH =   92.00000    
                            -----------------------------------------------

                              NUMBER OF TIME STEPS =     1

                               MULTIPLIER FOR DELT =     1.500

                            INITIAL TIME STEP SIZE =   92.00000    

 WELL NO.  LAYER   ROW   COL   STRESS RATE         
 --------------------------------------------------
      1      1     11     23      -9982.    
      2      1     13     22      -7684.    
      3      1      6     18      -7790.    
      4      1      7     23     -0.1266E+05

      4 WELLS

                 RECHARGE =  5.000000E-04

 REUSING STREAM SEGMENT DATA FROM LAST STRESS PERIOD
 
 SOLVING FOR HEAD 


     6 CALLS TO PCG ROUTINE FOR TIME STEP   1 IN STRESS PERIOD    9
    23 TOTAL ITERATIONS

 OUTPUT CONTROL FOR STRESS PERIOD    9   TIME STEP    1
    SAVE BUDGET
    SAVE HEAD FOR ALL LAYERS
    PRINT HEAD FOR ALL LAYERS
 UBDSV2 SAVING "STREAMFLOW OUT  " ON UNIT  50 AT TIME STEP  1, STRESS PERIOD   9



 STREAM LISTING     PERIOD      9   STEP        1

 LAYER ROW COL. STREAM  RCH.  FLOW INTO     FLOW TO   FLOW OUT OF   OVRLND.     DIRECT     STREAM       STREAM     STREAM     STREAM   STREAMBED  STREAMBED
                SEG.NO.  NO.  STRM. RCH.    AQUIFER    STRM. RCH.    RUNOFF     PRECIP       ET          HEAD       DEPTH      WIDTH   CONDCTNC.   GRADIENT

   1   13    1     1     1    1.0000E+05 -1.5440E+03   1.0154E+05  0.000E+00  0.000E+00  0.000E+00  4.84067E+01  1.453E-01  2.000E+01  2.000E+04 -7.720E-02
   1   13    2     1     2    1.0154E+05 -2.4745E+03   1.0402E+05  0.000E+00  0.000E+00  0.000E+00  4.79311E+01  1.471E-01  2.000E+01  2.000E+04 -1.237E-01
   1   14    3     1     3    1.0402E+05 -3.9592E+02   1.0441E+05  0.000E+00  0.000E+00  0.000E+00  4.74551E+01  1.483E-01  2.000E+01  2.000E+04 -1.980E-02
   1   15    4     1     4    1.0441E+05 -3.7118E+02   1.0479E+05  0.000E+00  0.000E+00  0.000E+00  4.69782E+01  1.486E-01  2.000E+01  2.000E+04 -1.856E-02
   1   16    5     1     5    1.0479E+05 -1.4806E+03   1.0627E+05  0.000E+00  0.000E+00  0.000E+00  4.65017E+01  1.494E-01  2.000E+01  2.000E+04 -7.403E-02
   1   16    6     1     6    1.0627E+05 -9.4404E+02   1.0721E+05  0.000E+00  0.000E+00  0.000E+00  4.60254E+01  1.504E-01  2.000E+01  2.000E+04 -4.720E-02
   1   16    7     1     7    1.0721E+05 -9.3213E+02   1.0814E+05  0.000E+00  0.000E+00  0.000E+00  4.55489E+01  1.512E-01  2.000E+01  2.000E+04 -4.661E-02
   1   16    8     1     8    1.0814E+05 -9.3335E+02   1.0908E+05  0.000E+00  0.000E+00  0.000E+00  4.50725E+01  1.520E-01  2.000E+01  2.000E+04 -4.667E-02
   1   16    9     1     9    1.0908E+05 -9.3216E+02   1.1001E+05  0.000E+00  0.000E+00  0.000E+00  4.45960E+01  1.528E-01  2.000E+01  2.000E+04 -4.661E-02
   1   16   10     1    10    1.1001E+05 -9.2943E+02   1.1094E+05  0.000E+00  0.000E+00  0.000E+00  4.41195E+01  1.536E-01  2.000E+01  2.000E+04 -4.647E-02
   1   16   11     1    11    1.1094E+05 -9.4439E+02   1.1188E+05  0.000E+00  0.000E+00  0.000E+00  4.36430E+01  1.543E-01  2.000E+01  2.000E+04 -4.722E-02
   1   16   12     1    12    1.1188E+05 -1.5850E+03   1.1347E+05  0.000E+00  0.000E+00  0.000E+00  4.31668E+01  1.554E-01  2.000E+01  2.000E+04 -7.925E-02
   1   15   13     1    13    1.1347E+05 -1.3369E+03   1.1480E+05  0.000E+00  0.000E+00  0.000E+00  4.26907E+01  1.566E-01  2.000E+01  2.000E+04 -6.685E-02
   1   14   14     1    14    1.1480E+05 -1.4297E+03   1.1623E+05  0.000E+00  0.000E+00  0.000E+00  4.22145E+01  1.577E-01  2.000E+01  2.000E+04 -7.148E-02
   1   13   15     1    15    1.1623E+05 -1.4719E+03   1.1771E+05  0.000E+00  0.000E+00  0.000E+00  4.17385E+01  1.589E-01  2.000E+01  2.000E+04 -7.360E-02
   1   12   16     1    16    1.1771E+05 -1.4137E+03   1.1912E+05  0.000E+00  0.000E+00  0.000E+00  4.12624E+01  1.601E-01  2.000E+01  2.000E+04 -7.069E-02
   1   12   17     1    17    1.1912E+05 -7.4637E+02   1.1987E+05  0.000E+00  0.000E+00  0.000E+00  4.07860E+01  1.610E-01  2.000E+01  2.000E+04 -3.732E-02
   1   12   18     1    18    1.1987E+05 -4.7383E+02   1.2034E+05  0.000E+00  0.000E+00  0.000E+00  4.03092E+01  1.615E-01  2.000E+01  2.000E+04 -2.369E-02
   1   12   19     1    19    1.2034E+05  3.5773E+02   1.1998E+05  0.000E+00  0.000E+00  0.000E+00  3.98320E+01  1.615E-01  2.000E+01  2.000E+04  1.789E-02
   1   13   20     1    20    1.1998E+05  9.4598E+02   1.1904E+05  0.000E+00  0.000E+00  0.000E+00  3.93542E+01  1.610E-01  2.000E+01  2.000E+04  4.730E-02
   1   14   21     1    21    1.1904E+05  2.7041E+01   1.1901E+05  0.000E+00  0.000E+00  0.000E+00  3.88765E+01  1.606E-01  2.000E+01  2.000E+04  1.352E-03
   1   14   22     1    22    1.1901E+05  6.3466E+03   1.1266E+05  0.000E+00  0.000E+00  0.000E+00  3.83966E+01  1.580E-01  2.000E+01  2.000E+04  3.173E-01
   1    9   30     2     1    5.0000E+04  7.7654E+01   4.9922E+04  0.000E+00  0.000E+00  0.000E+00  4.02408E+01  1.158E-01  2.000E+01  2.000E+04  3.883E-03
   1    9   29     2     2    4.9922E+04 -1.3444E+02   5.0057E+04  0.000E+00  0.000E+00  0.000E+00  3.99909E+01  1.159E-01  2.000E+01  2.000E+04 -6.722E-03
   1    9   28     2     3    5.0057E+04 -1.5468E+02   5.0211E+04  0.000E+00  0.000E+00  0.000E+00  3.97411E+01  1.161E-01  2.000E+01  2.000E+04 -7.734E-03
   1    9   27     2     4    5.0211E+04  1.1883E+02   5.0093E+04  0.000E+00  0.000E+00  0.000E+00  3.94911E+01  1.161E-01  2.000E+01  2.000E+04  5.942E-03
   1   10   26     2     5    5.0093E+04  1.0235E+03   4.9069E+04  0.000E+00  0.000E+00  0.000E+00  3.92403E+01  1.153E-01  2.000E+01  2.000E+04  5.117E-02
   1   11   25     2     6    4.9069E+04  2.2577E+03   4.6811E+04  0.000E+00  0.000E+00  0.000E+00  3.89880E+01  1.130E-01  2.000E+01  2.000E+04  1.129E-01
   1   12   24     2     7    4.6811E+04  3.6504E+03   4.3161E+04  0.000E+00  0.000E+00  0.000E+00  3.87337E+01  1.087E-01  2.000E+01  2.000E+04  1.825E-01
   1   13   23     2     8    4.3161E+04  1.0457E+03   4.2115E+04  0.000E+00  0.000E+00  0.000E+00  3.84803E+01  1.053E-01  2.000E+01  2.000E+04  5.229E-02
   1   14   22     2     9    4.2115E+04  2.9602E+03   3.9155E+04  0.000E+00  0.000E+00  0.000E+00  3.82273E+01  1.023E-01  2.000E+01  2.000E+04  1.480E-01
   1   14   22     3     1    1.5182E+05 -7.3462E+03   1.5916E+05  0.000E+00  0.000E+00  0.000E+00  3.77120E+01  1.564E-01  2.000E+01  2.000E+04 -3.673E-01
   1   15   23     3     2    1.5916E+05 -4.9596E+02   1.5966E+05  0.000E+00  0.000E+00  0.000E+00  3.68255E+01  1.588E-01  2.000E+01  2.000E+04 -2.480E-02
   1   15   24     3     3    1.5966E+05 -2.4174E+02   1.5990E+05  0.000E+00  0.000E+00  0.000E+00  3.59368E+01  1.590E-01  2.000E+01  2.000E+04 -1.209E-02
   1   15   25     3     4    1.5990E+05 -2.3330E+02   1.6013E+05  0.000E+00  0.000E+00  0.000E+00  3.50480E+01  1.591E-01  2.000E+01  2.000E+04 -1.167E-02
   1   15   26     3     5    1.6013E+05 -2.8499E+02   1.6042E+05  0.000E+00  0.000E+00  0.000E+00  3.41593E+01  1.593E-01  2.000E+01  2.000E+04 -1.425E-02
   1   16   27     3     6    1.6042E+05 -3.1162E+02   1.6073E+05  0.000E+00  0.000E+00  0.000E+00  3.32706E+01  1.595E-01  2.000E+01  2.000E+04 -1.558E-02
   1   17   28     3     7    1.6073E+05 -1.4093E+03   1.6214E+05  0.000E+00  0.000E+00  0.000E+00  3.23822E+01  1.600E-01  2.000E+01  2.000E+04 -7.047E-02
   1   18   29     3     8    1.6214E+05 -2.7508E+03   1.6489E+05  0.000E+00  0.000E+00  0.000E+00  3.14946E+01  1.612E-01  2.000E+01  2.000E+04 -1.375E-01
   1   18   30     3     9    1.6489E+05 -3.0601E+03   1.6795E+05  0.000E+00  0.000E+00  0.000E+00  3.06074E+01  1.629E-01  2.000E+01  2.000E+04 -1.530E-01



1
              HEAD IN LAYER   1 AT END OF TIME STEP   1 IN STRESS PERIOD    9
  ---------------------------------------------------------------------------

          1      2      3      4      5      6      7      8      9     10
         11     12     13     14     15     16     17     18     19     20
         21     22     23     24     25     26     27     28     29     30
 .........................................................................
   1  ****** ****** ****** ****** ****** ****** ****** ****** ****** ******
      ****** ****** ****** ****** ****** ****** ****** ****** ****** ******
      ****** ****** ****** ****** ****** ****** ****** ****** ****** ******
   2  ****** ****** ****** ****** ****** ****** ****** ****** ****** ******
      ****** ****** ****** ****** ****** ****** ****** ****** ****** ******
      ****** ****** ****** ****** ****** ****** ****** ****** ****** ******
   3  ****** ****** ****** ****** ****** ****** ****** ****** ****** ******
      ****** ****** ****** ****** ****** ****** ****** ****** ****** ******
      ****** ****** ****** ****** ****** ****** ****** ****** ****** ******
   4  ****** ****** ****** ****** ****** ****** ****** ****** ****** ******
      ****** ****** ****** ****** ****** ****** ****** ****** ****** ******
      ****** ****** ****** ****** ****** ****** ****** ****** ****** ******
   5  ****** ****** ****** ****** ****** ****** ****** ****** ****** ******
      ****** ****** ****** ****** ****** ****** ****** ****** ****** ******
      ****** ****** ****** ****** ****** ****** ****** ****** ****** ******
   6  ****** ****** ****** ****** ****** ****** ****** ****** ****** ******
      ****** ****** ****** ****** ****** ****** ****** ****** ****** ******
      ****** ****** ****** ****** ****** ****** ****** ****** ****** ******
   7  ****** ****** ****** ****** ****** ****** ****** ****** ****** ******
      ****** ****** ****** ****** ****** ****** ****** ****** ****** ******
      ****** ****** ****** ****** ****** ****** ****** ****** ****** ******
   8  ****** ****** ****** ****** ****** ****** ****** ****** ****** ******
      ****** ****** ****** ****** ****** ****** ****** ****** ****** ******
      ****** ****** ****** ****** ****** ****** ****** ****** ****** ******
   9  ****** ****** ****** ****** ****** ****** ****** ****** ****** ******
      ****** ****** ****** ****** ****** ****** ****** ****** ****** ******
      ****** ****** ****** ****** ****** ****** ****** ****** ****** ******
  10  ****** ****** ****** ****** ****** ****** ****** ****** ****** ******
      ****** ****** ****** ****** ****** ****** ****** ****** ****** ******
      ****** ****** ****** ****** ****** ****** ****** ****** ****** ******
  11  ****** ****** ****** ****** ****** ****** ****** ****** ****** ******
      ****** ****** ****** ****** ****** ****** ****** ****** ****** ******
      ****** ****** ****** ****** ****** ****** ****** ****** ****** ******
  12  ****** ****** ****** ****** ****** ****** ****** ****** ****** ******
      ****** ****** ****** ****** ****** ****** ****** ****** ****** ******
      ****** ****** ****** ****** ****** ****** ****** ****** ****** ******
  13  ****** ****** ****** ****** ****** ****** ****** ****** ****** ******
      ****** ****** ****** ****** ****** ****** ****** ****** ****** ******
      ****** ****** ****** ****** ****** ****** ****** ****** ****** ******
  14  ****** ****** ****** ****** ****** ****** ****** ****** ****** ******
      ****** ****** ****** ****** ****** ****** ****** ****** ****** ******
      ****** ****** ****** ****** ****** ****** ****** ****** ****** ******
  15  ****** ****** ****** ****** ****** ****** ****** ****** ****** ******
      ****** ****** ****** ****** ****** ****** ****** ****** ****** ******
      ****** ****** ****** ****** ****** ****** ****** ****** ****** ******
  16  ****** ****** ****** ****** ****** ****** ****** ****** ****** ******
      ****** ****** ****** ****** ****** ****** ****** ****** ****** ******
      ****** ****** ****** ****** ****** ****** ****** ****** ****** ******
  17  ****** ****** ****** ****** ****** ****** ****** ****** ****** ******
      ****** ****** ****** ****** ****** ****** ****** ****** ****** ******
      ****** ****** ****** ****** ****** ****** ****** ****** ****** ******
  18  ****** ****** ****** ****** ****** ****** ****** ****** ****** ******
      ****** ****** ****** ****** ****** ****** ****** ****** ****** ******
      ****** ****** ****** ****** ****** ****** ****** ****** ****** ******
  19  ****** ****** ****** ****** ****** ****** ****** ****** ****** ******
      ****** ****** ****** ****** ****** ****** ****** ****** ****** ******
      ****** ****** ****** ****** ****** ****** ****** ****** ****** ******
  20  ****** ****** ****** ****** ****** ****** ****** ****** ****** ******
      ****** ****** ****** ****** ****** ****** ****** ****** ****** ******
      ****** ****** ****** ****** ****** ****** ****** ****** ****** ******
  21  ****** ****** ****** ****** ****** ****** ****** ****** ****** ******
      ****** ****** ****** ****** ****** ****** ****** ****** ****** ******
      ****** ****** ****** ****** ****** ****** ****** ****** ****** ******
  22  ****** ****** ****** ****** ****** ****** ****** ****** ****** ******
      ****** ****** ****** ****** ****** ****** ****** ****** ****** ******
      ****** ****** ****** ****** ****** ****** ****** ****** ****** ******
  23  ****** ****** ****** ****** ****** ****** ****** ****** ****** ******
      ****** ****** ****** ****** ****** ****** ****** ****** ****** ******
      ****** ****** ****** ****** ****** ****** ****** ****** ****** ******
  24  ****** ****** ****** ****** ****** ****** ****** ****** ****** ******
      ****** ****** ****** ****** ****** ****** ****** ****** ****** ******
      ****** ****** ****** ****** ****** ****** ****** ****** ****** ******
  25  ****** ****** ****** ****** ****** ****** ****** ****** ****** ******
      ****** ****** ****** ****** ****** ****** ****** ****** ****** ******
      ****** ****** ****** ****** ****** ****** ****** ****** ****** ******

 HEAD WILL BE SAVED ON UNIT   51 AT END OF TIME STEP    1, STRESS PERIOD    9
1
  VOLUMETRIC BUDGET FOR ENTIRE MODEL AT END OF TIME STEP    1, STRESS PERIOD   9
  ------------------------------------------------------------------------------

     CUMULATIVE VOLUMES      L**3       RATES FOR THIS TIME STEP      L**3/T
     ------------------                 ------------------------

           IN:                                      IN:
           ---                                      ---
             STORAGE =    34369417.0746               STORAGE =        7316.7700
       CONSTANT HEAD =    22860147.5788         CONSTANT HEAD =       34947.2229
               WELLS =           0.0000                 WELLS =           0.0000
            RECHARGE =    18878400.0000              RECHARGE =       13800.0000
      STREAM LEAKAGE =    12229540.9105        STREAM LEAKAGE =       18811.2769

            TOTAL IN =    88337505.5639              TOTAL IN =       74875.2698

          OUT:                                     OUT:
          ----                                     ----
             STORAGE =      914635.1389               STORAGE =           0.0000
       CONSTANT HEAD =           0.0000         CONSTANT HEAD =           0.0000
               WELLS =    31328849.3441                 WELLS =       38112.9554
            RECHARGE =           0.0000              RECHARGE =           0.0000
      STREAM LEAKAGE =    56094022.8958        STREAM LEAKAGE =       36762.3152

           TOTAL OUT =    88337507.3787             TOTAL OUT =       74875.2706

            IN - OUT =          -1.8148              IN - OUT =      -7.6768E-04

 PERCENT DISCREPANCY =          -0.00     PERCENT DISCREPANCY =          -0.00






         TIME SUMMARY AT END OF TIME STEP    1 IN STRESS PERIOD    9
                    SECONDS     MINUTES      HOURS       DAYS        YEARS
                    -----------------------------------------------------------
   TIME STEP LENGTH 7.94880E+06 1.32480E+05  2208.0      92.000     0.25188    
 STRESS PERIOD TIME 7.94880E+06 1.32480E+05  2208.0      92.000     0.25188    
         TOTAL TIME 7.10208E+07 1.18368E+06  19728.      822.00      2.2505    
1
1
                            STRESS PERIOD NO.   10, LENGTH =   91.00000    
                            -----------------------------------------------

                              NUMBER OF TIME STEPS =     1

                               MULTIPLIER FOR DELT =     1.500

                            INITIAL TIME STEP SIZE =   91.00000    

 WELL NO.  LAYER   ROW   COL   STRESS RATE         
 --------------------------------------------------
      1      1     11     23      -9982.    
      2      1     13     22      -7684.    
      3      1      6     18      -7790.    
      4      1      7     23     -0.1266E+05

      4 WELLS

                 RECHARGE =  2.000000E-03

 REUSING STREAM SEGMENT DATA FROM LAST STRESS PERIOD
 
 SOLVING FOR HEAD 


     7 CALLS TO PCG ROUTINE FOR TIME STEP   1 IN STRESS PERIOD   10
    26 TOTAL ITERATIONS

 OUTPUT CONTROL FOR STRESS PERIOD   10   TIME STEP    1
    SAVE BUDGET
    SAVE HEAD FOR ALL LAYERS
    PRINT HEAD FOR ALL LAYERS
 UBDSV2 SAVING "STREAMFLOW OUT  " ON UNIT  50 AT TIME STEP  1, STRESS PERIOD  10



 STREAM LISTING     PERIOD     10   STEP        1

 LAYER ROW COL. STREAM  RCH.  FLOW INTO     FLOW TO   FLOW OUT OF   OVRLND.     DIRECT     STREAM       STREAM     STREAM     STREAM   STREAMBED  STREAMBED
                SEG.NO.  NO.  STRM. RCH.    AQUIFER    STRM. RCH.    RUNOFF     PRECIP       ET          HEAD       DEPTH      WIDTH   CONDCTNC.   GRADIENT

   1   13    1     1     1    1.0000E+05 -1.9936E+03   1.0199E+05  0.000E+00  0.000E+00  0.000E+00  4.84069E+01  1.455E-01  2.000E+01  2.000E+04 -9.968E-02
   1   13    2     1     2    1.0199E+05 -2.9726E+03   1.0497E+05  0.000E+00  0.000E+00  0.000E+00  4.79317E+01  1.477E-01  2.000E+01  2.000E+04 -1.486E-01
   1   14    3     1     3    1.0497E+05 -5.8199E+02   1.0555E+05  0.000E+00  0.000E+00  0.000E+00  4.74560E+01  1.492E-01  2.000E+01  2.000E+04 -2.910E-02
   1   15    4     1     4    1.0555E+05 -5.7029E+02   1.0612E+05  0.000E+00  0.000E+00  0.000E+00  4.69792E+01  1.497E-01  2.000E+01  2.000E+04 -2.851E-02
   1   16    5     1     5    1.0612E+05 -2.0998E+03   1.0822E+05  0.000E+00  0.000E+00  0.000E+00  4.65031E+01  1.508E-01  2.000E+01  2.000E+04 -1.050E-01
   1   16    6     1     6    1.0822E+05 -1.3062E+03   1.0952E+05  0.000E+00  0.000E+00  0.000E+00  4.60272E+01  1.522E-01  2.000E+01  2.000E+04 -6.531E-02
   1   16    7     1     7    1.0952E+05 -1.2764E+03   1.1080E+05  0.000E+00  0.000E+00  0.000E+00  4.55510E+01  1.533E-01  2.000E+01  2.000E+04 -6.382E-02
   1   16    8     1     8    1.1080E+05 -1.2722E+03   1.1207E+05  0.000E+00  0.000E+00  0.000E+00  4.50748E+01  1.544E-01  2.000E+01  2.000E+04 -6.361E-02
   1   16    9     1     9    1.1207E+05 -1.2696E+03   1.1334E+05  0.000E+00  0.000E+00  0.000E+00  4.45986E+01  1.554E-01  2.000E+01  2.000E+04 -6.348E-02
   1   16   10     1    10    1.1334E+05 -1.2671E+03   1.1461E+05  0.000E+00  0.000E+00  0.000E+00  4.41224E+01  1.565E-01  2.000E+01  2.000E+04 -6.336E-02
   1   16   11     1    11    1.1461E+05 -1.2857E+03   1.1590E+05  0.000E+00  0.000E+00  0.000E+00  4.36461E+01  1.575E-01  2.000E+01  2.000E+04 -6.428E-02
   1   16   12     1    12    1.1590E+05 -2.1547E+03   1.1805E+05  0.000E+00  0.000E+00  0.000E+00  4.31703E+01  1.589E-01  2.000E+01  2.000E+04 -1.077E-01
   1   15   13     1    13    1.1805E+05 -1.9227E+03   1.1997E+05  0.000E+00  0.000E+00  0.000E+00  4.26947E+01  1.606E-01  2.000E+01  2.000E+04 -9.613E-02
   1   14   14     1    14    1.1997E+05 -2.0219E+03   1.2199E+05  0.000E+00  0.000E+00  0.000E+00  4.22190E+01  1.622E-01  2.000E+01  2.000E+04 -1.011E-01
   1   13   15     1    15    1.2199E+05 -2.0536E+03   1.2405E+05  0.000E+00  0.000E+00  0.000E+00  4.17433E+01  1.638E-01  2.000E+01  2.000E+04 -1.027E-01
   1   12   16     1    16    1.2405E+05 -1.9727E+03   1.2602E+05  0.000E+00  0.000E+00  0.000E+00  4.12677E+01  1.654E-01  2.000E+01  2.000E+04 -9.864E-02
   1   12   17     1    17    1.2602E+05 -1.1705E+03   1.2719E+05  0.000E+00  0.000E+00  0.000E+00  4.07916E+01  1.666E-01  2.000E+01  2.000E+04 -5.852E-02
   1   12   18     1    18    1.2719E+05 -8.9404E+02   1.2809E+05  0.000E+00  0.000E+00  0.000E+00  4.03152E+01  1.675E-01  2.000E+01  2.000E+04 -4.470E-02
   1   12   19     1    19    1.2809E+05 -1.5926E+02   1.2824E+05  0.000E+00  0.000E+00  0.000E+00  3.98383E+01  1.679E-01  2.000E+01  2.000E+04 -7.963E-03
   1   13   20     1    20    1.2824E+05  4.2496E+02   1.2782E+05  0.000E+00  0.000E+00  0.000E+00  3.93610E+01  1.678E-01  2.000E+01  2.000E+04  2.125E-02
   1   14   21     1    21    1.2782E+05 -4.9883E+02   1.2832E+05  0.000E+00  0.000E+00  0.000E+00  3.88837E+01  1.678E-01  2.000E+01  2.000E+04 -2.494E-02
   1   14   22     1    22    1.2832E+05  6.2145E+03   1.2210E+05  0.000E+00  0.000E+00  0.000E+00  3.84042E+01  1.655E-01  2.000E+01  2.000E+04  3.107E-01
   1    9   30     2     1    5.0000E+04 -3.3593E+02   5.0336E+04  0.000E+00  0.000E+00  0.000E+00  4.02411E+01  1.161E-01  2.000E+01  2.000E+04 -1.680E-02
   1    9   29     2     2    5.0336E+04 -5.4570E+02   5.0882E+04  0.000E+00  0.000E+00  0.000E+00  3.99917E+01  1.167E-01  2.000E+01  2.000E+04 -2.728E-02
   1    9   28     2     3    5.0882E+04 -5.6502E+02   5.1447E+04  0.000E+00  0.000E+00  0.000E+00  3.97425E+01  1.175E-01  2.000E+01  2.000E+04 -2.825E-02
   1    9   27     2     4    5.1447E+04 -4.3253E+02   5.1879E+04  0.000E+00  0.000E+00  0.000E+00  3.94932E+01  1.182E-01  2.000E+01  2.000E+04 -2.163E-02
   1   10   26     2     5    5.1879E+04  4.7178E+02   5.1407E+04  0.000E+00  0.000E+00  0.000E+00  3.92431E+01  1.181E-01  2.000E+01  2.000E+04  2.359E-02
   1   11   25     2     6    5.1407E+04  1.7304E+03   4.9677E+04  0.000E+00  0.000E+00  0.000E+00  3.89916E+01  1.166E-01  2.000E+01  2.000E+04  8.652E-02
   1   12   24     2     7    4.9677E+04  3.1734E+03   4.6504E+04  0.000E+00  0.000E+00  0.000E+00  3.87382E+01  1.132E-01  2.000E+01  2.000E+04  1.587E-01
   1   13   23     2     8    4.6504E+04  8.9728E+02   4.5606E+04  0.000E+00  0.000E+00  0.000E+00  3.84853E+01  1.103E-01  2.000E+01  2.000E+04  4.486E-02
   1   14   22     2     9    4.5606E+04  2.7834E+03   4.2823E+04  0.000E+00  0.000E+00  0.000E+00  3.82326E+01  1.076E-01  2.000E+01  2.000E+04  1.392E-01
   1   14   22     3     1    1.6493E+05 -7.4729E+03   1.7240E+05  0.000E+00  0.000E+00  0.000E+00  3.77198E+01  1.643E-01  2.000E+01  2.000E+04 -3.736E-01
   1   15   23     3     2    1.7240E+05 -6.5872E+02   1.7306E+05  0.000E+00  0.000E+00  0.000E+00  3.68333E+01  1.666E-01  2.000E+01  2.000E+04 -3.294E-02
   1   15   24     3     3    1.7306E+05 -3.7905E+02   1.7344E+05  0.000E+00  0.000E+00  0.000E+00  3.59447E+01  1.669E-01  2.000E+01  2.000E+04 -1.895E-02
   1   15   25     3     4    1.7344E+05 -3.7401E+02   1.7381E+05  0.000E+00  0.000E+00  0.000E+00  3.50560E+01  1.671E-01  2.000E+01  2.000E+04 -1.870E-02
   1   15   26     3     5    1.7381E+05 -4.4730E+02   1.7426E+05  0.000E+00  0.000E+00  0.000E+00  3.41674E+01  1.674E-01  2.000E+01  2.000E+04 -2.236E-02
   1   16   27     3     6    1.7426E+05 -4.9762E+02   1.7476E+05  0.000E+00  0.000E+00  0.000E+00  3.32788E+01  1.676E-01  2.000E+01  2.000E+04 -2.488E-02
   1   17   28     3     7    1.7476E+05 -1.9305E+03   1.7669E+05  0.000E+00  0.000E+00  0.000E+00  3.23906E+01  1.683E-01  2.000E+01  2.000E+04 -9.652E-02
   1   18   29     3     8    1.7669E+05 -3.3033E+03   1.7999E+05  0.000E+00  0.000E+00  0.000E+00  3.15032E+01  1.698E-01  2.000E+01  2.000E+04 -1.652E-01
   1   18   30     3     9    1.7999E+05 -3.4862E+03   1.8348E+05  0.000E+00  0.000E+00  0.000E+00  3.06162E+01  1.718E-01  2.000E+01  2.000E+04 -1.743E-01



1
              HEAD IN LAYER   1 AT END OF TIME STEP   1 IN STRESS PERIOD   10
  ---------------------------------------------------------------------------

          1      2      3      4      5      6      7      8      9     10
         11     12     13     14     15     16     17     18     19     20
         21     22     23     24     25     26     27     28     29     30
 .........................................................................
   1  ****** ****** ****** ****** ****** ****** ****** ****** ****** ******
      ****** ****** ****** ****** ****** ****** ****** ****** ****** ******
      ****** ****** ****** ****** ****** ****** ****** ****** ****** ******
   2  ****** ****** ****** ****** ****** ****** ****** ****** ****** ******
      ****** ****** ****** ****** ****** ****** ****** ****** ****** ******
      ****** ****** ****** ****** ****** ****** ****** ****** ****** ******
   3  ****** ****** ****** ****** ****** ****** ****** ****** ****** ******
      ****** ****** ****** ****** ****** ****** ****** ****** ****** ******
      ****** ****** ****** ****** ****** ****** ****** ****** ****** ******
   4  ****** ****** ****** ****** ****** ****** ****** ****** ****** ******
      ****** ****** ****** ****** ****** ****** ****** ****** ****** ******
      ****** ****** ****** ****** ****** ****** ****** ****** ****** ******
   5  ****** ****** ****** ****** ****** ****** ****** ****** ****** ******
      ****** ****** ****** ****** ****** ****** ****** ****** ****** ******
      ****** ****** ****** ****** ****** ****** ****** ****** ****** ******
   6  ****** ****** ****** ****** ****** ****** ****** ****** ****** ******
      ****** ****** ****** ****** ****** ****** ****** ****** ****** ******
      ****** ****** ****** ****** ****** ****** ****** ****** ****** ******
   7  ****** ****** ****** ****** ****** ****** ****** ****** ****** ******
      ****** ****** ****** ****** ****** ****** ****** ****** ****** ******
      ****** ****** ****** ****** ****** ****** ****** ****** ****** ******
   8  ****** ****** ****** ****** ****** ****** ****** ****** ****** ******
      ****** ****** ****** ****** ****** ****** ****** ****** ****** ******
      ****** ****** ****** ****** ****** ****** ****** ****** ****** ******
   9  ****** ****** ****** ****** ****** ****** ****** ****** ****** ******
      ****** ****** ****** ****** ****** ****** ****** ****** ****** ******
      ****** ****** ****** ****** ****** ****** ****** ****** ****** ******
  10  ****** ****** ****** ****** ****** ****** ****** ****** ****** ******
      ****** ****** ****** ****** ****** ****** ****** ****** ****** ******
      ****** ****** ****** ****** ****** ****** ****** ****** ****** ******
  11  ****** ****** ****** ****** ****** ****** ****** ****** ****** ******
      ****** ****** ****** ****** ****** ****** ****** ****** ****** ******
      ****** ****** ****** ****** ****** ****** ****** ****** ****** ******
  12  ****** ****** ****** ****** ****** ****** ****** ****** ****** ******
      ****** ****** ****** ****** ****** ****** ****** ****** ****** ******
      ****** ****** ****** ****** ****** ****** ****** ****** ****** ******
  13  ****** ****** ****** ****** ****** ****** ****** ****** ****** ******
      ****** ****** ****** ****** ****** ****** ****** ****** ****** ******
      ****** ****** ****** ****** ****** ****** ****** ****** ****** ******
  14  ****** ****** ****** ****** ****** ****** ****** ****** ****** ******
      ****** ****** ****** ****** ****** ****** ****** ****** ****** ******
      ****** ****** ****** ****** ****** ****** ****** ****** ****** ******
  15  ****** ****** ****** ****** ****** ****** ****** ****** ****** ******
      ****** ****** ****** ****** ****** ****** ****** ****** ****** ******
      ****** ****** ****** ****** ****** ****** ****** ****** ****** ******
  16  ****** ****** ****** ****** ****** ****** ****** ****** ****** ******
      ****** ****** ****** ****** ****** ****** ****** ****** ****** ******
      ****** ****** ****** ****** ****** ****** ****** ****** ****** ******
  17  ****** ****** ****** ****** ****** ****** ****** ****** ****** ******
      ****** ****** ****** ****** ****** ****** ****** ****** ****** ******
      ****** ****** ****** ****** ****** ****** ****** ****** ****** ******
  18  ****** ****** ****** ****** ****** ****** ****** ****** ****** ******
      ****** ****** ****** ****** ****** ****** ****** ****** ****** ******
      ****** ****** ****** ****** ****** ****** ****** ****** ****** ******
  19  ****** ****** ****** ****** ****** ****** ****** ****** ****** ******
      ****** ****** ****** ****** ****** ****** ****** ****** ****** ******
      ****** ****** ****** ****** ****** ****** ****** ****** ****** ******
  20  ****** ****** ****** ****** ****** ****** ****** ****** ****** ******
      ****** ****** ****** ****** ****** ****** ****** ****** ****** ******
      ****** ****** ****** ****** ****** ****** ****** ****** ****** ******
  21  ****** ****** ****** ****** ****** ****** ****** ****** ****** ******
      ****** ****** ****** ****** ****** ****** ****** ****** ****** ******
      ****** ****** ****** ****** ****** ****** ****** ****** ****** ******
  22  ****** ****** ****** ****** ****** ****** ****** ****** ****** ******
      ****** ****** ****** ****** ****** ****** ****** ****** ****** ******
      ****** ****** ****** ****** ****** ****** ****** ****** ****** ******
  23  ****** ****** ****** ****** ****** ****** ****** ****** ****** ******
      ****** ****** ****** ****** ****** ****** ****** ****** ****** ******
      ****** ****** ****** ****** ****** ****** ****** ****** ****** ******
  24  ****** ****** ****** ****** ****** ****** ****** ****** ****** ******
      ****** ****** ****** ****** ****** ****** ****** ****** ****** ******
      ****** ****** ****** ****** ****** ****** ****** ****** ****** ******
  25  ****** ****** ****** ****** ****** ****** ****** ****** ****** ******
      ****** ****** ****** ****** ****** ****** ****** ****** ****** ******
      ****** ****** ****** ****** ****** ****** ****** ****** ****** ******

 HEAD WILL BE SAVED ON UNIT   51 AT END OF TIME STEP    1, STRESS PERIOD   10
1
  VOLUMETRIC BUDGET FOR ENTIRE MODEL AT END OF TIME STEP    1, STRESS PERIOD  10
  ------------------------------------------------------------------------------

     CUMULATIVE VOLUMES      L**3       RATES FOR THIS TIME STEP      L**3/T
     ------------------                 ------------------------

           IN:                                      IN:
           ---                                      ---
             STORAGE =    34369417.0746               STORAGE =           0.0000
       CONSTANT HEAD =    25772393.3271         CONSTANT HEAD =       32002.7005
               WELLS =           0.0000                 WELLS =           0.0000
            RECHARGE =    23901600.0000              RECHARGE =       55200.0000
      STREAM LEAKAGE =    13657852.3436        STREAM LEAKAGE =       15695.7300

            TOTAL IN =    97701262.7453              TOTAL IN =      102898.4306

          OUT:                                     OUT:
          ----                                     ----
             STORAGE =     2335426.4304               STORAGE =       15613.0911
       CONSTANT HEAD =           0.0000         CONSTANT HEAD =           0.0000
               WELLS =    34797128.2861                 WELLS =       38112.9554
            RECHARGE =           0.0000              RECHARGE =           0.0000
      STREAM LEAKAGE =    60568709.5060        STREAM LEAKAGE =       49172.3803

           TOTAL OUT =    97701264.2225             TOTAL OUT =      102898.4269

            IN - OUT =          -1.4773              IN - OUT =       3.7092E-03

 PERCENT DISCREPANCY =          -0.00     PERCENT DISCREPANCY =           0.00






         TIME SUMMARY AT END OF TIME STEP    1 IN STRESS PERIOD   10
                    SECONDS     MINUTES      HOURS       DAYS        YEARS
                    -----------------------------------------------------------
   TIME STEP LENGTH 7.86240E+06 1.31040E+05  2184.0      91.000     0.24914    
 STRESS PERIOD TIME 7.86240E+06 1.31040E+05  2184.0      91.000     0.24914    
         TOTAL TIME 7.88832E+07 1.31472E+06  21912.      913.00      2.4997    
1
1
                            STRESS PERIOD NO.   11, LENGTH =   91.00000    
                            -----------------------------------------------

                              NUMBER OF TIME STEPS =     1

                               MULTIPLIER FOR DELT =     1.500

                            INITIAL TIME STEP SIZE =   91.00000    

 WELL NO.  LAYER   ROW   COL   STRESS RATE         
 --------------------------------------------------
      1      1     11     23      -9982.    
      2      1     13     22      -7684.    
      3      1      6     18      -7790.    
      4      1      7     23     -0.1266E+05

      4 WELLS

                 RECHARGE =   0.00000    

 REUSING STREAM SEGMENT DATA FROM LAST STRESS PERIOD
 
 SOLVING FOR HEAD 


     7 CALLS TO PCG ROUTINE FOR TIME STEP   1 IN STRESS PERIOD   11
    26 TOTAL ITERATIONS

 OUTPUT CONTROL FOR STRESS PERIOD   11   TIME STEP    1
    SAVE BUDGET
    SAVE HEAD FOR ALL LAYERS
    PRINT HEAD FOR ALL LAYERS
 UBDSV2 SAVING "STREAMFLOW OUT  " ON UNIT  50 AT TIME STEP  1, STRESS PERIOD  11



 STREAM LISTING     PERIOD     11   STEP        1

 LAYER ROW COL. STREAM  RCH.  FLOW INTO     FLOW TO   FLOW OUT OF   OVRLND.     DIRECT     STREAM       STREAM     STREAM     STREAM   STREAMBED  STREAMBED
                SEG.NO.  NO.  STRM. RCH.    AQUIFER    STRM. RCH.    RUNOFF     PRECIP       ET          HEAD       DEPTH      WIDTH   CONDCTNC.   GRADIENT

   1   13    1     1     1    1.0000E+05 -1.4237E+03   1.0142E+05  0.000E+00  0.000E+00  0.000E+00  4.84066E+01  1.453E-01  2.000E+01  2.000E+04 -7.118E-02
   1   13    2     1     2    1.0142E+05 -2.3379E+03   1.0376E+05  0.000E+00  0.000E+00  0.000E+00  4.79310E+01  1.469E-01  2.000E+01  2.000E+04 -1.169E-01
   1   14    3     1     3    1.0376E+05 -3.5074E+02   1.0411E+05  0.000E+00  0.000E+00  0.000E+00  4.74549E+01  1.480E-01  2.000E+01  2.000E+04 -1.754E-02
   1   15    4     1     4    1.0411E+05 -3.2813E+02   1.0444E+05  0.000E+00  0.000E+00  0.000E+00  4.69779E+01  1.483E-01  2.000E+01  2.000E+04 -1.641E-02
   1   16    5     1     5    1.0444E+05 -1.4121E+03   1.0585E+05  0.000E+00  0.000E+00  0.000E+00  4.65013E+01  1.491E-01  2.000E+01  2.000E+04 -7.060E-02
   1   16    6     1     6    1.0585E+05 -8.9180E+02   1.0674E+05  0.000E+00  0.000E+00  0.000E+00  4.60251E+01  1.501E-01  2.000E+01  2.000E+04 -4.459E-02
   1   16    7     1     7    1.0674E+05 -8.7961E+02   1.0762E+05  0.000E+00  0.000E+00  0.000E+00  4.55485E+01  1.508E-01  2.000E+01  2.000E+04 -4.398E-02
   1   16    8     1     8    1.0762E+05 -8.8092E+02   1.0850E+05  0.000E+00  0.000E+00  0.000E+00  4.50720E+01  1.515E-01  2.000E+01  2.000E+04 -4.405E-02
   1   16    9     1     9    1.0850E+05 -8.8053E+02   1.0939E+05  0.000E+00  0.000E+00  0.000E+00  4.45955E+01  1.523E-01  2.000E+01  2.000E+04 -4.403E-02
   1   16   10     1    10    1.0939E+05 -8.7924E+02   1.1026E+05  0.000E+00  0.000E+00  0.000E+00  4.41189E+01  1.530E-01  2.000E+01  2.000E+04 -4.396E-02
   1   16   11     1    11    1.1026E+05 -8.9613E+02   1.1116E+05  0.000E+00  0.000E+00  0.000E+00  4.36424E+01  1.538E-01  2.000E+01  2.000E+04 -4.481E-02
   1   16   12     1    12    1.1116E+05 -1.5091E+03   1.1267E+05  0.000E+00  0.000E+00  0.000E+00  4.31661E+01  1.548E-01  2.000E+01  2.000E+04 -7.546E-02
   1   15   13     1    13    1.1267E+05 -1.2336E+03   1.1390E+05  0.000E+00  0.000E+00  0.000E+00  4.26900E+01  1.559E-01  2.000E+01  2.000E+04 -6.168E-02
   1   14   14     1    14    1.1390E+05 -1.3146E+03   1.1522E+05  0.000E+00  0.000E+00  0.000E+00  4.22138E+01  1.569E-01  2.000E+01  2.000E+04 -6.573E-02
   1   13   15     1    15    1.1522E+05 -1.3514E+03   1.1657E+05  0.000E+00  0.000E+00  0.000E+00  4.17376E+01  1.580E-01  2.000E+01  2.000E+04 -6.757E-02
   1   12   16     1    16    1.1657E+05 -1.2934E+03   1.1786E+05  0.000E+00  0.000E+00  0.000E+00  4.12614E+01  1.591E-01  2.000E+01  2.000E+04 -6.467E-02
   1   12   17     1    17    1.1786E+05 -6.6275E+02   1.1853E+05  0.000E+00  0.000E+00  0.000E+00  4.07849E+01  1.599E-01  2.000E+01  2.000E+04 -3.314E-02
   1   12   18     1    18    1.1853E+05 -3.9415E+02   1.1892E+05  0.000E+00  0.000E+00  0.000E+00  4.03081E+01  1.603E-01  2.000E+01  2.000E+04 -1.971E-02
   1   12   19     1    19    1.1892E+05  4.5446E+02   1.1847E+05  0.000E+00  0.000E+00  0.000E+00  3.98308E+01  1.603E-01  2.000E+01  2.000E+04  2.272E-02
   1   13   20     1    20    1.1847E+05  1.0375E+03   1.1743E+05  0.000E+00  0.000E+00  0.000E+00  3.93529E+01  1.597E-01  2.000E+01  2.000E+04  5.188E-02
   1   14   21     1    21    1.1743E+05  9.7860E+01   1.1733E+05  0.000E+00  0.000E+00  0.000E+00  3.88752E+01  1.592E-01  2.000E+01  2.000E+04  4.893E-03
   1   14   22     1    22    1.1733E+05  6.3669E+03   1.1096E+05  0.000E+00  0.000E+00  0.000E+00  3.83952E+01  1.566E-01  2.000E+01  2.000E+04  3.183E-01
   1    9   30     2     1    5.0000E+04  1.5246E+02   4.9848E+04  0.000E+00  0.000E+00  0.000E+00  4.02408E+01  1.158E-01  2.000E+01  2.000E+04  7.623E-03
   1    9   29     2     2    4.9848E+04 -6.0333E+01   4.9908E+04  0.000E+00  0.000E+00  0.000E+00  3.99907E+01  1.157E-01  2.000E+01  2.000E+04 -3.017E-03
   1    9   28     2     3    4.9908E+04 -8.1775E+01   4.9990E+04  0.000E+00  0.000E+00  0.000E+00  3.97408E+01  1.158E-01  2.000E+01  2.000E+04 -4.089E-03
   1    9   27     2     4    4.9990E+04  2.0804E+02   4.9782E+04  0.000E+00  0.000E+00  0.000E+00  3.94907E+01  1.157E-01  2.000E+01  2.000E+04  1.040E-02
   1   10   26     2     5    4.9782E+04  1.1266E+03   4.8655E+04  0.000E+00  0.000E+00  0.000E+00  3.92398E+01  1.148E-01  2.000E+01  2.000E+04  5.633E-02
   1   11   25     2     6    4.8655E+04  2.3613E+03   4.6294E+04  0.000E+00  0.000E+00  0.000E+00  3.89873E+01  1.123E-01  2.000E+01  2.000E+04  1.181E-01
   1   12   24     2     7    4.6294E+04  3.7471E+03   4.2547E+04  0.000E+00  0.000E+00  0.000E+00  3.87329E+01  1.079E-01  2.000E+01  2.000E+04  1.874E-01
   1   13   23     2     8    4.2547E+04  1.0831E+03   4.1464E+04  0.000E+00  0.000E+00  0.000E+00  3.84794E+01  1.044E-01  2.000E+01  2.000E+04  5.416E-02
   1   14   22     2     9    4.1464E+04  2.9881E+03   3.8475E+04  0.000E+00  0.000E+00  0.000E+00  3.82263E+01  1.013E-01  2.000E+01  2.000E+04  1.494E-01
   1   14   22     3     1    1.4944E+05 -7.3271E+03   1.5677E+05  0.000E+00  0.000E+00  0.000E+00  3.77105E+01  1.550E-01  2.000E+01  2.000E+04 -3.664E-01
   1   15   23     3     2    1.5677E+05 -4.6686E+02   1.5723E+05  0.000E+00  0.000E+00  0.000E+00  3.68240E+01  1.573E-01  2.000E+01  2.000E+04 -2.334E-02
   1   15   24     3     3    1.5723E+05 -2.1403E+02   1.5745E+05  0.000E+00  0.000E+00  0.000E+00  3.59353E+01  1.575E-01  2.000E+01  2.000E+04 -1.070E-02
   1   15   25     3     4    1.5745E+05 -2.0516E+02   1.5765E+05  0.000E+00  0.000E+00  0.000E+00  3.50466E+01  1.577E-01  2.000E+01  2.000E+04 -1.026E-02
   1   15   26     3     5    1.5765E+05 -2.5170E+02   1.5790E+05  0.000E+00  0.000E+00  0.000E+00  3.41578E+01  1.578E-01  2.000E+01  2.000E+04 -1.258E-02
   1   16   27     3     6    1.5790E+05 -2.7475E+02   1.5818E+05  0.000E+00  0.000E+00  0.000E+00  3.32691E+01  1.580E-01  2.000E+01  2.000E+04 -1.374E-02
   1   17   28     3     7    1.5818E+05 -1.3212E+03   1.5950E+05  0.000E+00  0.000E+00  0.000E+00  3.23807E+01  1.584E-01  2.000E+01  2.000E+04 -6.606E-02
   1   18   29     3     8    1.5950E+05 -2.6823E+03   1.6218E+05  0.000E+00  0.000E+00  0.000E+00  3.14930E+01  1.596E-01  2.000E+01  2.000E+04 -1.341E-01
   1   18   30     3     9    1.6218E+05 -2.9975E+03   1.6518E+05  0.000E+00  0.000E+00  0.000E+00  3.06058E+01  1.613E-01  2.000E+01  2.000E+04 -1.499E-01



1
              HEAD IN LAYER   1 AT END OF TIME STEP   1 IN STRESS PERIOD   11
  ---------------------------------------------------------------------------

          1      2      3      4      5      6      7      8      9     10
         11     12     13     14     15     16     17     18     19     20
         21     22     23     24     25     26     27     28     29     30
 .........................................................................
   1  ****** ****** ****** ****** ****** ****** ****** ****** ****** ******
      ****** ****** ****** ****** ****** ****** ****** ****** ****** ******
      ****** ****** ****** ****** ****** ****** ****** ****** ****** ******
   2  ****** ****** ****** ****** ****** ****** ****** ****** ****** ******
      ****** ****** ****** ****** ****** ****** ****** ****** ****** ******
      ****** ****** ****** ****** ****** ****** ****** ****** ****** ******
   3  ****** ****** ****** ****** ****** ****** ****** ****** ****** ******
      ****** ****** ****** ****** ****** ****** ****** ****** ****** ******
      ****** ****** ****** ****** ****** ****** ****** ****** ****** ******
   4  ****** ****** ****** ****** ****** ****** ****** ****** ****** ******
      ****** ****** ****** ****** ****** ****** ****** ****** ****** ******
      ****** ****** ****** ****** ****** ****** ****** ****** ****** ******
   5  ****** ****** ****** ****** ****** ****** ****** ****** ****** ******
      ****** ****** ****** ****** ****** ****** ****** ****** ****** ******
      ****** ****** ****** ****** ****** ****** ****** ****** ****** ******
   6  ****** ****** ****** ****** ****** ****** ****** ****** ****** ******
      ****** ****** ****** ****** ****** ****** ****** ****** ****** ******
      ****** ****** ****** ****** ****** ****** ****** ****** ****** ******
   7  ****** ****** ****** ****** ****** ****** ****** ****** ****** ******
      ****** ****** ****** ****** ****** ****** ****** ****** ****** ******
      ****** ****** ****** ****** ****** ****** ****** ****** ****** ******
   8  ****** ****** ****** ****** ****** ****** ****** ****** ****** ******
      ****** ****** ****** ****** ****** ****** ****** ****** ****** ******
      ****** ****** ****** ****** ****** ****** ****** ****** ****** ******
   9  ****** ****** ****** ****** ****** ****** ****** ****** ****** ******
      ****** ****** ****** ****** ****** ****** ****** ****** ****** ******
      ****** ****** ****** ****** ****** ****** ****** ****** ****** ******
  10  ****** ****** ****** ****** ****** ****** ****** ****** ****** ******
      ****** ****** ****** ****** ****** ****** ****** ****** ****** ******
      ****** ****** ****** ****** ****** ****** ****** ****** ****** ******
  11  ****** ****** ****** ****** ****** ****** ****** ****** ****** ******
      ****** ****** ****** ****** ****** ****** ****** ****** ****** ******
      ****** ****** ****** ****** ****** ****** ****** ****** ****** ******
  12  ****** ****** ****** ****** ****** ****** ****** ****** ****** ******
      ****** ****** ****** ****** ****** ****** ****** ****** ****** ******
      ****** ****** ****** ****** ****** ****** ****** ****** ****** ******
  13  ****** ****** ****** ****** ****** ****** ****** ****** ****** ******
      ****** ****** ****** ****** ****** ****** ****** ****** ****** ******
      ****** ****** ****** ****** ****** ****** ****** ****** ****** ******
  14  ****** ****** ****** ****** ****** ****** ****** ****** ****** ******
      ****** ****** ****** ****** ****** ****** ****** ****** ****** ******
      ****** ****** ****** ****** ****** ****** ****** ****** ****** ******
  15  ****** ****** ****** ****** ****** ****** ****** ****** ****** ******
      ****** ****** ****** ****** ****** ****** ****** ****** ****** ******
      ****** ****** ****** ****** ****** ****** ****** ****** ****** ******
  16  ****** ****** ****** ****** ****** ****** ****** ****** ****** ******
      ****** ****** ****** ****** ****** ****** ****** ****** ****** ******
      ****** ****** ****** ****** ****** ****** ****** ****** ****** ******
  17  ****** ****** ****** ****** ****** ****** ****** ****** ****** ******
      ****** ****** ****** ****** ****** ****** ****** ****** ****** ******
      ****** ****** ****** ****** ****** ****** ****** ****** ****** ******
  18  ****** ****** ****** ****** ****** ****** ****** ****** ****** ******
      ****** ****** ****** ****** ****** ****** ****** ****** ****** ******
      ****** ****** ****** ****** ****** ****** ****** ****** ****** ******
  19  ****** ****** ****** ****** ****** ****** ****** ****** ****** ******
      ****** ****** ****** ****** ****** ****** ****** ****** ****** ******
      ****** ****** ****** ****** ****** ****** ****** ****** ****** ******
  20  ****** ****** ****** ****** ****** ****** ****** ****** ****** ******
      ****** ****** ****** ****** ****** ****** ****** ****** ****** ******
      ****** ****** ****** ****** ****** ****** ****** ****** ****** ******
  21  ****** ****** ****** ****** ****** ****** ****** ****** ****** ******
      ****** ****** ****** ****** ****** ****** ****** ****** ****** ******
      ****** ****** ****** ****** ****** ****** ****** ****** ****** ******
  22  ****** ****** ****** ****** ****** ****** ****** ****** ****** ******
      ****** ****** ****** ****** ****** ****** ****** ****** ****** ******
      ****** ****** ****** ****** ****** ****** ****** ****** ****** ******
  23  ****** ****** ****** ****** ****** ****** ****** ****** ****** ******
      ****** ****** ****** ****** ****** ****** ****** ****** ****** ******
      ****** ****** ****** ****** ****** ****** ****** ****** ****** ******
  24  ****** ****** ****** ****** ****** ****** ****** ****** ****** ******
      ****** ****** ****** ****** ****** ****** ****** ****** ****** ******
      ****** ****** ****** ****** ****** ****** ****** ****** ****** ******
  25  ****** ****** ****** ****** ****** ****** ****** ****** ****** ******
      ****** ****** ****** ****** ****** ****** ****** ****** ****** ******
      ****** ****** ****** ****** ****** ****** ****** ****** ****** ******

 HEAD WILL BE SAVED ON UNIT   51 AT END OF TIME STEP    1, STRESS PERIOD   11
1
  VOLUMETRIC BUDGET FOR ENTIRE MODEL AT END OF TIME STEP    1, STRESS PERIOD  11
  ------------------------------------------------------------------------------

     CUMULATIVE VOLUMES      L**3       RATES FOR THIS TIME STEP      L**3/T
     ------------------                 ------------------------

           IN:                                      IN:
           ---                                      ---
             STORAGE =    36007172.1797               STORAGE =       17997.3088
       CONSTANT HEAD =    28984201.2364         CONSTANT HEAD =       35294.5924
               WELLS =           0.0000                 WELLS =           0.0000
            RECHARGE =    23901600.0000              RECHARGE =           0.0000
      STREAM LEAKAGE =    15443588.4333        STREAM LEAKAGE =       19623.4735

            TOTAL IN =   104336561.8493              TOTAL IN =       72915.3748

          OUT:                                     OUT:
          ----                                     ----
             STORAGE =     2335426.4304               STORAGE =           0.0000
       CONSTANT HEAD =           0.0000         CONSTANT HEAD =           0.0000
               WELLS =    38265407.2281                 WELLS =       38112.9554
            RECHARGE =           0.0000              RECHARGE =           0.0000
      STREAM LEAKAGE =    63735730.1074        STREAM LEAKAGE =       34802.4242

           TOTAL OUT =   104336563.7659             TOTAL OUT =       72915.3796

            IN - OUT =          -1.9166              IN - OUT =      -4.8279E-03

 PERCENT DISCREPANCY =          -0.00     PERCENT DISCREPANCY =          -0.00






         TIME SUMMARY AT END OF TIME STEP    1 IN STRESS PERIOD   11
                    SECONDS     MINUTES      HOURS       DAYS        YEARS
                    -----------------------------------------------------------
   TIME STEP LENGTH 7.86240E+06 1.31040E+05  2184.0      91.000     0.24914    
 STRESS PERIOD TIME 7.86240E+06 1.31040E+05  2184.0      91.000     0.24914    
         TOTAL TIME 8.67456E+07 1.44576E+06  24096.      1004.0      2.7488    
1
1
                            STRESS PERIOD NO.   12, LENGTH =   91.00000    
                            -----------------------------------------------

                              NUMBER OF TIME STEPS =     1

                               MULTIPLIER FOR DELT =     1.500

                            INITIAL TIME STEP SIZE =   91.00000    

 WELL NO.  LAYER   ROW   COL   STRESS RATE         
 --------------------------------------------------
      1      1     11     23      -9982.    
      2      1     13     22      -7684.    
      3      1      6     18      -7790.    
      4      1      7     23     -0.1266E+05

      4 WELLS

                 RECHARGE =  1.000000E-03

 REUSING STREAM SEGMENT DATA FROM LAST STRESS PERIOD
 
 SOLVING FOR HEAD 


     7 CALLS TO PCG ROUTINE FOR TIME STEP   1 IN STRESS PERIOD   12
    24 TOTAL ITERATIONS

 OUTPUT CONTROL FOR STRESS PERIOD   12   TIME STEP    1
    SAVE BUDGET
    SAVE HEAD FOR ALL LAYERS
    PRINT HEAD FOR ALL LAYERS
 UBDSV2 SAVING "STREAMFLOW OUT  " ON UNIT  50 AT TIME STEP  1, STRESS PERIOD  12



 STREAM LISTING     PERIOD     12   STEP        1

 LAYER ROW COL. STREAM  RCH.  FLOW INTO     FLOW TO   FLOW OUT OF   OVRLND.     DIRECT     STREAM       STREAM     STREAM     STREAM   STREAMBED  STREAMBED
                SEG.NO.  NO.  STRM. RCH.    AQUIFER    STRM. RCH.    RUNOFF     PRECIP       ET          HEAD       DEPTH      WIDTH   CONDCTNC.   GRADIENT

   1   13    1     1     1    1.0000E+05 -1.5663E+03   1.0157E+05  0.000E+00  0.000E+00  0.000E+00  4.84067E+01  1.453E-01  2.000E+01  2.000E+04 -7.832E-02
   1   13    2     1     2    1.0157E+05 -2.4911E+03   1.0406E+05  0.000E+00  0.000E+00  0.000E+00  4.79312E+01  1.471E-01  2.000E+01  2.000E+04 -1.246E-01
   1   14    3     1     3    1.0406E+05 -4.2902E+02   1.0449E+05  0.000E+00  0.000E+00  0.000E+00  4.74551E+01  1.483E-01  2.000E+01  2.000E+04 -2.145E-02
   1   15    4     1     4    1.0449E+05 -4.1028E+02   1.0490E+05  0.000E+00  0.000E+00  0.000E+00  4.69782E+01  1.487E-01  2.000E+01  2.000E+04 -2.051E-02
   1   16    5     1     5    1.0490E+05 -1.6219E+03   1.0652E+05  0.000E+00  0.000E+00  0.000E+00  4.65018E+01  1.496E-01  2.000E+01  2.000E+04 -8.109E-02
   1   16    6     1     6    1.0652E+05 -1.0221E+03   1.0754E+05  0.000E+00  0.000E+00  0.000E+00  4.60257E+01  1.507E-01  2.000E+01  2.000E+04 -5.111E-02
   1   16    7     1     7    1.0754E+05 -1.0048E+03   1.0855E+05  0.000E+00  0.000E+00  0.000E+00  4.55493E+01  1.515E-01  2.000E+01  2.000E+04 -5.024E-02
   1   16    8     1     8    1.0855E+05 -1.0051E+03   1.0955E+05  0.000E+00  0.000E+00  0.000E+00  4.50728E+01  1.524E-01  2.000E+01  2.000E+04 -5.026E-02
   1   16    9     1     9    1.0955E+05 -1.0052E+03   1.1056E+05  0.000E+00  0.000E+00  0.000E+00  4.45964E+01  1.532E-01  2.000E+01  2.000E+04 -5.026E-02
   1   16   10     1    10    1.1056E+05 -1.0053E+03   1.1156E+05  0.000E+00  0.000E+00  0.000E+00  4.41200E+01  1.540E-01  2.000E+01  2.000E+04 -5.026E-02
   1   16   11     1    11    1.1156E+05 -1.0245E+03   1.1259E+05  0.000E+00  0.000E+00  0.000E+00  4.36435E+01  1.549E-01  2.000E+01  2.000E+04 -5.122E-02
   1   16   12     1    12    1.1259E+05 -1.7108E+03   1.1430E+05  0.000E+00  0.000E+00  0.000E+00  4.31674E+01  1.560E-01  2.000E+01  2.000E+04 -8.554E-02
   1   15   13     1    13    1.1430E+05 -1.4501E+03   1.1575E+05  0.000E+00  0.000E+00  0.000E+00  4.26914E+01  1.573E-01  2.000E+01  2.000E+04 -7.250E-02
   1   14   14     1    14    1.1575E+05 -1.5315E+03   1.1728E+05  0.000E+00  0.000E+00  0.000E+00  4.22154E+01  1.585E-01  2.000E+01  2.000E+04 -7.657E-02
   1   13   15     1    15    1.1728E+05 -1.5607E+03   1.1884E+05  0.000E+00  0.000E+00  0.000E+00  4.17393E+01  1.598E-01  2.000E+01  2.000E+04 -7.804E-02
   1   12   16     1    16    1.1884E+05 -1.4758E+03   1.2031E+05  0.000E+00  0.000E+00  0.000E+00  4.12633E+01  1.610E-01  2.000E+01  2.000E+04 -7.379E-02
   1   12   17     1    17    1.2031E+05 -8.1572E+02   1.2113E+05  0.000E+00  0.000E+00  0.000E+00  4.07870E+01  1.620E-01  2.000E+01  2.000E+04 -4.079E-02
   1   12   18     1    18    1.2113E+05 -5.4939E+02   1.2168E+05  0.000E+00  0.000E+00  0.000E+00  4.03102E+01  1.625E-01  2.000E+01  2.000E+04 -2.747E-02
   1   12   19     1    19    1.2168E+05  2.6253E+02   1.2142E+05  0.000E+00  0.000E+00  0.000E+00  3.98331E+01  1.626E-01  2.000E+01  2.000E+04  1.313E-02
   1   13   20     1    20    1.2142E+05  8.2722E+02   1.2059E+05  0.000E+00  0.000E+00  0.000E+00  3.93554E+01  1.622E-01  2.000E+01  2.000E+04  4.136E-02
   1   14   21     1    21    1.2059E+05 -9.6510E+01   1.2069E+05  0.000E+00  0.000E+00  0.000E+00  3.88778E+01  1.619E-01  2.000E+01  2.000E+04 -4.826E-03
   1   14   22     1    22    1.2069E+05  6.3117E+03   1.1437E+05  0.000E+00  0.000E+00  0.000E+00  3.83980E+01  1.594E-01  2.000E+01  2.000E+04  3.156E-01
   1    9   30     2     1    5.0000E+04 -2.3771E+01   5.0024E+04  0.000E+00  0.000E+00  0.000E+00  4.02409E+01  1.159E-01  2.000E+01  2.000E+04 -1.189E-03
   1    9   29     2     2    5.0024E+04 -2.3451E+02   5.0258E+04  0.000E+00  0.000E+00  0.000E+00  3.99911E+01  1.161E-01  2.000E+01  2.000E+04 -1.173E-02
   1    9   28     2     3    5.0258E+04 -2.5240E+02   5.0511E+04  0.000E+00  0.000E+00  0.000E+00  3.97414E+01  1.164E-01  2.000E+01  2.000E+04 -1.262E-02
   1    9   27     2     4    5.0511E+04 -6.3532E-01   5.0511E+04  0.000E+00  0.000E+00  0.000E+00  3.94916E+01  1.166E-01  2.000E+01  2.000E+04 -3.177E-05
   1   10   26     2     5    5.0511E+04  8.9716E+02   4.9614E+04  0.000E+00  0.000E+00  0.000E+00  3.92410E+01  1.160E-01  2.000E+01  2.000E+04  4.486E-02
   1   11   25     2     6    4.9614E+04  2.1358E+03   4.7478E+04  0.000E+00  0.000E+00  0.000E+00  3.89888E+01  1.138E-01  2.000E+01  2.000E+04  1.068E-01
   1   12   24     2     7    4.7478E+04  3.5413E+03   4.3937E+04  0.000E+00  0.000E+00  0.000E+00  3.87348E+01  1.098E-01  2.000E+01  2.000E+04  1.771E-01
   1   13   23     2     8    4.3937E+04  1.0056E+03   4.2932E+04  0.000E+00  0.000E+00  0.000E+00  3.84815E+01  1.065E-01  2.000E+01  2.000E+04  5.028E-02
   1   14   22     2     9    4.2932E+04  2.9228E+03   4.0009E+04  0.000E+00  0.000E+00  0.000E+00  3.82286E+01  1.036E-01  2.000E+01  2.000E+04  1.461E-01
   1   14   22     3     1    1.5438E+05 -7.3777E+03   1.6176E+05  0.000E+00  0.000E+00  0.000E+00  3.77135E+01  1.580E-01  2.000E+01  2.000E+04 -3.689E-01
   1   15   23     3     2    1.6176E+05 -5.3896E+02   1.6230E+05  0.000E+00  0.000E+00  0.000E+00  3.68270E+01  1.603E-01  2.000E+01  2.000E+04 -2.695E-02
   1   15   24     3     3    1.6230E+05 -2.7916E+02   1.6258E+05  0.000E+00  0.000E+00  0.000E+00  3.59384E+01  1.606E-01  2.000E+01  2.000E+04 -1.396E-02
   1   15   25     3     4    1.6258E+05 -2.7155E+02   1.6285E+05  0.000E+00  0.000E+00  0.000E+00  3.50496E+01  1.608E-01  2.000E+01  2.000E+04 -1.358E-02
   1   15   26     3     5    1.6285E+05 -3.2919E+02   1.6318E+05  0.000E+00  0.000E+00  0.000E+00  3.41609E+01  1.609E-01  2.000E+01  2.000E+04 -1.646E-02
   1   16   27     3     6    1.6318E+05 -3.6157E+02   1.6354E+05  0.000E+00  0.000E+00  0.000E+00  3.32722E+01  1.611E-01  2.000E+01  2.000E+04 -1.808E-02
   1   17   28     3     7    1.6354E+05 -1.5421E+03   1.6508E+05  0.000E+00  0.000E+00  0.000E+00  3.23839E+01  1.617E-01  2.000E+01  2.000E+04 -7.710E-02
   1   18   29     3     8    1.6508E+05 -2.8833E+03   1.6797E+05  0.000E+00  0.000E+00  0.000E+00  3.14963E+01  1.630E-01  2.000E+01  2.000E+04 -1.442E-01
   1   18   30     3     9    1.6797E+05 -3.1659E+03   1.7113E+05  0.000E+00  0.000E+00  0.000E+00  3.06092E+01  1.648E-01  2.000E+01  2.000E+04 -1.583E-01



1
              HEAD IN LAYER   1 AT END OF TIME STEP   1 IN STRESS PERIOD   12
  ---------------------------------------------------------------------------

          1      2      3      4      5      6      7      8      9     10
         11     12     13     14     15     16     17     18     19     20
         21     22     23     24     25     26     27     28     29     30
 .........................................................................
   1  ****** ****** ****** ****** ****** ****** ****** ****** ****** ******
      ****** ****** ****** ****** ****** ****** ****** ****** ****** ******
      ****** ****** ****** ****** ****** ****** ****** ****** ****** ******
   2  ****** ****** ****** ****** ****** ****** ****** ****** ****** ******
      ****** ****** ****** ****** ****** ****** ****** ****** ****** ******
      ****** ****** ****** ****** ****** ****** ****** ****** ****** ******
   3  ****** ****** ****** ****** ****** ****** ****** ****** ****** ******
      ****** ****** ****** ****** ****** ****** ****** ****** ****** ******
      ****** ****** ****** ****** ****** ****** ****** ****** ****** ******
   4  ****** ****** ****** ****** ****** ****** ****** ****** ****** ******
      ****** ****** ****** ****** ****** ****** ****** ****** ****** ******
      ****** ****** ****** ****** ****** ****** ****** ****** ****** ******
   5  ****** ****** ****** ****** ****** ****** ****** ****** ****** ******
      ****** ****** ****** ****** ****** ****** ****** ****** ****** ******
      ****** ****** ****** ****** ****** ****** ****** ****** ****** ******
   6  ****** ****** ****** ****** ****** ****** ****** ****** ****** ******
      ****** ****** ****** ****** ****** ****** ****** ****** ****** ******
      ****** ****** ****** ****** ****** ****** ****** ****** ****** ******
   7  ****** ****** ****** ****** ****** ****** ****** ****** ****** ******
      ****** ****** ****** ****** ****** ****** ****** ****** ****** ******
      ****** ****** ****** ****** ****** ****** ****** ****** ****** ******
   8  ****** ****** ****** ****** ****** ****** ****** ****** ****** ******
      ****** ****** ****** ****** ****** ****** ****** ****** ****** ******
      ****** ****** ****** ****** ****** ****** ****** ****** ****** ******
   9  ****** ****** ****** ****** ****** ****** ****** ****** ****** ******
      ****** ****** ****** ****** ****** ****** ****** ****** ****** ******
      ****** ****** ****** ****** ****** ****** ****** ****** ****** ******
  10  ****** ****** ****** ****** ****** ****** ****** ****** ****** ******
      ****** ****** ****** ****** ****** ****** ****** ****** ****** ******
      ****** ****** ****** ****** ****** ****** ****** ****** ****** ******
  11  ****** ****** ****** ****** ****** ****** ****** ****** ****** ******
      ****** ****** ****** ****** ****** ****** ****** ****** ****** ******
      ****** ****** ****** ****** ****** ****** ****** ****** ****** ******
  12  ****** ****** ****** ****** ****** ****** ****** ****** ****** ******
      ****** ****** ****** ****** ****** ****** ****** ****** ****** ******
      ****** ****** ****** ****** ****** ****** ****** ****** ****** ******
  13  ****** ****** ****** ****** ****** ****** ****** ****** ****** ******
      ****** ****** ****** ****** ****** ****** ****** ****** ****** ******
      ****** ****** ****** ****** ****** ****** ****** ****** ****** ******
  14  ****** ****** ****** ****** ****** ****** ****** ****** ****** ******
      ****** ****** ****** ****** ****** ****** ****** ****** ****** ******
      ****** ****** ****** ****** ****** ****** ****** ****** ****** ******
  15  ****** ****** ****** ****** ****** ****** ****** ****** ****** ******
      ****** ****** ****** ****** ****** ****** ****** ****** ****** ******
      ****** ****** ****** ****** ****** ****** ****** ****** ****** ******
  16  ****** ****** ****** ****** ****** ****** ****** ****** ****** ******
      ****** ****** ****** ****** ****** ****** ****** ****** ****** ******
      ****** ****** ****** ****** ****** ****** ****** ****** ****** ******
  17  ****** ****** ****** ****** ****** ****** ****** ****** ****** ******
      ****** ****** ****** ****** ****** ****** ****** ****** ****** ******
      ****** ****** ****** ****** ****** ****** ****** ****** ****** ******
  18  ****** ****** ****** ****** ****** ****** ****** ****** ****** ******
      ****** ****** ****** ****** ****** ****** ****** ****** ****** ******
      ****** ****** ****** ****** ****** ****** ****** ****** ****** ******
  19  ****** ****** ****** ****** ****** ****** ****** ****** ****** ******
      ****** ****** ****** ****** ****** ****** ****** ****** ****** ******
      ****** ****** ****** ****** ****** ****** ****** ****** ****** ******
  20  ****** ****** ****** ****** ****** ****** ****** ****** ****** ******
      ****** ****** ****** ****** ****** ****** ****** ****** ****** ******
      ****** ****** ****** ****** ****** ****** ****** ****** ****** ******
  21  ****** ****** ****** ****** ****** ****** ****** ****** ****** ******
      ****** ****** ****** ****** ****** ****** ****** ****** ****** ******
      ****** ****** ****** ****** ****** ****** ****** ****** ****** ******
  22  ****** ****** ****** ****** ****** ****** ****** ****** ****** ******
      ****** ****** ****** ****** ****** ****** ****** ****** ****** ******
      ****** ****** ****** ****** ****** ****** ****** ****** ****** ******
  23  ****** ****** ****** ****** ****** ****** ****** ****** ****** ******
      ****** ****** ****** ****** ****** ****** ****** ****** ****** ******
      ****** ****** ****** ****** ****** ****** ****** ****** ****** ******
  24  ****** ****** ****** ****** ****** ****** ****** ****** ****** ******
      ****** ****** ****** ****** ****** ****** ****** ****** ****** ******
      ****** ****** ****** ****** ****** ****** ****** ****** ****** ******
  25  ****** ****** ****** ****** ****** ****** ****** ****** ****** ******
      ****** ****** ****** ****** ****** ****** ****** ****** ****** ******
      ****** ****** ****** ****** ****** ****** ****** ****** ****** ******

 HEAD WILL BE SAVED ON UNIT   51 AT END OF TIME STEP    1, STRESS PERIOD   12
1
  VOLUMETRIC BUDGET FOR ENTIRE MODEL AT END OF TIME STEP    1, STRESS PERIOD  12
  ------------------------------------------------------------------------------

     CUMULATIVE VOLUMES      L**3       RATES FOR THIS TIME STEP      L**3/T
     ------------------                 ------------------------

           IN:                                      IN:
           ---                                      ---
             STORAGE =    36008782.6869               STORAGE =          17.6979
       CONSTANT HEAD =    32133073.5432         CONSTANT HEAD =       34602.9924
               WELLS =           0.0000                 WELLS =           0.0000
            RECHARGE =    26413200.0000              RECHARGE =       27600.0000
      STREAM LEAKAGE =    17072861.3165        STREAM LEAKAGE =       17904.0976

            TOTAL IN =   111627917.5466              TOTAL IN =       80124.7879

          OUT:                                     OUT:
          ----                                     ----
             STORAGE =     2606166.3006               STORAGE =        2975.1634
       CONSTANT HEAD =           0.0000         CONSTANT HEAD =           0.0000
               WELLS =    41733686.1701                 WELLS =       38112.9554
            RECHARGE =           0.0000              RECHARGE =           0.0000
      STREAM LEAKAGE =    67288066.9127        STREAM LEAKAGE =       39036.6682

           TOTAL OUT =   111627919.3834             TOTAL OUT =       80124.7870

            IN - OUT =          -1.8367              IN - OUT =       8.7769E-04

 PERCENT DISCREPANCY =          -0.00     PERCENT DISCREPANCY =           0.00






         TIME SUMMARY AT END OF TIME STEP    1 IN STRESS PERIOD   12
                    SECONDS     MINUTES      HOURS       DAYS        YEARS
                    -----------------------------------------------------------
   TIME STEP LENGTH 7.86240E+06 1.31040E+05  2184.0      91.000     0.24914    
 STRESS PERIOD TIME 7.86240E+06 1.31040E+05  2184.0      91.000     0.24914    
         TOTAL TIME 9.46080E+07 1.57680E+06  26280.      1095.0      2.9979    
1

 Run end date and time (yyyy/mm/dd hh:mm:ss): 2018/10/14 23:23:46
 Elapsed run time:  0.073 Seconds

