                                  MODFLOW-2005     
      U.S. GEOLOGICAL SURVEY MODULAR FINITE-DIFFERENCE GROUND-WATER FLOW MODEL
                            VERSION 1.11.00 8/8/2013

 LIST FILE: supply2.lst
                         UNIT   10

 OPENING ..\data\supply.dis
 FILE TYPE:DIS   UNIT   11   STATUS:OLD    
 FORMAT:FORMATTED              ACCESS:SEQUENTIAL          

 OPENING ..\data\supply.ba6
 FILE TYPE:BAS6   UNIT   12   STATUS:OLD    
 FORMAT:FORMATTED              ACCESS:SEQUENTIAL          

 OPENING ..\data\supply_het.bc6
 FILE TYPE:BCF6   UNIT   13   STATUS:OLD    
 FORMAT:FORMATTED              ACCESS:SEQUENTIAL          

 OPENING ..\data\supply.rch
 FILE TYPE:RCH   UNIT   15   STATUS:OLD    
 FORMAT:FORMATTED              ACCESS:SEQUENTIAL          

 OPENING ..\data\supply2.sfr
 FILE TYPE:SFR   UNIT   16   STATUS:OLD    
 FORMAT:FORMATTED              ACCESS:SEQUENTIAL          

 OPENING ..\data\supply.oc
 FILE TYPE:OC   UNIT   17   STATUS:OLD    
 FORMAT:FORMATTED              ACCESS:SEQUENTIAL          

 OPENING ..\data\supply.pcg
 FILE TYPE:PCG   UNIT   18   STATUS:OLD    
 FORMAT:FORMATTED              ACCESS:SEQUENTIAL          

 OPENING supply2.wel
 FILE TYPE:WEL   UNIT   19   STATUS:OLD    
 FORMAT:FORMATTED              ACCESS:SEQUENTIAL          

 OPENING supply2sf.cbc
 FILE TYPE:DATA(BINARY)   UNIT   50   STATUS:UNKNOWN
 FORMAT:BINARY                 ACCESS:SEQUENTIAL          

 OPENING supply2hd.bhd
 FILE TYPE:DATA(BINARY)   UNIT   51   STATUS:UNKNOWN
 FORMAT:BINARY                 ACCESS:SEQUENTIAL          

 BAS -- BASIC PACKAGE, VERSION 7, 5/2/2005 INPUT READ FROM UNIT   12
 
 MODFLOW was compiled using uniform precision
 Precision of REAL and DOUBLE PRECISION variables:          15

 DISCRETIZATION INPUT DATA READ FROM UNIT   11
    1 LAYERS        25 ROWS        30 COLUMNS
   12 STRESS PERIOD(S) IN SIMULATION
 MODEL TIME UNIT IS DAYS
 MODEL LENGTH UNIT IS UNDEFINED
  Confining bed flag for each layer:
   0

                     DELR =   200.000    

                     DELC =   200.000    

 TOP ELEVATION OF LAYER 1 =  100.0000    

   MODEL LAYER BOTTOM EL. =   0.00000     FOR LAYER   1


 STRESS PERIOD     LENGTH       TIME STEPS     MULTIPLIER FOR DELT    SS FLAG
 ----------------------------------------------------------------------------
        1         92.00000          1                    1.500         TR
        2         91.00000          1                    1.500         TR
        3         91.00000          1                    1.500         TR
        4         91.00000          1                    1.500         TR
        5         92.00000          1                    1.500         TR
        6         91.00000          1                    1.500         TR
        7         91.00000          1                    1.500         TR
        8         91.00000          1                    1.500         TR
        9         92.00000          1                    1.500         TR
       10         91.00000          1                    1.500         TR
       11         91.00000          1                    1.500         TR
       12         91.00000          1                    1.500         TR

 TRANSIENT SIMULATION



 
 #MODOFC transient water supply sample problem                                   
 #                                                                               
 THE FREE FORMAT OPTION HAS BEEN SELECTED



                     BOUNDARY ARRAY FOR LAYER   1
 READING ON UNIT   12 WITH FORMAT: (20I4)              

 AQUIFER HEAD WILL BE SET TO   0.0000     AT ALL NO-FLOW NODES (IBOUND=0).



                       INITIAL HEAD FOR LAYER   1
 READING ON UNIT   12 WITH FORMAT: (10F13.0)           

 OUTPUT CONTROL IS SPECIFIED ONLY AT TIME STEPS FOR WHICH OUTPUT IS DESIRED
 COMPACT CELL-BY-CELL BUDGET FILES WILL BE WRITTEN
 HEAD PRINT FORMAT CODE IS  18    DRAWDOWN PRINT FORMAT CODE IS   0
 HEADS WILL BE SAVED ON UNIT   51    DRAWDOWNS WILL BE SAVED ON UNIT    0

 BCF -- BLOCK-CENTERED FLOW PACKAGE, VERSION 7, 5/2/2005
         INPUT READ FROM UNIT 13
 TRANSIENT SIMULATION
 HEAD AT CELLS THAT CONVERT TO DRY=   0.0000    
 WETTING CAPABILITY IS NOT ACTIVE
      LAYER  LAYER-TYPE CODE     INTERBLOCK T
      --------------------------------------------
         1            0          0 -- HARMONIC    

 COLUMN TO ROW ANISOTROPY =  1.000000    

     PRIMARY STORAGE COEF =  5.000000E-02 FOR LAYER   1



               TRANSMIS. ALONG ROWS FOR LAYER   1
 READING ON UNIT   13 WITH FORMAT: (FREE)              

 WEL -- WELL PACKAGE, VERSION 7, 5/2/2005 INPUT READ FROM UNIT   19
 # Well package input file written by MMProc
 No named parameters
 MAXIMUM OF      4 ACTIVE WELLS AT ONE TIME


     0 Well parameters

 RCH -- RECHARGE PACKAGE, VERSION 7, 5/2/2005 INPUT READ FROM UNIT   15
 No named parameters
 OPTION 1 -- RECHARGE TO TOP LAYER


     0 Recharge parameters

 SFR7 -- STREAMFLOW ROUTING PACKAGE, VERSION 1.0.7, 2013-01-15
         INPUT READ FROM UNIT  16
 #  Supply2 test problem for GWM-VI
 #  The eighth entry in the first data line is ISTCB2 -
 #    Setting this to a negative number indicates that
 #    streamflows out of the reach will be saved to a
 #    binary file.  The absolute value of ISTCB2 is the
 #    unit to which unformatted flows will be written.
 #
 No named parameters
 Segment information will not be 
 read by reach
 No named parameters
 No specifed inflow files


 NUMBER OF STREAM REACHES IS   40

 NUMBER OF STREAM SEGMENTS IS    3

 NUMBER OF STREAM PARAMETERS IS    0

 NUMBER OF STREAM SEGMENTS DEFINED USING PARAMETERS IS              0

 MAXIMUM ERROR FOR STREAM LEAKAGE RATES IS  1.00E-04

 CONSTANT FOR MANNINGS EQUATION IS  1.2839E+05





   STREAM NETWORK DESCRIPTION: 

   LAYER    ROW    COL   SEGMENT   REACH     LENGTH
                          NUMBER   NUMBER    IN CELL        
   --------------------------------------------------
      1     13      1       1        1    2.0000E+02
      1     13      2       1        2    2.0000E+02
      1     14      3       1        3    2.0000E+02
      1     15      4       1        4    2.0000E+02
      1     16      5       1        5    2.0000E+02
      1     16      6       1        6    2.0000E+02
      1     16      7       1        7    2.0000E+02
      1     16      8       1        8    2.0000E+02
      1     16      9       1        9    2.0000E+02
      1     16     10       1       10    2.0000E+02
      1     16     11       1       11    2.0000E+02
      1     16     12       1       12    2.0000E+02
      1     15     13       1       13    2.0000E+02
      1     14     14       1       14    2.0000E+02
      1     13     15       1       15    2.0000E+02
      1     12     16       1       16    2.0000E+02
      1     12     17       1       17    2.0000E+02
      1     12     18       1       18    2.0000E+02
      1     12     19       1       19    2.0000E+02
      1     13     20       1       20    2.0000E+02
      1     14     21       1       21    2.0000E+02
      1     14     22       1       22    2.0000E+02
      1      9     30       2        1    2.0000E+02
      1      9     29       2        2    2.0000E+02
      1      9     28       2        3    2.0000E+02
      1      9     27       2        4    2.0000E+02
      1     10     26       2        5    2.0000E+02
      1     11     25       2        6    2.0000E+02
      1     12     24       2        7    2.0000E+02
      1     13     23       2        8    2.0000E+02
      1     14     22       2        9    2.0000E+02
      1     14     22       3        1    2.0000E+02
      1     15     23       3        2    2.0000E+02
      1     15     24       3        3    2.0000E+02
      1     15     25       3        4    2.0000E+02
      1     15     26       3        5    2.0000E+02
      1     16     27       3        6    2.0000E+02
      1     17     28       3        7    2.0000E+02
      1     18     29       3        8    2.0000E+02
      1     18     30       3        9    2.0000E+02




 PCG -- CONJUGATE-GRADIENT SOLUTION PACKAGE, VERSION 7, 5/2/2005
 MAXIMUM OF    500 CALLS OF SOLUTION ROUTINE
 MAXIMUM OF      5 INTERNAL ITERATIONS PER CALL TO SOLUTION ROUTINE
 MATRIX PRECONDITIONING TYPE :    1



                                    SOLUTION BY THE CONJUGATE-GRADIENT METHOD
                                   -------------------------------------------
                    MAXIMUM NUMBER OF CALLS TO PCG ROUTINE =      500
                        MAXIMUM ITERATIONS PER CALL TO PCG =        5
                               MATRIX PRECONDITIONING TYPE =        1
        RELAXATION FACTOR (ONLY USED WITH PRECOND. TYPE 1) =    0.10000E+01
 PARAMETER OF POLYNOMIAL PRECOND. = 2 (2) OR IS CALCULATED :        0
                         HEAD CHANGE CRITERION FOR CLOSURE =    0.10000E-05
                     RESIDUAL CHANGE CRITERION FOR CLOSURE =    0.10000E+01
            PCG HEAD AND RESIDUAL CHANGE PRINTOUT INTERVAL =        1
     PRINTING FROM SOLVER IS LIMITED(1) OR SUPPRESSED (>1) =        1
                            STEADY-STATE DAMPING PARAMETER =    0.10000E+01
                               TRANSIENT DAMPING PARAMETER =    0.10000E+01
1
                            STRESS PERIOD NO.    1, LENGTH =   92.00000    
                            -----------------------------------------------

                              NUMBER OF TIME STEPS =     1

                               MULTIPLIER FOR DELT =     1.500

                            INITIAL TIME STEP SIZE =   92.00000    

 WELL NO.  LAYER   ROW   COL   STRESS RATE         
 --------------------------------------------------
      1      1     20     17      -6946.    
      2      1     18     14     -0.1271E+05
      3      1      9      3      -2375.    
      4      1     21     12      -6598.    

      4 WELLS

                 RECHARGE =  5.000000E-04



 CLASSIFICATION & COUNT OF STREAM SEGMENTS BASED ON SOURCE OF INFLOW:

                HEADWATER     DIVERSION     RECEIVES TRIBUTARY FLOW
                ---------     ---------     -----------------------
                     2              0               1



                    INPUT DATA FOR EACH STREAM SEGMENT
 ---------------------------------------------------------------------------------------------

 SEGMENT    SEG.     INFLOW   OVERLAND   STREAM    STREAM   ICALC  OUTFLOW  DIVERSION PRIORITY
    NO.    LENGTH     RATE     RUNOFF      ET       PPT.    METH.  TO SEG.  FROM SEG.    NO.

      1  4.400E+03 1.000E+05 0.000E+00 0.000E+00 0.000E+00    1        3        0        0
      2  1.800E+03 5.000E+04 0.000E+00 0.000E+00 0.000E+00    1        3        0        0
      3  1.800E+03 0.000E+00 0.000E+00 0.000E+00 0.000E+00    1        0        0        0


         STREAMBED PROPERTIES AND STREAM DIMENSIONS

 SEGMENT     BED HYD. COND.      BED THICKNESS     ELEV.-TOP OF BED     WIDTH OF STREAM     DEPTH OF STREAM    STREAM ROUGHNESS
    No.     UPPER     LOWER     UPPER     LOWER     UPPER     LOWER     UPPER     LOWER     UPPER     LOWER   CHANNEL      BANK

     1  5.000E+00 5.000E+00 1.000E+00 1.000E+00 4.850E+01 3.800E+01 2.000E+01 2.000E+01                     5.000E-02
     2  5.000E+00 5.000E+00 1.000E+00 1.000E+00 4.025E+01 3.800E+01 2.000E+01 2.000E+01                     5.000E-02
     3  5.000E+00 5.000E+00 1.000E+00 1.000E+00 3.800E+01 3.000E+01 2.000E+01 2.000E+01                     5.000E-02



 
 SOLVING FOR HEAD 


     9 CALLS TO PCG ROUTINE FOR TIME STEP   1 IN STRESS PERIOD    1
    36 TOTAL ITERATIONS

 OUTPUT CONTROL FOR STRESS PERIOD    1   TIME STEP    1
    SAVE BUDGET
    SAVE HEAD FOR ALL LAYERS
    PRINT HEAD FOR ALL LAYERS
 UBDSV2 SAVING "STREAMFLOW OUT  " ON UNIT  50 AT TIME STEP  1, STRESS PERIOD   1



 STREAM LISTING     PERIOD      1   STEP        1

 LAYER ROW COL. STREAM  RCH.  FLOW INTO     FLOW TO   FLOW OUT OF   OVRLND.     DIRECT     STREAM       STREAM     STREAM     STREAM   STREAMBED  STREAMBED
                SEG.NO.  NO.  STRM. RCH.    AQUIFER    STRM. RCH.    RUNOFF     PRECIP       ET          HEAD       DEPTH      WIDTH   CONDCTNC.   GRADIENT

   1   13    1     1     1    1.0000E+05 -5.8814E+03   1.0588E+05  0.000E+00  0.000E+00  0.000E+00  4.84086E+01  1.472E-01  2.000E+01  2.000E+04 -2.941E-01
   1   13    2     1     2    1.0588E+05 -7.3360E+03   1.1322E+05  0.000E+00  0.000E+00  0.000E+00  4.79369E+01  1.528E-01  2.000E+01  2.000E+04 -3.668E-01
   1   14    3     1     3    1.1322E+05 -2.1811E+03   1.1540E+05  0.000E+00  0.000E+00  0.000E+00  4.74636E+01  1.567E-01  2.000E+01  2.000E+04 -1.091E-01
   1   15    4     1     4    1.1540E+05 -2.2499E+03   1.1765E+05  0.000E+00  0.000E+00  0.000E+00  4.69881E+01  1.586E-01  2.000E+01  2.000E+04 -1.125E-01
   1   16    5     1     5    1.1765E+05 -6.9836E+03   1.2463E+05  0.000E+00  0.000E+00  0.000E+00  4.65146E+01  1.623E-01  2.000E+01  2.000E+04 -3.492E-01
   1   16    6     1     6    1.2463E+05 -4.1287E+03   1.2876E+05  0.000E+00  0.000E+00  0.000E+00  4.60417E+01  1.667E-01  2.000E+01  2.000E+04 -2.064E-01
   1   16    7     1     7    1.2876E+05 -3.9044E+03   1.3267E+05  0.000E+00  0.000E+00  0.000E+00  4.55676E+01  1.699E-01  2.000E+01  2.000E+04 -1.952E-01
   1   16    8     1     8    1.3267E+05 -3.7722E+03   1.3644E+05  0.000E+00  0.000E+00  0.000E+00  4.50933E+01  1.728E-01  2.000E+01  2.000E+04 -1.886E-01
   1   16    9     1     9    1.3644E+05 -3.6268E+03   1.4006E+05  0.000E+00  0.000E+00  0.000E+00  4.46189E+01  1.757E-01  2.000E+01  2.000E+04 -1.813E-01
   1   16   10     1    10    1.4006E+05 -3.4218E+03   1.4349E+05  0.000E+00  0.000E+00  0.000E+00  4.41443E+01  1.784E-01  2.000E+01  2.000E+04 -1.711E-01
   1   16   11     1    11    1.4349E+05 -3.1173E+03   1.4660E+05  0.000E+00  0.000E+00  0.000E+00  4.36694E+01  1.808E-01  2.000E+01  2.000E+04 -1.559E-01
   1   16   12     1    12    1.4660E+05 -4.5121E+03   1.5112E+05  0.000E+00  0.000E+00  0.000E+00  4.31950E+01  1.836E-01  2.000E+01  2.000E+04 -2.256E-01
   1   15   13     1    13    1.5112E+05 -5.5909E+03   1.5671E+05  0.000E+00  0.000E+00  0.000E+00  4.27215E+01  1.874E-01  2.000E+01  2.000E+04 -2.795E-01
   1   14   14     1    14    1.5671E+05 -6.7841E+03   1.6349E+05  0.000E+00  0.000E+00  0.000E+00  4.22487E+01  1.918E-01  2.000E+01  2.000E+04 -3.392E-01
   1   13   15     1    15    1.6349E+05 -7.6375E+03   1.7113E+05  0.000E+00  0.000E+00  0.000E+00  4.17765E+01  1.970E-01  2.000E+01  2.000E+04 -3.819E-01
   1   12   16     1    16    1.7113E+05 -8.6875E+03   1.7982E+05  0.000E+00  0.000E+00  0.000E+00  4.13050E+01  2.027E-01  2.000E+01  2.000E+04 -4.344E-01
   1   12   17     1    17    1.7982E+05 -6.0907E+03   1.8591E+05  0.000E+00  0.000E+00  0.000E+00  4.08328E+01  2.078E-01  2.000E+01  2.000E+04 -3.045E-01
   1   12   18     1    18    1.8591E+05 -5.9602E+03   1.9187E+05  0.000E+00  0.000E+00  0.000E+00  4.03596E+01  2.119E-01  2.000E+01  2.000E+04 -2.980E-01
   1   12   19     1    19    1.9187E+05 -7.6285E+03   1.9949E+05  0.000E+00  0.000E+00  0.000E+00  3.98869E+01  2.164E-01  2.000E+01  2.000E+04 -3.814E-01
   1   13   20     1    20    1.9949E+05 -6.5158E+03   2.0601E+05  0.000E+00  0.000E+00  0.000E+00  3.94142E+01  2.211E-01  2.000E+01  2.000E+04 -3.258E-01
   1   14   21     1    21    2.0601E+05 -5.9054E+03   2.1192E+05  0.000E+00  0.000E+00  0.000E+00  3.89410E+01  2.251E-01  2.000E+01  2.000E+04 -2.953E-01
   1   14   22     1    22    2.1192E+05  3.6733E+03   2.0824E+05  0.000E+00  0.000E+00  0.000E+00  3.84645E+01  2.258E-01  2.000E+01  2.000E+04  1.837E-01
   1    9   30     2     1    5.0000E+04 -4.8595E+03   5.4859E+04  0.000E+00  0.000E+00  0.000E+00  4.02442E+01  1.192E-01  2.000E+01  2.000E+04 -2.430E-01
   1    9   29     2     2    5.4859E+04 -5.1556E+03   6.0015E+04  0.000E+00  0.000E+00  0.000E+00  4.00009E+01  1.259E-01  2.000E+01  2.000E+04 -2.578E-01
   1    9   28     2     3    6.0015E+04 -5.4425E+03   6.5458E+04  0.000E+00  0.000E+00  0.000E+00  3.97578E+01  1.328E-01  2.000E+01  2.000E+04 -2.721E-01
   1    9   27     2     4    6.5458E+04 -8.3093E+03   7.3767E+04  0.000E+00  0.000E+00  0.000E+00  3.95163E+01  1.413E-01  2.000E+01  2.000E+04 -4.155E-01
   1   10   26     2     5    7.3767E+04 -7.3497E+03   8.1117E+04  0.000E+00  0.000E+00  0.000E+00  3.92756E+01  1.506E-01  2.000E+01  2.000E+04 -3.675E-01
   1   11   25     2     6    8.1117E+04 -6.8078E+03   8.7924E+04  0.000E+00  0.000E+00  0.000E+00  3.90338E+01  1.588E-01  2.000E+01  2.000E+04 -3.404E-01
   1   12   24     2     7    8.7924E+04 -6.3229E+03   9.4247E+04  0.000E+00  0.000E+00  0.000E+00  3.87911E+01  1.661E-01  2.000E+01  2.000E+04 -3.161E-01
   1   13   23     2     8    9.4247E+04 -1.6557E+03   9.5903E+04  0.000E+00  0.000E+00  0.000E+00  3.85454E+01  1.704E-01  2.000E+01  2.000E+04 -8.279E-02
   1   14   22     2     9    9.5903E+04  3.0634E+02   9.5597E+04  0.000E+00  0.000E+00  0.000E+00  3.82961E+01  1.711E-01  2.000E+01  2.000E+04  1.532E-02
   1   14   22     3     1    3.0384E+05 -9.7831E+03   3.1362E+05  0.000E+00  0.000E+00  0.000E+00  3.77916E+01  2.361E-01  2.000E+01  2.000E+04 -4.892E-01
   1   15   23     3     2    3.1362E+05 -1.9078E+03   3.1553E+05  0.000E+00  0.000E+00  0.000E+00  3.69054E+01  2.387E-01  2.000E+01  2.000E+04 -9.539E-02
   1   15   24     3     3    3.1553E+05 -1.5159E+03   3.1705E+05  0.000E+00  0.000E+00  0.000E+00  3.60173E+01  2.395E-01  2.000E+01  2.000E+04 -7.580E-02
   1   15   25     3     4    3.1705E+05 -1.5728E+03   3.1862E+05  0.000E+00  0.000E+00  0.000E+00  3.51291E+01  2.402E-01  2.000E+01  2.000E+04 -7.864E-02
   1   15   26     3     5    3.1862E+05 -1.8800E+03   3.2050E+05  0.000E+00  0.000E+00  0.000E+00  3.42410E+01  2.410E-01  2.000E+01  2.000E+04 -9.400E-02
   1   16   27     3     6    3.2050E+05 -2.1590E+03   3.2266E+05  0.000E+00  0.000E+00  0.000E+00  3.33530E+01  2.419E-01  2.000E+01  2.000E+04 -1.079E-01
   1   17   28     3     7    3.2266E+05 -6.5501E+03   3.2921E+05  0.000E+00  0.000E+00  0.000E+00  3.24661E+01  2.439E-01  2.000E+01  2.000E+04 -3.275E-01
   1   18   29     3     8    3.2921E+05 -7.9210E+03   3.3713E+05  0.000E+00  0.000E+00  0.000E+00  3.15804E+01  2.471E-01  2.000E+01  2.000E+04 -3.960E-01
   1   18   30     3     9    3.3713E+05 -7.1327E+03   3.4426E+05  0.000E+00  0.000E+00  0.000E+00  3.06949E+01  2.504E-01  2.000E+01  2.000E+04 -3.566E-01



1
              HEAD IN LAYER   1 AT END OF TIME STEP   1 IN STRESS PERIOD    1
  ---------------------------------------------------------------------------

          1      2      3      4      5      6      7      8      9     10
         11     12     13     14     15     16     17     18     19     20
         21     22     23     24     25     26     27     28     29     30
 .........................................................................
   1  ****** ****** ****** ****** ****** ****** ****** ****** ****** ******
      ****** ****** ****** ****** ****** ****** ****** ****** ****** ******
      ****** ****** ****** ****** ****** ****** ****** ****** ****** ******
   2  ****** ****** ****** ****** ****** ****** ****** ****** ****** ******
      ****** ****** ****** ****** ****** ****** ****** ****** ****** ******
      ****** ****** ****** ****** ****** ****** ****** ****** ****** ******
   3  ****** ****** ****** ****** ****** ****** ****** ****** ****** ******
      ****** ****** ****** ****** ****** ****** ****** ****** ****** ******
      ****** ****** ****** ****** ****** ****** ****** ****** ****** ******
   4  ****** ****** ****** ****** ****** ****** ****** ****** ****** ******
      ****** ****** ****** ****** ****** ****** ****** ****** ****** ******
      ****** ****** ****** ****** ****** ****** ****** ****** ****** ******
   5  ****** ****** ****** ****** ****** ****** ****** ****** ****** ******
      ****** ****** ****** ****** ****** ****** ****** ****** ****** ******
      ****** ****** ****** ****** ****** ****** ****** ****** ****** ******
   6  ****** ****** ****** ****** ****** ****** ****** ****** ****** ******
      ****** ****** ****** ****** ****** ****** ****** ****** ****** ******
      ****** ****** ****** ****** ****** ****** ****** ****** ****** ******
   7  ****** ****** ****** ****** ****** ****** ****** ****** ****** ******
      ****** ****** ****** ****** ****** ****** ****** ****** ****** ******
      ****** ****** ****** ****** ****** ****** ****** ****** ****** ******
   8  ****** ****** ****** ****** ****** ****** ****** ****** ****** ******
      ****** ****** ****** ****** ****** ****** ****** ****** ****** ******
      ****** ****** ****** ****** ****** ****** ****** ****** ****** ******
   9  ****** ****** ****** ****** ****** ****** ****** ****** ****** ******
      ****** ****** ****** ****** ****** ****** ****** ****** ****** ******
      ****** ****** ****** ****** ****** ****** ****** ****** ****** ******
  10  ****** ****** ****** ****** ****** ****** ****** ****** ****** ******
      ****** ****** ****** ****** ****** ****** ****** ****** ****** ******
      ****** ****** ****** ****** ****** ****** ****** ****** ****** ******
  11  ****** ****** ****** ****** ****** ****** ****** ****** ****** ******
      ****** ****** ****** ****** ****** ****** ****** ****** ****** ******
      ****** ****** ****** ****** ****** ****** ****** ****** ****** ******
  12  ****** ****** ****** ****** ****** ****** ****** ****** ****** ******
      ****** ****** ****** ****** ****** ****** ****** ****** ****** ******
      ****** ****** ****** ****** ****** ****** ****** ****** ****** ******
  13  ****** ****** ****** ****** ****** ****** ****** ****** ****** ******
      ****** ****** ****** ****** ****** ****** ****** ****** ****** ******
      ****** ****** ****** ****** ****** ****** ****** ****** ****** ******
  14  ****** ****** ****** ****** ****** ****** ****** ****** ****** ******
      ****** ****** ****** ****** ****** ****** ****** ****** ****** ******
      ****** ****** ****** ****** ****** ****** ****** ****** ****** ******
  15  ****** ****** ****** ****** ****** ****** ****** ****** ****** ******
      ****** ****** ****** ****** ****** ****** ****** ****** ****** ******
      ****** ****** ****** ****** ****** ****** ****** ****** ****** ******
  16  ****** ****** ****** ****** ****** ****** ****** ****** ****** ******
      ****** ****** ****** ****** ****** ****** ****** ****** ****** ******
      ****** ****** ****** ****** ****** ****** ****** ****** ****** ******
  17  ****** ****** ****** ****** ****** ****** ****** ****** ****** ******
      ****** ****** ****** ****** ****** ****** ****** ****** ****** ******
      ****** ****** ****** ****** ****** ****** ****** ****** ****** ******
  18  ****** ****** ****** ****** ****** ****** ****** ****** ****** ******
      ****** ****** ****** ****** ****** ****** ****** ****** ****** ******
      ****** ****** ****** ****** ****** ****** ****** ****** ****** ******
  19  ****** ****** ****** ****** ****** ****** ****** ****** ****** ******
      ****** ****** ****** ****** ****** ****** ****** ****** ****** ******
      ****** ****** ****** ****** ****** ****** ****** ****** ****** ******
  20  ****** ****** ****** ****** ****** ****** ****** ****** ****** ******
      ****** ****** ****** ****** ****** ****** ****** ****** ****** ******
      ****** ****** ****** ****** ****** ****** ****** ****** ****** ******
  21  ****** ****** ****** ****** ****** ****** ****** ****** ****** ******
      ****** ****** ****** ****** ****** ****** ****** ****** ****** ******
      ****** ****** ****** ****** ****** ****** ****** ****** ****** ******
  22  ****** ****** ****** ****** ****** ****** ****** ****** ****** ******
      ****** ****** ****** ****** ****** ****** ****** ****** ****** ******
      ****** ****** ****** ****** ****** ****** ****** ****** ****** ******
  23  ****** ****** ****** ****** ****** ****** ****** ****** ****** ******
      ****** ****** ****** ****** ****** ****** ****** ****** ****** ******
      ****** ****** ****** ****** ****** ****** ****** ****** ****** ******
  24  ****** ****** ****** ****** ****** ****** ****** ****** ****** ******
      ****** ****** ****** ****** ****** ****** ****** ****** ****** ******
      ****** ****** ****** ****** ****** ****** ****** ****** ****** ******
  25  ****** ****** ****** ****** ****** ****** ****** ****** ****** ******
      ****** ****** ****** ****** ****** ****** ****** ****** ****** ******
      ****** ****** ****** ****** ****** ****** ****** ****** ****** ******

 HEAD WILL BE SAVED ON UNIT   51 AT END OF TIME STEP    1, STRESS PERIOD    1
1
  VOLUMETRIC BUDGET FOR ENTIRE MODEL AT END OF TIME STEP    1, STRESS PERIOD   1
  ------------------------------------------------------------------------------

     CUMULATIVE VOLUMES      L**3       RATES FOR THIS TIME STEP      L**3/T
     ------------------                 ------------------------

           IN:                                      IN:
           ---                                      ---
             STORAGE =    18037716.7497               STORAGE =      196062.1386
       CONSTANT HEAD =     1198568.3114         CONSTANT HEAD =       13027.9164
               WELLS =           0.0000                 WELLS =           0.0000
            RECHARGE =     1269600.0000              RECHARGE =       13800.0000
      STREAM LEAKAGE =      366130.3166        STREAM LEAKAGE =        3979.6774

            TOTAL IN =    20872015.3776              TOTAL IN =      226869.7324

          OUT:                                     OUT:
          ----                                     ----
             STORAGE =           0.0000               STORAGE =           0.0000
       CONSTANT HEAD =           0.0000         CONSTANT HEAD =           0.0000
               WELLS =     2633820.0474                 WELLS =       28628.4788
            RECHARGE =           0.0000              RECHARGE =           0.0000
      STREAM LEAKAGE =    18238195.6217        STREAM LEAKAGE =      198241.2568

           TOTAL OUT =    20872015.6691             TOTAL OUT =      226869.7355

            IN - OUT =          -0.2915              IN - OUT =      -3.1681E-03

 PERCENT DISCREPANCY =          -0.00     PERCENT DISCREPANCY =          -0.00






         TIME SUMMARY AT END OF TIME STEP    1 IN STRESS PERIOD    1
                    SECONDS     MINUTES      HOURS       DAYS        YEARS
                    -----------------------------------------------------------
   TIME STEP LENGTH 7.94880E+06 1.32480E+05  2208.0      92.000     0.25188    
 STRESS PERIOD TIME 7.94880E+06 1.32480E+05  2208.0      92.000     0.25188    
         TOTAL TIME 7.94880E+06 1.32480E+05  2208.0      92.000     0.25188    
1
1
                            STRESS PERIOD NO.    2, LENGTH =   91.00000    
                            -----------------------------------------------

                              NUMBER OF TIME STEPS =     1

                               MULTIPLIER FOR DELT =     1.500

                            INITIAL TIME STEP SIZE =   91.00000    

 WELL NO.  LAYER   ROW   COL   STRESS RATE         
 --------------------------------------------------
      1      1     20     17      -6946.    
      2      1     18     14     -0.1271E+05
      3      1      9      3      -2375.    
      4      1     21     12      -6598.    

      4 WELLS

                 RECHARGE =  2.000000E-03

 REUSING STREAM SEGMENT DATA FROM LAST STRESS PERIOD
 
 SOLVING FOR HEAD 


     7 CALLS TO PCG ROUTINE FOR TIME STEP   1 IN STRESS PERIOD    2
    27 TOTAL ITERATIONS

 OUTPUT CONTROL FOR STRESS PERIOD    2   TIME STEP    1
    SAVE BUDGET
    SAVE HEAD FOR ALL LAYERS
    PRINT HEAD FOR ALL LAYERS
 UBDSV2 SAVING "STREAMFLOW OUT  " ON UNIT  50 AT TIME STEP  1, STRESS PERIOD   2



 STREAM LISTING     PERIOD      2   STEP        1

 LAYER ROW COL. STREAM  RCH.  FLOW INTO     FLOW TO   FLOW OUT OF   OVRLND.     DIRECT     STREAM       STREAM     STREAM     STREAM   STREAMBED  STREAMBED
                SEG.NO.  NO.  STRM. RCH.    AQUIFER    STRM. RCH.    RUNOFF     PRECIP       ET          HEAD       DEPTH      WIDTH   CONDCTNC.   GRADIENT

   1   13    1     1     1    1.0000E+05 -3.6194E+03   1.0362E+05  0.000E+00  0.000E+00  0.000E+00  4.84076E+01  1.462E-01  2.000E+01  2.000E+04 -1.810E-01
   1   13    2     1     2    1.0362E+05 -4.8554E+03   1.0847E+05  0.000E+00  0.000E+00  0.000E+00  4.79339E+01  1.498E-01  2.000E+01  2.000E+04 -2.428E-01
   1   14    3     1     3    1.0847E+05 -1.0787E+03   1.0955E+05  0.000E+00  0.000E+00  0.000E+00  4.74592E+01  1.523E-01  2.000E+01  2.000E+04 -5.394E-02
   1   15    4     1     4    1.0955E+05 -1.1008E+03   1.1065E+05  0.000E+00  0.000E+00  0.000E+00  4.69828E+01  1.533E-01  2.000E+01  2.000E+04 -5.504E-02
   1   16    5     1     5    1.1065E+05 -3.8657E+03   1.1452E+05  0.000E+00  0.000E+00  0.000E+00  4.65076E+01  1.553E-01  2.000E+01  2.000E+04 -1.933E-01
   1   16    6     1     6    1.1452E+05 -2.1987E+03   1.1672E+05  0.000E+00  0.000E+00  0.000E+00  4.60328E+01  1.578E-01  2.000E+01  2.000E+04 -1.099E-01
   1   16    7     1     7    1.1672E+05 -2.0216E+03   1.1874E+05  0.000E+00  0.000E+00  0.000E+00  4.55573E+01  1.595E-01  2.000E+01  2.000E+04 -1.011E-01
   1   16    8     1     8    1.1874E+05 -1.8656E+03   1.2061E+05  0.000E+00  0.000E+00  0.000E+00  4.50816E+01  1.611E-01  2.000E+01  2.000E+04 -9.328E-02
   1   16    9     1     9    1.2061E+05 -1.6639E+03   1.2227E+05  0.000E+00  0.000E+00  0.000E+00  4.46057E+01  1.625E-01  2.000E+01  2.000E+04 -8.319E-02
   1   16   10     1    10    1.2227E+05 -1.3776E+03   1.2365E+05  0.000E+00  0.000E+00  0.000E+00  4.41297E+01  1.637E-01  2.000E+01  2.000E+04 -6.888E-02
   1   16   11     1    11    1.2365E+05 -9.5833E+02   1.2461E+05  0.000E+00  0.000E+00  0.000E+00  4.36533E+01  1.647E-01  2.000E+01  2.000E+04 -4.792E-02
   1   16   12     1    12    1.2461E+05 -8.5931E+02   1.2547E+05  0.000E+00  0.000E+00  0.000E+00  4.31768E+01  1.654E-01  2.000E+01  2.000E+04 -4.297E-02
   1   15   13     1    13    1.2547E+05 -1.8405E+03   1.2731E+05  0.000E+00  0.000E+00  0.000E+00  4.27006E+01  1.665E-01  2.000E+01  2.000E+04 -9.202E-02
   1   14   14     1    14    1.2731E+05 -3.0824E+03   1.3039E+05  0.000E+00  0.000E+00  0.000E+00  4.22252E+01  1.684E-01  2.000E+01  2.000E+04 -1.541E-01
   1   13   15     1    15    1.3039E+05 -4.0933E+03   1.3448E+05  0.000E+00  0.000E+00  0.000E+00  4.17508E+01  1.712E-01  2.000E+01  2.000E+04 -2.047E-01
   1   12   16     1    16    1.3448E+05 -5.5200E+03   1.4000E+05  0.000E+00  0.000E+00  0.000E+00  4.12772E+01  1.749E-01  2.000E+01  2.000E+04 -2.760E-01
   1   12   17     1    17    1.4000E+05 -3.5258E+03   1.4353E+05  0.000E+00  0.000E+00  0.000E+00  4.08033E+01  1.783E-01  2.000E+01  2.000E+04 -1.763E-01
   1   12   18     1    18    1.4353E+05 -3.3966E+03   1.4692E+05  0.000E+00  0.000E+00  0.000E+00  4.03287E+01  1.809E-01  2.000E+01  2.000E+04 -1.698E-01
   1   12   19     1    19    1.4692E+05 -4.5038E+03   1.5143E+05  0.000E+00  0.000E+00  0.000E+00  3.98543E+01  1.839E-01  2.000E+01  2.000E+04 -2.252E-01
   1   13   20     1    20    1.5143E+05 -3.2431E+03   1.5467E+05  0.000E+00  0.000E+00  0.000E+00  3.93799E+01  1.867E-01  2.000E+01  2.000E+04 -1.622E-01
   1   14   21     1    21    1.5467E+05 -2.8599E+03   1.5753E+05  0.000E+00  0.000E+00  0.000E+00  3.89049E+01  1.890E-01  2.000E+01  2.000E+04 -1.430E-01
   1   14   22     1    22    1.5753E+05  4.4512E+03   1.5308E+05  0.000E+00  0.000E+00  0.000E+00  3.84270E+01  1.884E-01  2.000E+01  2.000E+04  2.226E-01
   1    9   30     2     1    5.0000E+04 -2.1590E+03   5.2159E+04  0.000E+00  0.000E+00  0.000E+00  4.02424E+01  1.174E-01  2.000E+01  2.000E+04 -1.079E-01
   1    9   29     2     2    5.2159E+04 -2.4704E+03   5.4629E+04  0.000E+00  0.000E+00  0.000E+00  3.99955E+01  1.205E-01  2.000E+01  2.000E+04 -1.235E-01
   1    9   28     2     3    5.4629E+04 -2.7790E+03   5.7408E+04  0.000E+00  0.000E+00  0.000E+00  3.97490E+01  1.240E-01  2.000E+01  2.000E+04 -1.390E-01
   1    9   27     2     4    5.7408E+04 -4.9022E+03   6.2311E+04  0.000E+00  0.000E+00  0.000E+00  3.95041E+01  1.291E-01  2.000E+01  2.000E+04 -2.451E-01
   1   10   26     2     5    6.2311E+04 -3.8021E+03   6.6113E+04  0.000E+00  0.000E+00  0.000E+00  3.92596E+01  1.346E-01  2.000E+01  2.000E+04 -1.901E-01
   1   11   25     2     6    6.6113E+04 -3.4167E+03   6.9529E+04  0.000E+00  0.000E+00  0.000E+00  3.90141E+01  1.391E-01  2.000E+01  2.000E+04 -1.708E-01
   1   12   24     2     7    6.9529E+04 -3.2871E+03   7.2817E+04  0.000E+00  0.000E+00  0.000E+00  3.87682E+01  1.432E-01  2.000E+01  2.000E+04 -1.644E-01
   1   13   23     2     8    7.2817E+04 -6.2103E+02   7.3438E+04  0.000E+00  0.000E+00  0.000E+00  3.85206E+01  1.456E-01  2.000E+01  2.000E+04 -3.105E-02
   1   14   22     2     9    7.3438E+04  1.3136E+03   7.2124E+04  0.000E+00  0.000E+00  0.000E+00  3.82701E+01  1.451E-01  2.000E+01  2.000E+04  6.568E-02
   1   14   22     3     1    2.2520E+05 -9.0240E+03   2.3423E+05  0.000E+00  0.000E+00  0.000E+00  3.77533E+01  1.977E-01  2.000E+01  2.000E+04 -4.512E-01
   1   15   23     3     2    2.3423E+05 -9.0664E+02   2.3513E+05  0.000E+00  0.000E+00  0.000E+00  3.68669E+01  2.003E-01  2.000E+01  2.000E+04 -4.533E-02
   1   15   24     3     3    2.3513E+05 -6.3438E+02   2.3577E+05  0.000E+00  0.000E+00  0.000E+00  3.59784E+01  2.007E-01  2.000E+01  2.000E+04 -3.172E-02
   1   15   25     3     4    2.3577E+05 -6.5489E+02   2.3642E+05  0.000E+00  0.000E+00  0.000E+00  3.50899E+01  2.010E-01  2.000E+01  2.000E+04 -3.274E-02
   1   15   26     3     5    2.3642E+05 -7.6526E+02   2.3719E+05  0.000E+00  0.000E+00  0.000E+00  3.42013E+01  2.013E-01  2.000E+01  2.000E+04 -3.826E-02
   1   16   27     3     6    2.3719E+05 -8.8391E+02   2.3807E+05  0.000E+00  0.000E+00  0.000E+00  3.33129E+01  2.018E-01  2.000E+01  2.000E+04 -4.420E-02
   1   17   28     3     7    2.3807E+05 -3.1861E+03   2.4126E+05  0.000E+00  0.000E+00  0.000E+00  3.24250E+01  2.028E-01  2.000E+01  2.000E+04 -1.593E-01
   1   18   29     3     8    2.4126E+05 -4.8823E+03   2.4614E+05  0.000E+00  0.000E+00  0.000E+00  3.15382E+01  2.048E-01  2.000E+01  2.000E+04 -2.441E-01
   1   18   30     3     9    2.4614E+05 -4.5843E+03   2.5073E+05  0.000E+00  0.000E+00  0.000E+00  3.06517E+01  2.072E-01  2.000E+01  2.000E+04 -2.292E-01



1
              HEAD IN LAYER   1 AT END OF TIME STEP   1 IN STRESS PERIOD    2
  ---------------------------------------------------------------------------

          1      2      3      4      5      6      7      8      9     10
         11     12     13     14     15     16     17     18     19     20
         21     22     23     24     25     26     27     28     29     30
 .........................................................................
   1  ****** ****** ****** ****** ****** ****** ****** ****** ****** ******
      ****** ****** ****** ****** ****** ****** ****** ****** ****** ******
      ****** ****** ****** ****** ****** ****** ****** ****** ****** ******
   2  ****** ****** ****** ****** ****** ****** ****** ****** ****** ******
      ****** ****** ****** ****** ****** ****** ****** ****** ****** ******
      ****** ****** ****** ****** ****** ****** ****** ****** ****** ******
   3  ****** ****** ****** ****** ****** ****** ****** ****** ****** ******
      ****** ****** ****** ****** ****** ****** ****** ****** ****** ******
      ****** ****** ****** ****** ****** ****** ****** ****** ****** ******
   4  ****** ****** ****** ****** ****** ****** ****** ****** ****** ******
      ****** ****** ****** ****** ****** ****** ****** ****** ****** ******
      ****** ****** ****** ****** ****** ****** ****** ****** ****** ******
   5  ****** ****** ****** ****** ****** ****** ****** ****** ****** ******
      ****** ****** ****** ****** ****** ****** ****** ****** ****** ******
      ****** ****** ****** ****** ****** ****** ****** ****** ****** ******
   6  ****** ****** ****** ****** ****** ****** ****** ****** ****** ******
      ****** ****** ****** ****** ****** ****** ****** ****** ****** ******
      ****** ****** ****** ****** ****** ****** ****** ****** ****** ******
   7  ****** ****** ****** ****** ****** ****** ****** ****** ****** ******
      ****** ****** ****** ****** ****** ****** ****** ****** ****** ******
      ****** ****** ****** ****** ****** ****** ****** ****** ****** ******
   8  ****** ****** ****** ****** ****** ****** ****** ****** ****** ******
      ****** ****** ****** ****** ****** ****** ****** ****** ****** ******
      ****** ****** ****** ****** ****** ****** ****** ****** ****** ******
   9  ****** ****** ****** ****** ****** ****** ****** ****** ****** ******
      ****** ****** ****** ****** ****** ****** ****** ****** ****** ******
      ****** ****** ****** ****** ****** ****** ****** ****** ****** ******
  10  ****** ****** ****** ****** ****** ****** ****** ****** ****** ******
      ****** ****** ****** ****** ****** ****** ****** ****** ****** ******
      ****** ****** ****** ****** ****** ****** ****** ****** ****** ******
  11  ****** ****** ****** ****** ****** ****** ****** ****** ****** ******
      ****** ****** ****** ****** ****** ****** ****** ****** ****** ******
      ****** ****** ****** ****** ****** ****** ****** ****** ****** ******
  12  ****** ****** ****** ****** ****** ****** ****** ****** ****** ******
      ****** ****** ****** ****** ****** ****** ****** ****** ****** ******
      ****** ****** ****** ****** ****** ****** ****** ****** ****** ******
  13  ****** ****** ****** ****** ****** ****** ****** ****** ****** ******
      ****** ****** ****** ****** ****** ****** ****** ****** ****** ******
      ****** ****** ****** ****** ****** ****** ****** ****** ****** ******
  14  ****** ****** ****** ****** ****** ****** ****** ****** ****** ******
      ****** ****** ****** ****** ****** ****** ****** ****** ****** ******
      ****** ****** ****** ****** ****** ****** ****** ****** ****** ******
  15  ****** ****** ****** ****** ****** ****** ****** ****** ****** ******
      ****** ****** ****** ****** ****** ****** ****** ****** ****** ******
      ****** ****** ****** ****** ****** ****** ****** ****** ****** ******
  16  ****** ****** ****** ****** ****** ****** ****** ****** ****** ******
      ****** ****** ****** ****** ****** ****** ****** ****** ****** ******
      ****** ****** ****** ****** ****** ****** ****** ****** ****** ******
  17  ****** ****** ****** ****** ****** ****** ****** ****** ****** ******
      ****** ****** ****** ****** ****** ****** ****** ****** ****** ******
      ****** ****** ****** ****** ****** ****** ****** ****** ****** ******
  18  ****** ****** ****** ****** ****** ****** ****** ****** ****** ******
      ****** ****** ****** ****** ****** ****** ****** ****** ****** ******
      ****** ****** ****** ****** ****** ****** ****** ****** ****** ******
  19  ****** ****** ****** ****** ****** ****** ****** ****** ****** ******
      ****** ****** ****** ****** ****** ****** ****** ****** ****** ******
      ****** ****** ****** ****** ****** ****** ****** ****** ****** ******
  20  ****** ****** ****** ****** ****** ****** ****** ****** ****** ******
      ****** ****** ****** ****** ****** ****** ****** ****** ****** ******
      ****** ****** ****** ****** ****** ****** ****** ****** ****** ******
  21  ****** ****** ****** ****** ****** ****** ****** ****** ****** ******
      ****** ****** ****** ****** ****** ****** ****** ****** ****** ******
      ****** ****** ****** ****** ****** ****** ****** ****** ****** ******
  22  ****** ****** ****** ****** ****** ****** ****** ****** ****** ******
      ****** ****** ****** ****** ****** ****** ****** ****** ****** ******
      ****** ****** ****** ****** ****** ****** ****** ****** ****** ******
  23  ****** ****** ****** ****** ****** ****** ****** ****** ****** ******
      ****** ****** ****** ****** ****** ****** ****** ****** ****** ******
      ****** ****** ****** ****** ****** ****** ****** ****** ****** ******
  24  ****** ****** ****** ****** ****** ****** ****** ****** ****** ******
      ****** ****** ****** ****** ****** ****** ****** ****** ****** ******
      ****** ****** ****** ****** ****** ****** ****** ****** ****** ******
  25  ****** ****** ****** ****** ****** ****** ****** ****** ****** ******
      ****** ****** ****** ****** ****** ****** ****** ****** ****** ******
      ****** ****** ****** ****** ****** ****** ****** ****** ****** ******

 HEAD WILL BE SAVED ON UNIT   51 AT END OF TIME STEP    1, STRESS PERIOD    2
1
  VOLUMETRIC BUDGET FOR ENTIRE MODEL AT END OF TIME STEP    1, STRESS PERIOD   2
  ------------------------------------------------------------------------------

     CUMULATIVE VOLUMES      L**3       RATES FOR THIS TIME STEP      L**3/T
     ------------------                 ------------------------

           IN:                                      IN:
           ---                                      ---
             STORAGE =    23150017.9239               STORAGE =       56179.1338
       CONSTANT HEAD =     2834243.6083         CONSTANT HEAD =       17974.4538
               WELLS =           0.0000                 WELLS =           0.0000
            RECHARGE =     6292800.0000              RECHARGE =       55200.0000
      STREAM LEAKAGE =      890722.1331        STREAM LEAKAGE =        5764.7452

            TOTAL IN =    33167783.6653              TOTAL IN =      135118.3328

          OUT:                                     OUT:
          ----                                     ----
             STORAGE =           0.0000               STORAGE =           0.0000
       CONSTANT HEAD =           0.0000         CONSTANT HEAD =           0.0000
               WELLS =     5239011.6160                 WELLS =       28628.4788
            RECHARGE =           0.0000              RECHARGE =           0.0000
      STREAM LEAKAGE =    27928773.3561        STREAM LEAKAGE =      106489.8652

           TOTAL OUT =    33167784.9721             TOTAL OUT =      135118.3440

            IN - OUT =          -1.3068              IN - OUT =      -1.1157E-02

 PERCENT DISCREPANCY =          -0.00     PERCENT DISCREPANCY =          -0.00






         TIME SUMMARY AT END OF TIME STEP    1 IN STRESS PERIOD    2
                    SECONDS     MINUTES      HOURS       DAYS        YEARS
                    -----------------------------------------------------------
   TIME STEP LENGTH 7.86240E+06 1.31040E+05  2184.0      91.000     0.24914    
 STRESS PERIOD TIME 7.86240E+06 1.31040E+05  2184.0      91.000     0.24914    
         TOTAL TIME 1.58112E+07 2.63520E+05  4392.0      183.00     0.50103    
1
1
                            STRESS PERIOD NO.    3, LENGTH =   91.00000    
                            -----------------------------------------------

                              NUMBER OF TIME STEPS =     1

                               MULTIPLIER FOR DELT =     1.500

                            INITIAL TIME STEP SIZE =   91.00000    

 WELL NO.  LAYER   ROW   COL   STRESS RATE         
 --------------------------------------------------
      1      1     20     17      -6946.    
      2      1     18     14     -0.1271E+05
      3      1      9      3      -2375.    
      4      1     21     12      -6598.    

      4 WELLS

                 RECHARGE =   0.00000    

 REUSING STREAM SEGMENT DATA FROM LAST STRESS PERIOD
 
 SOLVING FOR HEAD 


     7 CALLS TO PCG ROUTINE FOR TIME STEP   1 IN STRESS PERIOD    3
    27 TOTAL ITERATIONS

 OUTPUT CONTROL FOR STRESS PERIOD    3   TIME STEP    1
    SAVE BUDGET
    SAVE HEAD FOR ALL LAYERS
    PRINT HEAD FOR ALL LAYERS
 UBDSV2 SAVING "STREAMFLOW OUT  " ON UNIT  50 AT TIME STEP  1, STRESS PERIOD   3



 STREAM LISTING     PERIOD      3   STEP        1

 LAYER ROW COL. STREAM  RCH.  FLOW INTO     FLOW TO   FLOW OUT OF   OVRLND.     DIRECT     STREAM       STREAM     STREAM     STREAM   STREAMBED  STREAMBED
                SEG.NO.  NO.  STRM. RCH.    AQUIFER    STRM. RCH.    RUNOFF     PRECIP       ET          HEAD       DEPTH      WIDTH   CONDCTNC.   GRADIENT

   1   13    1     1     1    1.0000E+05 -2.2934E+03   1.0229E+05  0.000E+00  0.000E+00  0.000E+00  4.84070E+01  1.456E-01  2.000E+01  2.000E+04 -1.147E-01
   1   13    2     1     2    1.0229E+05 -3.3693E+03   1.0566E+05  0.000E+00  0.000E+00  0.000E+00  4.79322E+01  1.481E-01  2.000E+01  2.000E+04 -1.685E-01
   1   14    3     1     3    1.0566E+05 -6.0357E+02   1.0627E+05  0.000E+00  0.000E+00  0.000E+00  4.74566E+01  1.498E-01  2.000E+01  2.000E+04 -3.018E-02
   1   15    4     1     4    1.0627E+05 -5.7873E+02   1.0685E+05  0.000E+00  0.000E+00  0.000E+00  4.69798E+01  1.503E-01  2.000E+01  2.000E+04 -2.894E-02
   1   16    5     1     5    1.0685E+05 -1.9482E+03   1.0879E+05  0.000E+00  0.000E+00  0.000E+00  4.65036E+01  1.513E-01  2.000E+01  2.000E+04 -9.741E-02
   1   16    6     1     6    1.0879E+05 -1.1178E+03   1.0991E+05  0.000E+00  0.000E+00  0.000E+00  4.60276E+01  1.526E-01  2.000E+01  2.000E+04 -5.589E-02
   1   16    7     1     7    1.0991E+05 -9.9280E+02   1.1090E+05  0.000E+00  0.000E+00  0.000E+00  4.55512E+01  1.535E-01  2.000E+01  2.000E+04 -4.964E-02
   1   16    8     1     8    1.1090E+05 -8.4383E+02   1.1175E+05  0.000E+00  0.000E+00  0.000E+00  4.50747E+01  1.543E-01  2.000E+01  2.000E+04 -4.219E-02
   1   16    9     1     9    1.1175E+05 -6.3229E+02   1.1238E+05  0.000E+00  0.000E+00  0.000E+00  4.45981E+01  1.549E-01  2.000E+01  2.000E+04 -3.161E-02
   1   16   10     1    10    1.1238E+05 -3.2852E+02   1.1271E+05  0.000E+00  0.000E+00  0.000E+00  4.41212E+01  1.553E-01  2.000E+01  2.000E+04 -1.643E-02
   1   16   11     1    11    1.1271E+05  1.2226E+02   1.1259E+05  0.000E+00  0.000E+00  0.000E+00  4.36440E+01  1.554E-01  2.000E+01  2.000E+04  6.113E-03
   1   16   12     1    12    1.1259E+05  1.0393E+03   1.1155E+05  0.000E+00  0.000E+00  0.000E+00  4.31662E+01  1.549E-01  2.000E+01  2.000E+04  5.197E-02
   1   15   13     1    13    1.1155E+05  2.6773E+00   1.1154E+05  0.000E+00  0.000E+00  0.000E+00  4.26885E+01  1.545E-01  2.000E+01  2.000E+04  1.339E-04
   1   14   14     1    14    1.1154E+05 -1.2469E+03   1.1279E+05  0.000E+00  0.000E+00  0.000E+00  4.22118E+01  1.550E-01  2.000E+01  2.000E+04 -6.234E-02
   1   13   15     1    15    1.1279E+05 -2.3069E+03   1.1510E+05  0.000E+00  0.000E+00  0.000E+00  4.17360E+01  1.564E-01  2.000E+01  2.000E+04 -1.153E-01
   1   12   16     1    16    1.1510E+05 -3.7508E+03   1.1885E+05  0.000E+00  0.000E+00  0.000E+00  4.12612E+01  1.589E-01  2.000E+01  2.000E+04 -1.875E-01
   1   12   17     1    17    1.1885E+05 -2.2202E+03   1.2107E+05  0.000E+00  0.000E+00  0.000E+00  4.07863E+01  1.613E-01  2.000E+01  2.000E+04 -1.110E-01
   1   12   18     1    18    1.2107E+05 -2.1104E+03   1.2318E+05  0.000E+00  0.000E+00  0.000E+00  4.03108E+01  1.631E-01  2.000E+01  2.000E+04 -1.055E-01
   1   12   19     1    19    1.2318E+05 -2.9209E+03   1.2610E+05  0.000E+00  0.000E+00  0.000E+00  3.98355E+01  1.651E-01  2.000E+01  2.000E+04 -1.460E-01
   1   13   20     1    20    1.2610E+05 -1.7098E+03   1.2781E+05  0.000E+00  0.000E+00  0.000E+00  3.93601E+01  1.669E-01  2.000E+01  2.000E+04 -8.549E-02
   1   14   21     1    21    1.2781E+05 -1.2168E+03   1.2903E+05  0.000E+00  0.000E+00  0.000E+00  3.88840E+01  1.681E-01  2.000E+01  2.000E+04 -6.084E-02
   1   14   22     1    22    1.2903E+05  4.8168E+03   1.2421E+05  0.000E+00  0.000E+00  0.000E+00  3.84053E+01  1.667E-01  2.000E+01  2.000E+04  2.408E-01
   1    9   30     2     1    5.0000E+04 -9.7362E+02   5.0974E+04  0.000E+00  0.000E+00  0.000E+00  4.02415E+01  1.165E-01  2.000E+01  2.000E+04 -4.868E-02
   1    9   29     2     2    5.0974E+04 -1.2877E+03   5.2261E+04  0.000E+00  0.000E+00  0.000E+00  3.99931E+01  1.181E-01  2.000E+01  2.000E+04 -6.439E-02
   1    9   28     2     3    5.2261E+04 -1.5857E+03   5.3847E+04  0.000E+00  0.000E+00  0.000E+00  3.97451E+01  1.201E-01  2.000E+01  2.000E+04 -7.928E-02
   1    9   27     2     4    5.3847E+04 -3.1947E+03   5.7042E+04  0.000E+00  0.000E+00  0.000E+00  3.94983E+01  1.233E-01  2.000E+01  2.000E+04 -1.597E-01
   1   10   26     2     5    5.7042E+04 -2.2055E+03   5.9247E+04  0.000E+00  0.000E+00  0.000E+00  3.92518E+01  1.268E-01  2.000E+01  2.000E+04 -1.103E-01
   1   11   25     2     6    5.9247E+04 -1.9294E+03   6.1177E+04  0.000E+00  0.000E+00  0.000E+00  3.90045E+01  1.295E-01  2.000E+01  2.000E+04 -9.647E-02
   1   12   24     2     7    6.1177E+04 -1.9586E+03   6.3135E+04  0.000E+00  0.000E+00  0.000E+00  3.87570E+01  1.320E-01  2.000E+01  2.000E+04 -9.793E-02
   1   13   23     2     8    6.3135E+04 -2.8885E+02   6.3424E+04  0.000E+00  0.000E+00  0.000E+00  3.85085E+01  1.335E-01  2.000E+01  2.000E+04 -1.444E-02
   1   14   22     2     9    6.3424E+04  1.8601E+03   6.1564E+04  0.000E+00  0.000E+00  0.000E+00  3.82575E+01  1.325E-01  2.000E+01  2.000E+04  9.301E-02
   1   14   22     3     1    1.8577E+05 -8.6484E+03   1.9442E+05  0.000E+00  0.000E+00  0.000E+00  3.77320E+01  1.765E-01  2.000E+01  2.000E+04 -4.324E-01
   1   15   23     3     2    1.9442E+05 -4.7933E+02   1.9490E+05  0.000E+00  0.000E+00  0.000E+00  3.68457E+01  1.790E-01  2.000E+01  2.000E+04 -2.397E-02
   1   15   24     3     3    1.9490E+05 -3.0066E+02   1.9520E+05  0.000E+00  0.000E+00  0.000E+00  3.59570E+01  1.792E-01  2.000E+01  2.000E+04 -1.503E-02
   1   15   25     3     4    1.9520E+05 -3.0860E+02   1.9551E+05  0.000E+00  0.000E+00  0.000E+00  3.50683E+01  1.794E-01  2.000E+01  2.000E+04 -1.543E-02
   1   15   26     3     5    1.9551E+05 -3.5765E+02   1.9587E+05  0.000E+00  0.000E+00  0.000E+00  3.41796E+01  1.796E-01  2.000E+01  2.000E+04 -1.788E-02
   1   16   27     3     6    1.9587E+05 -4.1100E+02   1.9628E+05  0.000E+00  0.000E+00  0.000E+00  3.32909E+01  1.798E-01  2.000E+01  2.000E+04 -2.055E-02
   1   17   28     3     7    1.9628E+05 -1.7418E+03   1.9802E+05  0.000E+00  0.000E+00  0.000E+00  3.24026E+01  1.804E-01  2.000E+01  2.000E+04 -8.709E-02
   1   18   29     3     8    1.9802E+05 -3.2892E+03   2.0131E+05  0.000E+00  0.000E+00  0.000E+00  3.15151E+01  1.818E-01  2.000E+01  2.000E+04 -1.645E-01
   1   18   30     3     9    2.0131E+05 -3.4029E+03   2.0471E+05  0.000E+00  0.000E+00  0.000E+00  3.06280E+01  1.836E-01  2.000E+01  2.000E+04 -1.701E-01



1
              HEAD IN LAYER   1 AT END OF TIME STEP   1 IN STRESS PERIOD    3
  ---------------------------------------------------------------------------

          1      2      3      4      5      6      7      8      9     10
         11     12     13     14     15     16     17     18     19     20
         21     22     23     24     25     26     27     28     29     30
 .........................................................................
   1  ****** ****** ****** ****** ****** ****** ****** ****** ****** ******
      ****** ****** ****** ****** ****** ****** ****** ****** ****** ******
      ****** ****** ****** ****** ****** ****** ****** ****** ****** ******
   2  ****** ****** ****** ****** ****** ****** ****** ****** ****** ******
      ****** ****** ****** ****** ****** ****** ****** ****** ****** ******
      ****** ****** ****** ****** ****** ****** ****** ****** ****** ******
   3  ****** ****** ****** ****** ****** ****** ****** ****** ****** ******
      ****** ****** ****** ****** ****** ****** ****** ****** ****** ******
      ****** ****** ****** ****** ****** ****** ****** ****** ****** ******
   4  ****** ****** ****** ****** ****** ****** ****** ****** ****** ******
      ****** ****** ****** ****** ****** ****** ****** ****** ****** ******
      ****** ****** ****** ****** ****** ****** ****** ****** ****** ******
   5  ****** ****** ****** ****** ****** ****** ****** ****** ****** ******
      ****** ****** ****** ****** ****** ****** ****** ****** ****** ******
      ****** ****** ****** ****** ****** ****** ****** ****** ****** ******
   6  ****** ****** ****** ****** ****** ****** ****** ****** ****** ******
      ****** ****** ****** ****** ****** ****** ****** ****** ****** ******
      ****** ****** ****** ****** ****** ****** ****** ****** ****** ******
   7  ****** ****** ****** ****** ****** ****** ****** ****** ****** ******
      ****** ****** ****** ****** ****** ****** ****** ****** ****** ******
      ****** ****** ****** ****** ****** ****** ****** ****** ****** ******
   8  ****** ****** ****** ****** ****** ****** ****** ****** ****** ******
      ****** ****** ****** ****** ****** ****** ****** ****** ****** ******
      ****** ****** ****** ****** ****** ****** ****** ****** ****** ******
   9  ****** ****** ****** ****** ****** ****** ****** ****** ****** ******
      ****** ****** ****** ****** ****** ****** ****** ****** ****** ******
      ****** ****** ****** ****** ****** ****** ****** ****** ****** ******
  10  ****** ****** ****** ****** ****** ****** ****** ****** ****** ******
      ****** ****** ****** ****** ****** ****** ****** ****** ****** ******
      ****** ****** ****** ****** ****** ****** ****** ****** ****** ******
  11  ****** ****** ****** ****** ****** ****** ****** ****** ****** ******
      ****** ****** ****** ****** ****** ****** ****** ****** ****** ******
      ****** ****** ****** ****** ****** ****** ****** ****** ****** ******
  12  ****** ****** ****** ****** ****** ****** ****** ****** ****** ******
      ****** ****** ****** ****** ****** ****** ****** ****** ****** ******
      ****** ****** ****** ****** ****** ****** ****** ****** ****** ******
  13  ****** ****** ****** ****** ****** ****** ****** ****** ****** ******
      ****** ****** ****** ****** ****** ****** ****** ****** ****** ******
      ****** ****** ****** ****** ****** ****** ****** ****** ****** ******
  14  ****** ****** ****** ****** ****** ****** ****** ****** ****** ******
      ****** ****** ****** ****** ****** ****** ****** ****** ****** ******
      ****** ****** ****** ****** ****** ****** ****** ****** ****** ******
  15  ****** ****** ****** ****** ****** ****** ****** ****** ****** ******
      ****** ****** ****** ****** ****** ****** ****** ****** ****** ******
      ****** ****** ****** ****** ****** ****** ****** ****** ****** ******
  16  ****** ****** ****** ****** ****** ****** ****** ****** ****** ******
      ****** ****** ****** ****** ****** ****** ****** ****** ****** ******
      ****** ****** ****** ****** ****** ****** ****** ****** ****** ******
  17  ****** ****** ****** ****** ****** ****** ****** ****** ****** ******
      ****** ****** ****** ****** ****** ****** ****** ****** ****** ******
      ****** ****** ****** ****** ****** ****** ****** ****** ****** ******
  18  ****** ****** ****** ****** ****** ****** ****** ****** ****** ******
      ****** ****** ****** ****** ****** ****** ****** ****** ****** ******
      ****** ****** ****** ****** ****** ****** ****** ****** ****** ******
  19  ****** ****** ****** ****** ****** ****** ****** ****** ****** ******
      ****** ****** ****** ****** ****** ****** ****** ****** ****** ******
      ****** ****** ****** ****** ****** ****** ****** ****** ****** ******
  20  ****** ****** ****** ****** ****** ****** ****** ****** ****** ******
      ****** ****** ****** ****** ****** ****** ****** ****** ****** ******
      ****** ****** ****** ****** ****** ****** ****** ****** ****** ******
  21  ****** ****** ****** ****** ****** ****** ****** ****** ****** ******
      ****** ****** ****** ****** ****** ****** ****** ****** ****** ******
      ****** ****** ****** ****** ****** ****** ****** ****** ****** ******
  22  ****** ****** ****** ****** ****** ****** ****** ****** ****** ******
      ****** ****** ****** ****** ****** ****** ****** ****** ****** ******
      ****** ****** ****** ****** ****** ****** ****** ****** ****** ******
  23  ****** ****** ****** ****** ****** ****** ****** ****** ****** ******
      ****** ****** ****** ****** ****** ****** ****** ****** ****** ******
      ****** ****** ****** ****** ****** ****** ****** ****** ****** ******
  24  ****** ****** ****** ****** ****** ****** ****** ****** ****** ******
      ****** ****** ****** ****** ****** ****** ****** ****** ****** ******
      ****** ****** ****** ****** ****** ****** ****** ****** ****** ******
  25  ****** ****** ****** ****** ****** ****** ****** ****** ****** ******
      ****** ****** ****** ****** ****** ****** ****** ****** ****** ******
      ****** ****** ****** ****** ****** ****** ****** ****** ****** ******

 HEAD WILL BE SAVED ON UNIT   51 AT END OF TIME STEP    1, STRESS PERIOD    3
1
  VOLUMETRIC BUDGET FOR ENTIRE MODEL AT END OF TIME STEP    1, STRESS PERIOD   3
  ------------------------------------------------------------------------------

     CUMULATIVE VOLUMES      L**3       RATES FOR THIS TIME STEP      L**3/T
     ------------------                 ------------------------

           IN:                                      IN:
           ---                                      ---
             STORAGE =    28293896.8544               STORAGE =       56526.1421
       CONSTANT HEAD =     5274486.6818         CONSTANT HEAD =       26815.8580
               WELLS =           0.0000                 WELLS =           0.0000
            RECHARGE =     6292800.0000              RECHARGE =           0.0000
      STREAM LEAKAGE =     1604271.7708        STREAM LEAKAGE =        7841.2048

            TOTAL IN =    41465455.3070              TOTAL IN =       91183.2049

          OUT:                                     OUT:
          ----                                     ----
             STORAGE =           0.0000               STORAGE =           0.0000
       CONSTANT HEAD =           0.0000         CONSTANT HEAD =           0.0000
               WELLS =     7844203.1846                 WELLS =       28628.4788
            RECHARGE =           0.0000              RECHARGE =           0.0000
      STREAM LEAKAGE =    33621254.1544        STREAM LEAKAGE =       62554.7340

           TOTAL OUT =    41465457.3390             TOTAL OUT =       91183.2128

            IN - OUT =          -2.0320              IN - OUT =      -7.9693E-03

 PERCENT DISCREPANCY =          -0.00     PERCENT DISCREPANCY =          -0.00






         TIME SUMMARY AT END OF TIME STEP    1 IN STRESS PERIOD    3
                    SECONDS     MINUTES      HOURS       DAYS        YEARS
                    -----------------------------------------------------------
   TIME STEP LENGTH 7.86240E+06 1.31040E+05  2184.0      91.000     0.24914    
 STRESS PERIOD TIME 7.86240E+06 1.31040E+05  2184.0      91.000     0.24914    
         TOTAL TIME 2.36736E+07 3.94560E+05  6576.0      274.00     0.75017    
1
1
                            STRESS PERIOD NO.    4, LENGTH =   91.00000    
                            -----------------------------------------------

                              NUMBER OF TIME STEPS =     1

                               MULTIPLIER FOR DELT =     1.500

                            INITIAL TIME STEP SIZE =   91.00000    

 WELL NO.  LAYER   ROW   COL   STRESS RATE         
 --------------------------------------------------
      1      1     20     17      -6946.    
      2      1     18     14     -0.1271E+05
      3      1      9      3      -2375.    
      4      1     21     12      -6598.    

      4 WELLS

                 RECHARGE =  1.000000E-03

 REUSING STREAM SEGMENT DATA FROM LAST STRESS PERIOD
 
 SOLVING FOR HEAD 


     6 CALLS TO PCG ROUTINE FOR TIME STEP   1 IN STRESS PERIOD    4
    23 TOTAL ITERATIONS

 OUTPUT CONTROL FOR STRESS PERIOD    4   TIME STEP    1
    SAVE BUDGET
    SAVE HEAD FOR ALL LAYERS
    PRINT HEAD FOR ALL LAYERS
 UBDSV2 SAVING "STREAMFLOW OUT  " ON UNIT  50 AT TIME STEP  1, STRESS PERIOD   4



 STREAM LISTING     PERIOD      4   STEP        1

 LAYER ROW COL. STREAM  RCH.  FLOW INTO     FLOW TO   FLOW OUT OF   OVRLND.     DIRECT     STREAM       STREAM     STREAM     STREAM   STREAMBED  STREAMBED
                SEG.NO.  NO.  STRM. RCH.    AQUIFER    STRM. RCH.    RUNOFF     PRECIP       ET          HEAD       DEPTH      WIDTH   CONDCTNC.   GRADIENT

   1   13    1     1     1    1.0000E+05 -2.0188E+03   1.0202E+05  0.000E+00  0.000E+00  0.000E+00  4.84069E+01  1.455E-01  2.000E+01  2.000E+04 -1.009E-01
   1   13    2     1     2    1.0202E+05 -3.0530E+03   1.0507E+05  0.000E+00  0.000E+00  0.000E+00  4.79318E+01  1.477E-01  2.000E+01  2.000E+04 -1.526E-01
   1   14    3     1     3    1.0507E+05 -5.6617E+02   1.0564E+05  0.000E+00  0.000E+00  0.000E+00  4.74561E+01  1.493E-01  2.000E+01  2.000E+04 -2.831E-02
   1   15    4     1     4    1.0564E+05 -5.2979E+02   1.0617E+05  0.000E+00  0.000E+00  0.000E+00  4.69793E+01  1.497E-01  2.000E+01  2.000E+04 -2.649E-02
   1   16    5     1     5    1.0617E+05 -1.5757E+03   1.0774E+05  0.000E+00  0.000E+00  0.000E+00  4.65029E+01  1.506E-01  2.000E+01  2.000E+04 -7.879E-02
   1   16    6     1     6    1.0774E+05 -9.2802E+02   1.0867E+05  0.000E+00  0.000E+00  0.000E+00  4.60267E+01  1.517E-01  2.000E+01  2.000E+04 -4.640E-02
   1   16    7     1     7    1.0867E+05 -8.1356E+02   1.0949E+05  0.000E+00  0.000E+00  0.000E+00  4.55501E+01  1.524E-01  2.000E+01  2.000E+04 -4.068E-02
   1   16    8     1     8    1.0949E+05 -6.6584E+02   1.1015E+05  0.000E+00  0.000E+00  0.000E+00  4.50735E+01  1.530E-01  2.000E+01  2.000E+04 -3.329E-02
   1   16    9     1     9    1.1015E+05 -4.5280E+02   1.1060E+05  0.000E+00  0.000E+00  0.000E+00  4.45967E+01  1.535E-01  2.000E+01  2.000E+04 -2.264E-02
   1   16   10     1    10    1.1060E+05 -1.4665E+02   1.1075E+05  0.000E+00  0.000E+00  0.000E+00  4.41196E+01  1.537E-01  2.000E+01  2.000E+04 -7.333E-03
   1   16   11     1    11    1.1075E+05  3.1319E+02   1.1044E+05  0.000E+00  0.000E+00  0.000E+00  4.36423E+01  1.537E-01  2.000E+01  2.000E+04  1.566E-02
   1   16   12     1    12    1.1044E+05  1.4226E+03   1.0901E+05  0.000E+00  0.000E+00  0.000E+00  4.31643E+01  1.529E-01  2.000E+01  2.000E+04  7.113E-02
   1   15   13     1    13    1.0901E+05  3.2572E+02   1.0869E+05  0.000E+00  0.000E+00  0.000E+00  4.26863E+01  1.522E-01  2.000E+01  2.000E+04  1.629E-02
   1   14   14     1    14    1.0869E+05 -9.2481E+02   1.0961E+05  0.000E+00  0.000E+00  0.000E+00  4.22093E+01  1.525E-01  2.000E+01  2.000E+04 -4.624E-02
   1   13   15     1    15    1.0961E+05 -1.9832E+03   1.1160E+05  0.000E+00  0.000E+00  0.000E+00  4.17332E+01  1.537E-01  2.000E+01  2.000E+04 -9.916E-02
   1   12   16     1    16    1.1160E+05 -3.3677E+03   1.1496E+05  0.000E+00  0.000E+00  0.000E+00  4.12582E+01  1.559E-01  2.000E+01  2.000E+04 -1.684E-01
   1   12   17     1    17    1.1496E+05 -1.9797E+03   1.1694E+05  0.000E+00  0.000E+00  0.000E+00  4.07831E+01  1.581E-01  2.000E+01  2.000E+04 -9.898E-02
   1   12   18     1    18    1.1694E+05 -1.8863E+03   1.1883E+05  0.000E+00  0.000E+00  0.000E+00  4.03074E+01  1.597E-01  2.000E+01  2.000E+04 -9.431E-02
   1   12   19     1    19    1.1883E+05 -2.6573E+03   1.2149E+05  0.000E+00  0.000E+00  0.000E+00  3.98320E+01  1.615E-01  2.000E+01  2.000E+04 -1.329E-01
   1   13   20     1    20    1.2149E+05 -1.5019E+03   1.2299E+05  0.000E+00  0.000E+00  0.000E+00  3.93564E+01  1.632E-01  2.000E+01  2.000E+04 -7.510E-02
   1   14   21     1    21    1.2299E+05 -9.0448E+02   1.2389E+05  0.000E+00  0.000E+00  0.000E+00  3.88800E+01  1.641E-01  2.000E+01  2.000E+04 -4.522E-02
   1   14   22     1    22    1.2389E+05  4.8595E+03   1.1903E+05  0.000E+00  0.000E+00  0.000E+00  3.84012E+01  1.626E-01  2.000E+01  2.000E+04  2.430E-01
   1    9   30     2     1    5.0000E+04 -8.9482E+02   5.0895E+04  0.000E+00  0.000E+00  0.000E+00  4.02415E+01  1.165E-01  2.000E+01  2.000E+04 -4.474E-02
   1    9   29     2     2    5.0895E+04 -1.2024E+03   5.2097E+04  0.000E+00  0.000E+00  0.000E+00  3.99929E+01  1.179E-01  2.000E+01  2.000E+04 -6.012E-02
   1    9   28     2     3    5.2097E+04 -1.4814E+03   5.3579E+04  0.000E+00  0.000E+00  0.000E+00  3.97448E+01  1.198E-01  2.000E+01  2.000E+04 -7.407E-02
   1    9   27     2     4    5.3579E+04 -2.9498E+03   5.6528E+04  0.000E+00  0.000E+00  0.000E+00  3.94978E+01  1.228E-01  2.000E+01  2.000E+04 -1.475E-01
   1   10   26     2     5    5.6528E+04 -2.0673E+03   5.8596E+04  0.000E+00  0.000E+00  0.000E+00  3.92511E+01  1.261E-01  2.000E+01  2.000E+04 -1.034E-01
   1   11   25     2     6    5.8596E+04 -1.8293E+03   6.0425E+04  0.000E+00  0.000E+00  0.000E+00  3.90036E+01  1.286E-01  2.000E+01  2.000E+04 -9.147E-02
   1   12   24     2     7    6.0425E+04 -1.8742E+03   6.2299E+04  0.000E+00  0.000E+00  0.000E+00  3.87560E+01  1.310E-01  2.000E+01  2.000E+04 -9.371E-02
   1   13   23     2     8    6.2299E+04 -3.1630E+02   6.2616E+04  0.000E+00  0.000E+00  0.000E+00  3.85074E+01  1.324E-01  2.000E+01  2.000E+04 -1.581E-02
   1   14   22     2     9    6.2616E+04  1.9630E+03   6.0653E+04  0.000E+00  0.000E+00  0.000E+00  3.82564E+01  1.314E-01  2.000E+01  2.000E+04  9.815E-02
   1   14   22     3     1    1.7969E+05 -8.5922E+03   1.8828E+05  0.000E+00  0.000E+00  0.000E+00  3.77286E+01  1.730E-01  2.000E+01  2.000E+04 -4.296E-01
   1   15   23     3     2    1.8828E+05 -4.3706E+02   1.8872E+05  0.000E+00  0.000E+00  0.000E+00  3.68423E+01  1.756E-01  2.000E+01  2.000E+04 -2.185E-02
   1   15   24     3     3    1.8872E+05 -2.9289E+02   1.8901E+05  0.000E+00  0.000E+00  0.000E+00  3.59536E+01  1.758E-01  2.000E+01  2.000E+04 -1.464E-02
   1   15   25     3     4    1.8901E+05 -3.0276E+02   1.8931E+05  0.000E+00  0.000E+00  0.000E+00  3.50648E+01  1.760E-01  2.000E+01  2.000E+04 -1.514E-02
   1   15   26     3     5    1.8931E+05 -3.6389E+02   1.8968E+05  0.000E+00  0.000E+00  0.000E+00  3.41761E+01  1.761E-01  2.000E+01  2.000E+04 -1.819E-02
   1   16   27     3     6    1.8968E+05 -4.0593E+02   1.9008E+05  0.000E+00  0.000E+00  0.000E+00  3.32875E+01  1.764E-01  2.000E+01  2.000E+04 -2.030E-02
   1   17   28     3     7    1.9008E+05 -1.6564E+03   1.9174E+05  0.000E+00  0.000E+00  0.000E+00  3.23992E+01  1.769E-01  2.000E+01  2.000E+04 -8.282E-02
   1   18   29     3     8    1.9174E+05 -3.0219E+03   1.9476E+05  0.000E+00  0.000E+00  0.000E+00  3.15116E+01  1.782E-01  2.000E+01  2.000E+04 -1.511E-01
   1   18   30     3     9    1.9476E+05 -3.2654E+03   1.9803E+05  0.000E+00  0.000E+00  0.000E+00  3.06244E+01  1.800E-01  2.000E+01  2.000E+04 -1.633E-01



1
              HEAD IN LAYER   1 AT END OF TIME STEP   1 IN STRESS PERIOD    4
  ---------------------------------------------------------------------------

          1      2      3      4      5      6      7      8      9     10
         11     12     13     14     15     16     17     18     19     20
         21     22     23     24     25     26     27     28     29     30
 .........................................................................
   1  ****** ****** ****** ****** ****** ****** ****** ****** ****** ******
      ****** ****** ****** ****** ****** ****** ****** ****** ****** ******
      ****** ****** ****** ****** ****** ****** ****** ****** ****** ******
   2  ****** ****** ****** ****** ****** ****** ****** ****** ****** ******
      ****** ****** ****** ****** ****** ****** ****** ****** ****** ******
      ****** ****** ****** ****** ****** ****** ****** ****** ****** ******
   3  ****** ****** ****** ****** ****** ****** ****** ****** ****** ******
      ****** ****** ****** ****** ****** ****** ****** ****** ****** ******
      ****** ****** ****** ****** ****** ****** ****** ****** ****** ******
   4  ****** ****** ****** ****** ****** ****** ****** ****** ****** ******
      ****** ****** ****** ****** ****** ****** ****** ****** ****** ******
      ****** ****** ****** ****** ****** ****** ****** ****** ****** ******
   5  ****** ****** ****** ****** ****** ****** ****** ****** ****** ******
      ****** ****** ****** ****** ****** ****** ****** ****** ****** ******
      ****** ****** ****** ****** ****** ****** ****** ****** ****** ******
   6  ****** ****** ****** ****** ****** ****** ****** ****** ****** ******
      ****** ****** ****** ****** ****** ****** ****** ****** ****** ******
      ****** ****** ****** ****** ****** ****** ****** ****** ****** ******
   7  ****** ****** ****** ****** ****** ****** ****** ****** ****** ******
      ****** ****** ****** ****** ****** ****** ****** ****** ****** ******
      ****** ****** ****** ****** ****** ****** ****** ****** ****** ******
   8  ****** ****** ****** ****** ****** ****** ****** ****** ****** ******
      ****** ****** ****** ****** ****** ****** ****** ****** ****** ******
      ****** ****** ****** ****** ****** ****** ****** ****** ****** ******
   9  ****** ****** ****** ****** ****** ****** ****** ****** ****** ******
      ****** ****** ****** ****** ****** ****** ****** ****** ****** ******
      ****** ****** ****** ****** ****** ****** ****** ****** ****** ******
  10  ****** ****** ****** ****** ****** ****** ****** ****** ****** ******
      ****** ****** ****** ****** ****** ****** ****** ****** ****** ******
      ****** ****** ****** ****** ****** ****** ****** ****** ****** ******
  11  ****** ****** ****** ****** ****** ****** ****** ****** ****** ******
      ****** ****** ****** ****** ****** ****** ****** ****** ****** ******
      ****** ****** ****** ****** ****** ****** ****** ****** ****** ******
  12  ****** ****** ****** ****** ****** ****** ****** ****** ****** ******
      ****** ****** ****** ****** ****** ****** ****** ****** ****** ******
      ****** ****** ****** ****** ****** ****** ****** ****** ****** ******
  13  ****** ****** ****** ****** ****** ****** ****** ****** ****** ******
      ****** ****** ****** ****** ****** ****** ****** ****** ****** ******
      ****** ****** ****** ****** ****** ****** ****** ****** ****** ******
  14  ****** ****** ****** ****** ****** ****** ****** ****** ****** ******
      ****** ****** ****** ****** ****** ****** ****** ****** ****** ******
      ****** ****** ****** ****** ****** ****** ****** ****** ****** ******
  15  ****** ****** ****** ****** ****** ****** ****** ****** ****** ******
      ****** ****** ****** ****** ****** ****** ****** ****** ****** ******
      ****** ****** ****** ****** ****** ****** ****** ****** ****** ******
  16  ****** ****** ****** ****** ****** ****** ****** ****** ****** ******
      ****** ****** ****** ****** ****** ****** ****** ****** ****** ******
      ****** ****** ****** ****** ****** ****** ****** ****** ****** ******
  17  ****** ****** ****** ****** ****** ****** ****** ****** ****** ******
      ****** ****** ****** ****** ****** ****** ****** ****** ****** ******
      ****** ****** ****** ****** ****** ****** ****** ****** ****** ******
  18  ****** ****** ****** ****** ****** ****** ****** ****** ****** ******
      ****** ****** ****** ****** ****** ****** ****** ****** ****** ******
      ****** ****** ****** ****** ****** ****** ****** ****** ****** ******
  19  ****** ****** ****** ****** ****** ****** ****** ****** ****** ******
      ****** ****** ****** ****** ****** ****** ****** ****** ****** ******
      ****** ****** ****** ****** ****** ****** ****** ****** ****** ******
  20  ****** ****** ****** ****** ****** ****** ****** ****** ****** ******
      ****** ****** ****** ****** ****** ****** ****** ****** ****** ******
      ****** ****** ****** ****** ****** ****** ****** ****** ****** ******
  21  ****** ****** ****** ****** ****** ****** ****** ****** ****** ******
      ****** ****** ****** ****** ****** ****** ****** ****** ****** ******
      ****** ****** ****** ****** ****** ****** ****** ****** ****** ******
  22  ****** ****** ****** ****** ****** ****** ****** ****** ****** ******
      ****** ****** ****** ****** ****** ****** ****** ****** ****** ******
      ****** ****** ****** ****** ****** ****** ****** ****** ****** ******
  23  ****** ****** ****** ****** ****** ****** ****** ****** ****** ******
      ****** ****** ****** ****** ****** ****** ****** ****** ****** ******
      ****** ****** ****** ****** ****** ****** ****** ****** ****** ******
  24  ****** ****** ****** ****** ****** ****** ****** ****** ****** ******
      ****** ****** ****** ****** ****** ****** ****** ****** ****** ******
      ****** ****** ****** ****** ****** ****** ****** ****** ****** ******
  25  ****** ****** ****** ****** ****** ****** ****** ****** ****** ******
      ****** ****** ****** ****** ****** ****** ****** ****** ****** ******
      ****** ****** ****** ****** ****** ****** ****** ****** ****** ******

 HEAD WILL BE SAVED ON UNIT   51 AT END OF TIME STEP    1, STRESS PERIOD    4
1
  VOLUMETRIC BUDGET FOR ENTIRE MODEL AT END OF TIME STEP    1, STRESS PERIOD   4
  ------------------------------------------------------------------------------

     CUMULATIVE VOLUMES      L**3       RATES FOR THIS TIME STEP      L**3/T
     ------------------                 ------------------------

           IN:                                      IN:
           ---                                      ---
             STORAGE =    30065527.7603               STORAGE =       19468.4715
       CONSTANT HEAD =     7968016.9431         CONSTANT HEAD =       29599.2336
               WELLS =           0.0000                 WELLS =           0.0000
            RECHARGE =     8804400.0000              RECHARGE =       27600.0000
      STREAM LEAKAGE =     2412713.3227        STREAM LEAKAGE =        8883.9731

            TOTAL IN =    49250658.0260              TOTAL IN =       85551.6782

          OUT:                                     OUT:
          ----                                     ----
             STORAGE =        1235.9598               STORAGE =          13.5820
       CONSTANT HEAD =           0.0000         CONSTANT HEAD =           0.0000
               WELLS =    10449394.7532                 WELLS =       28628.4788
            RECHARGE =           0.0000              RECHARGE =           0.0000
      STREAM LEAKAGE =    38800029.4379        STREAM LEAKAGE =       56909.6185

           TOTAL OUT =    49250660.1509             TOTAL OUT =       85551.6793

            IN - OUT =          -2.1249              IN - OUT =      -1.0210E-03

 PERCENT DISCREPANCY =          -0.00     PERCENT DISCREPANCY =          -0.00






         TIME SUMMARY AT END OF TIME STEP    1 IN STRESS PERIOD    4
                    SECONDS     MINUTES      HOURS       DAYS        YEARS
                    -----------------------------------------------------------
   TIME STEP LENGTH 7.86240E+06 1.31040E+05  2184.0      91.000     0.24914    
 STRESS PERIOD TIME 7.86240E+06 1.31040E+05  2184.0      91.000     0.24914    
         TOTAL TIME 3.15360E+07 5.25600E+05  8760.0      365.00     0.99932    
1
1
                            STRESS PERIOD NO.    5, LENGTH =   92.00000    
                            -----------------------------------------------

                              NUMBER OF TIME STEPS =     1

                               MULTIPLIER FOR DELT =     1.500

                            INITIAL TIME STEP SIZE =   92.00000    

 WELL NO.  LAYER   ROW   COL   STRESS RATE         
 --------------------------------------------------
      1      1     20     17      -6946.    
      2      1     18     14     -0.1271E+05
      3      1      9      3      -2375.    
      4      1     21     12      -6598.    

      4 WELLS

                 RECHARGE =  5.000000E-04

 REUSING STREAM SEGMENT DATA FROM LAST STRESS PERIOD
 
 SOLVING FOR HEAD 


     7 CALLS TO PCG ROUTINE FOR TIME STEP   1 IN STRESS PERIOD    5
    26 TOTAL ITERATIONS

 OUTPUT CONTROL FOR STRESS PERIOD    5   TIME STEP    1
    SAVE BUDGET
    SAVE HEAD FOR ALL LAYERS
    PRINT HEAD FOR ALL LAYERS
 UBDSV2 SAVING "STREAMFLOW OUT  " ON UNIT  50 AT TIME STEP  1, STRESS PERIOD   5



 STREAM LISTING     PERIOD      5   STEP        1

 LAYER ROW COL. STREAM  RCH.  FLOW INTO     FLOW TO   FLOW OUT OF   OVRLND.     DIRECT     STREAM       STREAM     STREAM     STREAM   STREAMBED  STREAMBED
                SEG.NO.  NO.  STRM. RCH.    AQUIFER    STRM. RCH.    RUNOFF     PRECIP       ET          HEAD       DEPTH      WIDTH   CONDCTNC.   GRADIENT

   1   13    1     1     1    1.0000E+05 -1.5829E+03   1.0158E+05  0.000E+00  0.000E+00  0.000E+00  4.84067E+01  1.453E-01  2.000E+01  2.000E+04 -7.915E-02
   1   13    2     1     2    1.0158E+05 -2.5610E+03   1.0414E+05  0.000E+00  0.000E+00  0.000E+00  4.79312E+01  1.471E-01  2.000E+01  2.000E+04 -1.281E-01
   1   14    3     1     3    1.0414E+05 -4.3870E+02   1.0458E+05  0.000E+00  0.000E+00  0.000E+00  4.74552E+01  1.484E-01  2.000E+01  2.000E+04 -2.193E-02
   1   15    4     1     4    1.0458E+05 -3.9477E+02   1.0498E+05  0.000E+00  0.000E+00  0.000E+00  4.69783E+01  1.488E-01  2.000E+01  2.000E+04 -1.974E-02
   1   16    5     1     5    1.0498E+05 -1.1056E+03   1.0608E+05  0.000E+00  0.000E+00  0.000E+00  4.65017E+01  1.494E-01  2.000E+01  2.000E+04 -5.528E-02
   1   16    6     1     6    1.0608E+05 -6.5390E+02   1.0674E+05  0.000E+00  0.000E+00  0.000E+00  4.60251E+01  1.501E-01  2.000E+01  2.000E+04 -3.269E-02
   1   16    7     1     7    1.0674E+05 -5.5024E+02   1.0729E+05  0.000E+00  0.000E+00  0.000E+00  4.55484E+01  1.507E-01  2.000E+01  2.000E+04 -2.751E-02
   1   16    8     1     8    1.0729E+05 -4.0538E+02   1.0769E+05  0.000E+00  0.000E+00  0.000E+00  4.50715E+01  1.511E-01  2.000E+01  2.000E+04 -2.027E-02
   1   16    9     1     9    1.0769E+05 -1.9388E+02   1.0789E+05  0.000E+00  0.000E+00  0.000E+00  4.45945E+01  1.513E-01  2.000E+01  2.000E+04 -9.694E-03
   1   16   10     1    10    1.0789E+05  1.1103E+02   1.0778E+05  0.000E+00  0.000E+00  0.000E+00  4.41173E+01  1.513E-01  2.000E+01  2.000E+04  5.551E-03
   1   16   11     1    11    1.0778E+05  5.7515E+02   1.0720E+05  0.000E+00  0.000E+00  0.000E+00  4.36397E+01  1.511E-01  2.000E+01  2.000E+04  2.876E-02
   1   16   12     1    12    1.0720E+05  1.8921E+03   1.0531E+05  0.000E+00  0.000E+00  0.000E+00  4.31614E+01  1.500E-01  2.000E+01  2.000E+04  9.460E-02
   1   15   13     1    13    1.0531E+05  7.9815E+02   1.0451E+05  0.000E+00  0.000E+00  0.000E+00  4.26830E+01  1.489E-01  2.000E+01  2.000E+04  3.991E-02
   1   14   14     1    14    1.0451E+05 -4.3530E+02   1.0495E+05  0.000E+00  0.000E+00  0.000E+00  4.22055E+01  1.487E-01  2.000E+01  2.000E+04 -2.177E-02
   1   13   15     1    15    1.0495E+05 -1.4872E+03   1.0643E+05  0.000E+00  0.000E+00  0.000E+00  4.17291E+01  1.495E-01  2.000E+01  2.000E+04 -7.436E-02
   1   12   16     1    16    1.0643E+05 -2.8433E+03   1.0928E+05  0.000E+00  0.000E+00  0.000E+00  4.12536E+01  1.514E-01  2.000E+01  2.000E+04 -1.422E-01
   1   12   17     1    17    1.0928E+05 -1.6219E+03   1.1090E+05  0.000E+00  0.000E+00  0.000E+00  4.07782E+01  1.532E-01  2.000E+01  2.000E+04 -8.109E-02
   1   12   18     1    18    1.1090E+05 -1.5453E+03   1.1244E+05  0.000E+00  0.000E+00  0.000E+00  4.03023E+01  1.546E-01  2.000E+01  2.000E+04 -7.727E-02
   1   12   19     1    19    1.1244E+05 -2.2513E+03   1.1469E+05  0.000E+00  0.000E+00  0.000E+00  3.98266E+01  1.561E-01  2.000E+01  2.000E+04 -1.126E-01
   1   13   20     1    20    1.1469E+05 -1.1278E+03   1.1582E+05  0.000E+00  0.000E+00  0.000E+00  3.93507E+01  1.575E-01  2.000E+01  2.000E+04 -5.639E-02
   1   14   21     1    21    1.1582E+05 -4.8281E+02   1.1630E+05  0.000E+00  0.000E+00  0.000E+00  3.88741E+01  1.582E-01  2.000E+01  2.000E+04 -2.414E-02
   1   14   22     1    22    1.1630E+05  4.9412E+03   1.1136E+05  0.000E+00  0.000E+00  0.000E+00  3.83950E+01  1.563E-01  2.000E+01  2.000E+04  2.471E-01
   1    9   30     2     1    5.0000E+04 -6.6915E+02   5.0669E+04  0.000E+00  0.000E+00  0.000E+00  4.02413E+01  1.163E-01  2.000E+01  2.000E+04 -3.346E-02
   1    9   29     2     2    5.0669E+04 -9.7347E+02   5.1643E+04  0.000E+00  0.000E+00  0.000E+00  3.99925E+01  1.175E-01  2.000E+01  2.000E+04 -4.867E-02
   1    9   28     2     3    5.1643E+04 -1.2414E+03   5.2884E+04  0.000E+00  0.000E+00  0.000E+00  3.97440E+01  1.190E-01  2.000E+01  2.000E+04 -6.207E-02
   1    9   27     2     4    5.2884E+04 -2.5736E+03   5.5458E+04  0.000E+00  0.000E+00  0.000E+00  3.94966E+01  1.216E-01  2.000E+01  2.000E+04 -1.287E-01
   1   10   26     2     5    5.5458E+04 -1.7376E+03   5.7195E+04  0.000E+00  0.000E+00  0.000E+00  3.92495E+01  1.245E-01  2.000E+01  2.000E+04 -8.688E-02
   1   11   25     2     6    5.7195E+04 -1.5262E+03   5.8721E+04  0.000E+00  0.000E+00  0.000E+00  3.90016E+01  1.266E-01  2.000E+01  2.000E+04 -7.631E-02
   1   12   24     2     7    5.8721E+04 -1.5972E+03   6.0319E+04  0.000E+00  0.000E+00  0.000E+00  3.87536E+01  1.286E-01  2.000E+01  2.000E+04 -7.986E-02
   1   13   23     2     8    6.0319E+04 -2.4879E+02   6.0567E+04  0.000E+00  0.000E+00  0.000E+00  3.85048E+01  1.298E-01  2.000E+01  2.000E+04 -1.244E-02
   1   14   22     2     9    6.0567E+04  2.1140E+03   5.8453E+04  0.000E+00  0.000E+00  0.000E+00  3.82536E+01  1.286E-01  2.000E+01  2.000E+04  1.057E-01
   1   14   22     3     1    1.6982E+05 -8.4996E+03   1.7832E+05  0.000E+00  0.000E+00  0.000E+00  3.77229E+01  1.674E-01  2.000E+01  2.000E+04 -4.250E-01
   1   15   23     3     2    1.7832E+05 -3.2776E+02   1.7864E+05  0.000E+00  0.000E+00  0.000E+00  3.68366E+01  1.699E-01  2.000E+01  2.000E+04 -1.639E-02
   1   15   24     3     3    1.7864E+05 -2.1600E+02   1.7886E+05  0.000E+00  0.000E+00  0.000E+00  3.59479E+01  1.701E-01  2.000E+01  2.000E+04 -1.080E-02
   1   15   25     3     4    1.7886E+05 -2.2759E+02   1.7909E+05  0.000E+00  0.000E+00  0.000E+00  3.50591E+01  1.702E-01  2.000E+01  2.000E+04 -1.138E-02
   1   15   26     3     5    1.7909E+05 -2.8946E+02   1.7938E+05  0.000E+00  0.000E+00  0.000E+00  3.41704E+01  1.704E-01  2.000E+01  2.000E+04 -1.447E-02
   1   16   27     3     6    1.7938E+05 -3.1106E+02   1.7969E+05  0.000E+00  0.000E+00  0.000E+00  3.32816E+01  1.705E-01  2.000E+01  2.000E+04 -1.555E-02
   1   17   28     3     7    1.7969E+05 -1.3720E+03   1.8106E+05  0.000E+00  0.000E+00  0.000E+00  3.23932E+01  1.710E-01  2.000E+01  2.000E+04 -6.860E-02
   1   18   29     3     8    1.8106E+05 -2.6112E+03   1.8367E+05  0.000E+00  0.000E+00  0.000E+00  3.15055E+01  1.721E-01  2.000E+01  2.000E+04 -1.306E-01
   1   18   30     3     9    1.8367E+05 -2.9859E+03   1.8666E+05  0.000E+00  0.000E+00  0.000E+00  3.06182E+01  1.737E-01  2.000E+01  2.000E+04 -1.493E-01



1
              HEAD IN LAYER   1 AT END OF TIME STEP   1 IN STRESS PERIOD    5
  ---------------------------------------------------------------------------

          1      2      3      4      5      6      7      8      9     10
         11     12     13     14     15     16     17     18     19     20
         21     22     23     24     25     26     27     28     29     30
 .........................................................................
   1  ****** ****** ****** ****** ****** ****** ****** ****** ****** ******
      ****** ****** ****** ****** ****** ****** ****** ****** ****** ******
      ****** ****** ****** ****** ****** ****** ****** ****** ****** ******
   2  ****** ****** ****** ****** ****** ****** ****** ****** ****** ******
      ****** ****** ****** ****** ****** ****** ****** ****** ****** ******
      ****** ****** ****** ****** ****** ****** ****** ****** ****** ******
   3  ****** ****** ****** ****** ****** ****** ****** ****** ****** ******
      ****** ****** ****** ****** ****** ****** ****** ****** ****** ******
      ****** ****** ****** ****** ****** ****** ****** ****** ****** ******
   4  ****** ****** ****** ****** ****** ****** ****** ****** ****** ******
      ****** ****** ****** ****** ****** ****** ****** ****** ****** ******
      ****** ****** ****** ****** ****** ****** ****** ****** ****** ******
   5  ****** ****** ****** ****** ****** ****** ****** ****** ****** ******
      ****** ****** ****** ****** ****** ****** ****** ****** ****** ******
      ****** ****** ****** ****** ****** ****** ****** ****** ****** ******
   6  ****** ****** ****** ****** ****** ****** ****** ****** ****** ******
      ****** ****** ****** ****** ****** ****** ****** ****** ****** ******
      ****** ****** ****** ****** ****** ****** ****** ****** ****** ******
   7  ****** ****** ****** ****** ****** ****** ****** ****** ****** ******
      ****** ****** ****** ****** ****** ****** ****** ****** ****** ******
      ****** ****** ****** ****** ****** ****** ****** ****** ****** ******
   8  ****** ****** ****** ****** ****** ****** ****** ****** ****** ******
      ****** ****** ****** ****** ****** ****** ****** ****** ****** ******
      ****** ****** ****** ****** ****** ****** ****** ****** ****** ******
   9  ****** ****** ****** ****** ****** ****** ****** ****** ****** ******
      ****** ****** ****** ****** ****** ****** ****** ****** ****** ******
      ****** ****** ****** ****** ****** ****** ****** ****** ****** ******
  10  ****** ****** ****** ****** ****** ****** ****** ****** ****** ******
      ****** ****** ****** ****** ****** ****** ****** ****** ****** ******
      ****** ****** ****** ****** ****** ****** ****** ****** ****** ******
  11  ****** ****** ****** ****** ****** ****** ****** ****** ****** ******
      ****** ****** ****** ****** ****** ****** ****** ****** ****** ******
      ****** ****** ****** ****** ****** ****** ****** ****** ****** ******
  12  ****** ****** ****** ****** ****** ****** ****** ****** ****** ******
      ****** ****** ****** ****** ****** ****** ****** ****** ****** ******
      ****** ****** ****** ****** ****** ****** ****** ****** ****** ******
  13  ****** ****** ****** ****** ****** ****** ****** ****** ****** ******
      ****** ****** ****** ****** ****** ****** ****** ****** ****** ******
      ****** ****** ****** ****** ****** ****** ****** ****** ****** ******
  14  ****** ****** ****** ****** ****** ****** ****** ****** ****** ******
      ****** ****** ****** ****** ****** ****** ****** ****** ****** ******
      ****** ****** ****** ****** ****** ****** ****** ****** ****** ******
  15  ****** ****** ****** ****** ****** ****** ****** ****** ****** ******
      ****** ****** ****** ****** ****** ****** ****** ****** ****** ******
      ****** ****** ****** ****** ****** ****** ****** ****** ****** ******
  16  ****** ****** ****** ****** ****** ****** ****** ****** ****** ******
      ****** ****** ****** ****** ****** ****** ****** ****** ****** ******
      ****** ****** ****** ****** ****** ****** ****** ****** ****** ******
  17  ****** ****** ****** ****** ****** ****** ****** ****** ****** ******
      ****** ****** ****** ****** ****** ****** ****** ****** ****** ******
      ****** ****** ****** ****** ****** ****** ****** ****** ****** ******
  18  ****** ****** ****** ****** ****** ****** ****** ****** ****** ******
      ****** ****** ****** ****** ****** ****** ****** ****** ****** ******
      ****** ****** ****** ****** ****** ****** ****** ****** ****** ******
  19  ****** ****** ****** ****** ****** ****** ****** ****** ****** ******
      ****** ****** ****** ****** ****** ****** ****** ****** ****** ******
      ****** ****** ****** ****** ****** ****** ****** ****** ****** ******
  20  ****** ****** ****** ****** ****** ****** ****** ****** ****** ******
      ****** ****** ****** ****** ****** ****** ****** ****** ****** ******
      ****** ****** ****** ****** ****** ****** ****** ****** ****** ******
  21  ****** ****** ****** ****** ****** ****** ****** ****** ****** ******
      ****** ****** ****** ****** ****** ****** ****** ****** ****** ******
      ****** ****** ****** ****** ****** ****** ****** ****** ****** ******
  22  ****** ****** ****** ****** ****** ****** ****** ****** ****** ******
      ****** ****** ****** ****** ****** ****** ****** ****** ****** ******
      ****** ****** ****** ****** ****** ****** ****** ****** ****** ******
  23  ****** ****** ****** ****** ****** ****** ****** ****** ****** ******
      ****** ****** ****** ****** ****** ****** ****** ****** ****** ******
      ****** ****** ****** ****** ****** ****** ****** ****** ****** ******
  24  ****** ****** ****** ****** ****** ****** ****** ****** ****** ******
      ****** ****** ****** ****** ****** ****** ****** ****** ****** ******
      ****** ****** ****** ****** ****** ****** ****** ****** ****** ******
  25  ****** ****** ****** ****** ****** ****** ****** ****** ****** ******
      ****** ****** ****** ****** ****** ****** ****** ****** ****** ******
      ****** ****** ****** ****** ****** ****** ****** ****** ****** ******

 HEAD WILL BE SAVED ON UNIT   51 AT END OF TIME STEP    1, STRESS PERIOD    5
1
  VOLUMETRIC BUDGET FOR ENTIRE MODEL AT END OF TIME STEP    1, STRESS PERIOD   5
  ------------------------------------------------------------------------------

     CUMULATIVE VOLUMES      L**3       RATES FOR THIS TIME STEP      L**3/T
     ------------------                 ------------------------

           IN:                                      IN:
           ---                                      ---
             STORAGE =    31800317.9183               STORAGE =       18856.4148
       CONSTANT HEAD =    10969946.1556         CONSTANT HEAD =       32629.6654
               WELLS =           0.0000                 WELLS =           0.0000
            RECHARGE =    10074000.0000              RECHARGE =       13800.0000
      STREAM LEAKAGE =     3372420.2916        STREAM LEAKAGE =       10431.5975

            TOTAL IN =    56216684.3656              TOTAL IN =       75717.6776

          OUT:                                     OUT:
          ----                                     ----
             STORAGE =        1235.9598               STORAGE =           0.0000
       CONSTANT HEAD =           0.0000         CONSTANT HEAD =           0.0000
               WELLS =    13083214.8006                 WELLS =       28628.4788
            RECHARGE =           0.0000              RECHARGE =           0.0000
      STREAM LEAKAGE =    43132236.0458        STREAM LEAKAGE =       47089.2023

           TOTAL OUT =    56216686.8062             TOTAL OUT =       75717.6810

            IN - OUT =          -2.4406              IN - OUT =      -3.4311E-03

 PERCENT DISCREPANCY =          -0.00     PERCENT DISCREPANCY =          -0.00






         TIME SUMMARY AT END OF TIME STEP    1 IN STRESS PERIOD    5
                    SECONDS     MINUTES      HOURS       DAYS        YEARS
                    -----------------------------------------------------------
   TIME STEP LENGTH 7.94880E+06 1.32480E+05  2208.0      92.000     0.25188    
 STRESS PERIOD TIME 7.94880E+06 1.32480E+05  2208.0      92.000     0.25188    
         TOTAL TIME 3.94848E+07 6.58080E+05  10968.      457.00      1.2512    
1
1
                            STRESS PERIOD NO.    6, LENGTH =   91.00000    
                            -----------------------------------------------

                              NUMBER OF TIME STEPS =     1

                               MULTIPLIER FOR DELT =     1.500

                            INITIAL TIME STEP SIZE =   91.00000    

 WELL NO.  LAYER   ROW   COL   STRESS RATE         
 --------------------------------------------------
      1      1     20     17      -6946.    
      2      1     18     14     -0.1271E+05
      3      1      9      3      -2375.    
      4      1     21     12      -6598.    

      4 WELLS

                 RECHARGE =  2.000000E-03

 REUSING STREAM SEGMENT DATA FROM LAST STRESS PERIOD
 
 SOLVING FOR HEAD 


     7 CALLS TO PCG ROUTINE FOR TIME STEP   1 IN STRESS PERIOD    6
    26 TOTAL ITERATIONS

 OUTPUT CONTROL FOR STRESS PERIOD    6   TIME STEP    1
    SAVE BUDGET
    SAVE HEAD FOR ALL LAYERS
    PRINT HEAD FOR ALL LAYERS
 UBDSV2 SAVING "STREAMFLOW OUT  " ON UNIT  50 AT TIME STEP  1, STRESS PERIOD   6



 STREAM LISTING     PERIOD      6   STEP        1

 LAYER ROW COL. STREAM  RCH.  FLOW INTO     FLOW TO   FLOW OUT OF   OVRLND.     DIRECT     STREAM       STREAM     STREAM     STREAM   STREAMBED  STREAMBED
                SEG.NO.  NO.  STRM. RCH.    AQUIFER    STRM. RCH.    RUNOFF     PRECIP       ET          HEAD       DEPTH      WIDTH   CONDCTNC.   GRADIENT

   1   13    1     1     1    1.0000E+05 -1.8870E+03   1.0189E+05  0.000E+00  0.000E+00  0.000E+00  4.84068E+01  1.455E-01  2.000E+01  2.000E+04 -9.435E-02
   1   13    2     1     2    1.0189E+05 -2.8940E+03   1.0478E+05  0.000E+00  0.000E+00  0.000E+00  4.79316E+01  1.475E-01  2.000E+01  2.000E+04 -1.447E-01
   1   14    3     1     3    1.0478E+05 -5.9070E+02   1.0537E+05  0.000E+00  0.000E+00  0.000E+00  4.74558E+01  1.490E-01  2.000E+01  2.000E+04 -2.953E-02
   1   15    4     1     4    1.0537E+05 -5.5765E+02   1.0593E+05  0.000E+00  0.000E+00  0.000E+00  4.69790E+01  1.495E-01  2.000E+01  2.000E+04 -2.788E-02
   1   16    5     1     5    1.0593E+05 -1.5811E+03   1.0751E+05  0.000E+00  0.000E+00  0.000E+00  4.65027E+01  1.504E-01  2.000E+01  2.000E+04 -7.906E-02
   1   16    6     1     6    1.0751E+05 -9.3370E+02   1.0844E+05  0.000E+00  0.000E+00  0.000E+00  4.60265E+01  1.515E-01  2.000E+01  2.000E+04 -4.668E-02
   1   16    7     1     7    1.0844E+05 -8.1521E+02   1.0926E+05  0.000E+00  0.000E+00  0.000E+00  4.55499E+01  1.522E-01  2.000E+01  2.000E+04 -4.076E-02
   1   16    8     1     8    1.0926E+05 -6.6563E+02   1.0993E+05  0.000E+00  0.000E+00  0.000E+00  4.50733E+01  1.528E-01  2.000E+01  2.000E+04 -3.328E-02
   1   16    9     1     9    1.0993E+05 -4.5317E+02   1.1038E+05  0.000E+00  0.000E+00  0.000E+00  4.45965E+01  1.533E-01  2.000E+01  2.000E+04 -2.266E-02
   1   16   10     1    10    1.1038E+05 -1.4898E+02   1.1053E+05  0.000E+00  0.000E+00  0.000E+00  4.41195E+01  1.535E-01  2.000E+01  2.000E+04 -7.449E-03
   1   16   11     1    11    1.1053E+05  3.1359E+02   1.1021E+05  0.000E+00  0.000E+00  0.000E+00  4.36421E+01  1.535E-01  2.000E+01  2.000E+04  1.568E-02
   1   16   12     1    12    1.1021E+05  1.4724E+03   1.0874E+05  0.000E+00  0.000E+00  0.000E+00  4.31641E+01  1.527E-01  2.000E+01  2.000E+04  7.362E-02
   1   15   13     1    13    1.0874E+05  3.5960E+02   1.0838E+05  0.000E+00  0.000E+00  0.000E+00  4.26861E+01  1.520E-01  2.000E+01  2.000E+04  1.798E-02
   1   14   14     1    14    1.0838E+05 -8.7387E+02   1.0926E+05  0.000E+00  0.000E+00  0.000E+00  4.22090E+01  1.522E-01  2.000E+01  2.000E+04 -4.369E-02
   1   13   15     1    15    1.0926E+05 -1.9115E+03   1.1117E+05  0.000E+00  0.000E+00  0.000E+00  4.17329E+01  1.533E-01  2.000E+01  2.000E+04 -9.557E-02
   1   12   16     1    16    1.1117E+05 -3.2302E+03   1.1440E+05  0.000E+00  0.000E+00  0.000E+00  4.12578E+01  1.555E-01  2.000E+01  2.000E+04 -1.615E-01
   1   12   17     1    17    1.1440E+05 -1.9341E+03   1.1633E+05  0.000E+00  0.000E+00  0.000E+00  4.07826E+01  1.576E-01  2.000E+01  2.000E+04 -9.671E-02
   1   12   18     1    18    1.1633E+05 -1.8612E+03   1.1819E+05  0.000E+00  0.000E+00  0.000E+00  4.03069E+01  1.592E-01  2.000E+01  2.000E+04 -9.306E-02
   1   12   19     1    19    1.1819E+05 -2.6474E+03   1.2084E+05  0.000E+00  0.000E+00  0.000E+00  3.98314E+01  1.610E-01  2.000E+01  2.000E+04 -1.324E-01
   1   13   20     1    20    1.2084E+05 -1.5406E+03   1.2238E+05  0.000E+00  0.000E+00  0.000E+00  3.93559E+01  1.627E-01  2.000E+01  2.000E+04 -7.703E-02
   1   14   21     1    21    1.2238E+05 -8.7269E+02   1.2325E+05  0.000E+00  0.000E+00  0.000E+00  3.88795E+01  1.636E-01  2.000E+01  2.000E+04 -4.363E-02
   1   14   22     1    22    1.2325E+05  4.8394E+03   1.1841E+05  0.000E+00  0.000E+00  0.000E+00  3.84007E+01  1.620E-01  2.000E+01  2.000E+04  2.420E-01
   1    9   30     2     1    5.0000E+04 -1.0361E+03   5.1036E+04  0.000E+00  0.000E+00  0.000E+00  4.02416E+01  1.166E-01  2.000E+01  2.000E+04 -5.181E-02
   1    9   29     2     2    5.1036E+04 -1.3363E+03   5.2372E+04  0.000E+00  0.000E+00  0.000E+00  3.99932E+01  1.182E-01  2.000E+01  2.000E+04 -6.681E-02
   1    9   28     2     3    5.2372E+04 -1.5979E+03   5.3970E+04  0.000E+00  0.000E+00  0.000E+00  3.97452E+01  1.202E-01  2.000E+01  2.000E+04 -7.990E-02
   1    9   27     2     4    5.3970E+04 -3.0268E+03   5.6997E+04  0.000E+00  0.000E+00  0.000E+00  3.94983E+01  1.233E-01  2.000E+01  2.000E+04 -1.513E-01
   1   10   26     2     5    5.6997E+04 -2.2132E+03   5.9210E+04  0.000E+00  0.000E+00  0.000E+00  3.92518E+01  1.268E-01  2.000E+01  2.000E+04 -1.107E-01
   1   11   25     2     6    5.9210E+04 -1.9864E+03   6.1197E+04  0.000E+00  0.000E+00  0.000E+00  3.90045E+01  1.295E-01  2.000E+01  2.000E+04 -9.932E-02
   1   12   24     2     7    6.1197E+04 -2.0121E+03   6.3209E+04  0.000E+00  0.000E+00  0.000E+00  3.87571E+01  1.321E-01  2.000E+01  2.000E+04 -1.006E-01
   1   13   23     2     8    6.3209E+04 -3.8736E+02   6.3596E+04  0.000E+00  0.000E+00  0.000E+00  3.85086E+01  1.336E-01  2.000E+01  2.000E+04 -1.937E-02
   1   14   22     2     9    6.3596E+04  1.9778E+03   6.1618E+04  0.000E+00  0.000E+00  0.000E+00  3.82576E+01  1.326E-01  2.000E+01  2.000E+04  9.889E-02
   1   14   22     3     1    1.8003E+05 -8.5982E+03   1.8863E+05  0.000E+00  0.000E+00  0.000E+00  3.77288E+01  1.732E-01  2.000E+01  2.000E+04 -4.299E-01
   1   15   23     3     2    1.8863E+05 -4.5962E+02   1.8909E+05  0.000E+00  0.000E+00  0.000E+00  3.68425E+01  1.758E-01  2.000E+01  2.000E+04 -2.298E-02
   1   15   24     3     3    1.8909E+05 -3.3540E+02   1.8943E+05  0.000E+00  0.000E+00  0.000E+00  3.59538E+01  1.760E-01  2.000E+01  2.000E+04 -1.677E-02
   1   15   25     3     4    1.8943E+05 -3.5198E+02   1.8978E+05  0.000E+00  0.000E+00  0.000E+00  3.50651E+01  1.762E-01  2.000E+01  2.000E+04 -1.760E-02
   1   15   26     3     5    1.8978E+05 -4.3963E+02   1.9022E+05  0.000E+00  0.000E+00  0.000E+00  3.41764E+01  1.764E-01  2.000E+01  2.000E+04 -2.198E-02
   1   16   27     3     6    1.9022E+05 -4.7751E+02   1.9069E+05  0.000E+00  0.000E+00  0.000E+00  3.32878E+01  1.767E-01  2.000E+01  2.000E+04 -2.388E-02
   1   17   28     3     7    1.9069E+05 -1.8264E+03   1.9252E+05  0.000E+00  0.000E+00  0.000E+00  3.23995E+01  1.773E-01  2.000E+01  2.000E+04 -9.132E-02
   1   18   29     3     8    1.9252E+05 -3.0326E+03   1.9555E+05  0.000E+00  0.000E+00  0.000E+00  3.15120E+01  1.787E-01  2.000E+01  2.000E+04 -1.516E-01
   1   18   30     3     9    1.9555E+05 -3.3313E+03   1.9888E+05  0.000E+00  0.000E+00  0.000E+00  3.06249E+01  1.804E-01  2.000E+01  2.000E+04 -1.666E-01



1
              HEAD IN LAYER   1 AT END OF TIME STEP   1 IN STRESS PERIOD    6
  ---------------------------------------------------------------------------

          1      2      3      4      5      6      7      8      9     10
         11     12     13     14     15     16     17     18     19     20
         21     22     23     24     25     26     27     28     29     30
 .........................................................................
   1  ****** ****** ****** ****** ****** ****** ****** ****** ****** ******
      ****** ****** ****** ****** ****** ****** ****** ****** ****** ******
      ****** ****** ****** ****** ****** ****** ****** ****** ****** ******
   2  ****** ****** ****** ****** ****** ****** ****** ****** ****** ******
      ****** ****** ****** ****** ****** ****** ****** ****** ****** ******
      ****** ****** ****** ****** ****** ****** ****** ****** ****** ******
   3  ****** ****** ****** ****** ****** ****** ****** ****** ****** ******
      ****** ****** ****** ****** ****** ****** ****** ****** ****** ******
      ****** ****** ****** ****** ****** ****** ****** ****** ****** ******
   4  ****** ****** ****** ****** ****** ****** ****** ****** ****** ******
      ****** ****** ****** ****** ****** ****** ****** ****** ****** ******
      ****** ****** ****** ****** ****** ****** ****** ****** ****** ******
   5  ****** ****** ****** ****** ****** ****** ****** ****** ****** ******
      ****** ****** ****** ****** ****** ****** ****** ****** ****** ******
      ****** ****** ****** ****** ****** ****** ****** ****** ****** ******
   6  ****** ****** ****** ****** ****** ****** ****** ****** ****** ******
      ****** ****** ****** ****** ****** ****** ****** ****** ****** ******
      ****** ****** ****** ****** ****** ****** ****** ****** ****** ******
   7  ****** ****** ****** ****** ****** ****** ****** ****** ****** ******
      ****** ****** ****** ****** ****** ****** ****** ****** ****** ******
      ****** ****** ****** ****** ****** ****** ****** ****** ****** ******
   8  ****** ****** ****** ****** ****** ****** ****** ****** ****** ******
      ****** ****** ****** ****** ****** ****** ****** ****** ****** ******
      ****** ****** ****** ****** ****** ****** ****** ****** ****** ******
   9  ****** ****** ****** ****** ****** ****** ****** ****** ****** ******
      ****** ****** ****** ****** ****** ****** ****** ****** ****** ******
      ****** ****** ****** ****** ****** ****** ****** ****** ****** ******
  10  ****** ****** ****** ****** ****** ****** ****** ****** ****** ******
      ****** ****** ****** ****** ****** ****** ****** ****** ****** ******
      ****** ****** ****** ****** ****** ****** ****** ****** ****** ******
  11  ****** ****** ****** ****** ****** ****** ****** ****** ****** ******
      ****** ****** ****** ****** ****** ****** ****** ****** ****** ******
      ****** ****** ****** ****** ****** ****** ****** ****** ****** ******
  12  ****** ****** ****** ****** ****** ****** ****** ****** ****** ******
      ****** ****** ****** ****** ****** ****** ****** ****** ****** ******
      ****** ****** ****** ****** ****** ****** ****** ****** ****** ******
  13  ****** ****** ****** ****** ****** ****** ****** ****** ****** ******
      ****** ****** ****** ****** ****** ****** ****** ****** ****** ******
      ****** ****** ****** ****** ****** ****** ****** ****** ****** ******
  14  ****** ****** ****** ****** ****** ****** ****** ****** ****** ******
      ****** ****** ****** ****** ****** ****** ****** ****** ****** ******
      ****** ****** ****** ****** ****** ****** ****** ****** ****** ******
  15  ****** ****** ****** ****** ****** ****** ****** ****** ****** ******
      ****** ****** ****** ****** ****** ****** ****** ****** ****** ******
      ****** ****** ****** ****** ****** ****** ****** ****** ****** ******
  16  ****** ****** ****** ****** ****** ****** ****** ****** ****** ******
      ****** ****** ****** ****** ****** ****** ****** ****** ****** ******
      ****** ****** ****** ****** ****** ****** ****** ****** ****** ******
  17  ****** ****** ****** ****** ****** ****** ****** ****** ****** ******
      ****** ****** ****** ****** ****** ****** ****** ****** ****** ******
      ****** ****** ****** ****** ****** ****** ****** ****** ****** ******
  18  ****** ****** ****** ****** ****** ****** ****** ****** ****** ******
      ****** ****** ****** ****** ****** ****** ****** ****** ****** ******
      ****** ****** ****** ****** ****** ****** ****** ****** ****** ******
  19  ****** ****** ****** ****** ****** ****** ****** ****** ****** ******
      ****** ****** ****** ****** ****** ****** ****** ****** ****** ******
      ****** ****** ****** ****** ****** ****** ****** ****** ****** ******
  20  ****** ****** ****** ****** ****** ****** ****** ****** ****** ******
      ****** ****** ****** ****** ****** ****** ****** ****** ****** ******
      ****** ****** ****** ****** ****** ****** ****** ****** ****** ******
  21  ****** ****** ****** ****** ****** ****** ****** ****** ****** ******
      ****** ****** ****** ****** ****** ****** ****** ****** ****** ******
      ****** ****** ****** ****** ****** ****** ****** ****** ****** ******
  22  ****** ****** ****** ****** ****** ****** ****** ****** ****** ******
      ****** ****** ****** ****** ****** ****** ****** ****** ****** ******
      ****** ****** ****** ****** ****** ****** ****** ****** ****** ******
  23  ****** ****** ****** ****** ****** ****** ****** ****** ****** ******
      ****** ****** ****** ****** ****** ****** ****** ****** ****** ******
      ****** ****** ****** ****** ****** ****** ****** ****** ****** ******
  24  ****** ****** ****** ****** ****** ****** ****** ****** ****** ******
      ****** ****** ****** ****** ****** ****** ****** ****** ****** ******
      ****** ****** ****** ****** ****** ****** ****** ****** ****** ******
  25  ****** ****** ****** ****** ****** ****** ****** ****** ****** ******
      ****** ****** ****** ****** ****** ****** ****** ****** ****** ******
      ****** ****** ****** ****** ****** ****** ****** ****** ****** ******

 HEAD WILL BE SAVED ON UNIT   51 AT END OF TIME STEP    1, STRESS PERIOD    6
1
  VOLUMETRIC BUDGET FOR ENTIRE MODEL AT END OF TIME STEP    1, STRESS PERIOD   6
  ------------------------------------------------------------------------------

     CUMULATIVE VOLUMES      L**3       RATES FOR THIS TIME STEP      L**3/T
     ------------------                 ------------------------

           IN:                                      IN:
           ---                                      ---
             STORAGE =    31800317.9183               STORAGE =           0.0000
       CONSTANT HEAD =    13771240.0436         CONSTANT HEAD =       30783.4493
               WELLS =           0.0000                 WELLS =           0.0000
            RECHARGE =    15097200.0000              RECHARGE =       55200.0000
      STREAM LEAKAGE =     4188038.4717        STREAM LEAKAGE =        8962.8371

            TOTAL IN =    64856796.4336              TOTAL IN =       94946.2865

          OUT:                                     OUT:
          ----                                     ----
             STORAGE =      772017.6519               STORAGE =        8470.1285
       CONSTANT HEAD =           0.0000         CONSTANT HEAD =           0.0000
               WELLS =    15688406.3692                 WELLS =       28628.4788
            RECHARGE =           0.0000              RECHARGE =           0.0000
      STREAM LEAKAGE =    48396374.5880        STREAM LEAKAGE =       57847.6763

           TOTAL OUT =    64856798.6091             TOTAL OUT =       94946.2835

            IN - OUT =          -2.1755              IN - OUT =       2.9123E-03

 PERCENT DISCREPANCY =          -0.00     PERCENT DISCREPANCY =           0.00






         TIME SUMMARY AT END OF TIME STEP    1 IN STRESS PERIOD    6
                    SECONDS     MINUTES      HOURS       DAYS        YEARS
                    -----------------------------------------------------------
   TIME STEP LENGTH 7.86240E+06 1.31040E+05  2184.0      91.000     0.24914    
 STRESS PERIOD TIME 7.86240E+06 1.31040E+05  2184.0      91.000     0.24914    
         TOTAL TIME 4.73472E+07 7.89120E+05  13152.      548.00      1.5003    
1
1
                            STRESS PERIOD NO.    7, LENGTH =   91.00000    
                            -----------------------------------------------

                              NUMBER OF TIME STEPS =     1

                               MULTIPLIER FOR DELT =     1.500

                            INITIAL TIME STEP SIZE =   91.00000    

 WELL NO.  LAYER   ROW   COL   STRESS RATE         
 --------------------------------------------------
      1      1     20     17      -6946.    
      2      1     18     14     -0.1271E+05
      3      1      9      3      -2375.    
      4      1     21     12      -6598.    

      4 WELLS

                 RECHARGE =   0.00000    

 REUSING STREAM SEGMENT DATA FROM LAST STRESS PERIOD
 
 SOLVING FOR HEAD 


     7 CALLS TO PCG ROUTINE FOR TIME STEP   1 IN STRESS PERIOD    7
    26 TOTAL ITERATIONS

 OUTPUT CONTROL FOR STRESS PERIOD    7   TIME STEP    1
    SAVE BUDGET
    SAVE HEAD FOR ALL LAYERS
    PRINT HEAD FOR ALL LAYERS
 UBDSV2 SAVING "STREAMFLOW OUT  " ON UNIT  50 AT TIME STEP  1, STRESS PERIOD   7



 STREAM LISTING     PERIOD      7   STEP        1

 LAYER ROW COL. STREAM  RCH.  FLOW INTO     FLOW TO   FLOW OUT OF   OVRLND.     DIRECT     STREAM       STREAM     STREAM     STREAM   STREAMBED  STREAMBED
                SEG.NO.  NO.  STRM. RCH.    AQUIFER    STRM. RCH.    RUNOFF     PRECIP       ET          HEAD       DEPTH      WIDTH   CONDCTNC.   GRADIENT

   1   13    1     1     1    1.0000E+05 -1.2158E+03   1.0122E+05  0.000E+00  0.000E+00  0.000E+00  4.84065E+01  1.452E-01  2.000E+01  2.000E+04 -6.079E-02
   1   13    2     1     2    1.0122E+05 -2.1431E+03   1.0336E+05  0.000E+00  0.000E+00  0.000E+00  4.79307E+01  1.466E-01  2.000E+01  2.000E+04 -1.072E-01
   1   14    3     1     3    1.0336E+05 -3.3721E+02   1.0370E+05  0.000E+00  0.000E+00  0.000E+00  4.74545E+01  1.477E-01  2.000E+01  2.000E+04 -1.686E-02
   1   15    4     1     4    1.0370E+05 -2.9307E+02   1.0399E+05  0.000E+00  0.000E+00  0.000E+00  4.69775E+01  1.480E-01  2.000E+01  2.000E+04 -1.465E-02
   1   16    5     1     5    1.0399E+05 -8.1660E+02   1.0481E+05  0.000E+00  0.000E+00  0.000E+00  4.65007E+01  1.484E-01  2.000E+01  2.000E+04 -4.083E-02
   1   16    6     1     6    1.0481E+05 -4.7326E+02   1.0528E+05  0.000E+00  0.000E+00  0.000E+00  4.60240E+01  1.490E-01  2.000E+01  2.000E+04 -2.366E-02
   1   16    7     1     7    1.0528E+05 -3.7346E+02   1.0565E+05  0.000E+00  0.000E+00  0.000E+00  4.55471E+01  1.493E-01  2.000E+01  2.000E+04 -1.867E-02
   1   16    8     1     8    1.0565E+05 -2.2979E+02   1.0588E+05  0.000E+00  0.000E+00  0.000E+00  4.50701E+01  1.496E-01  2.000E+01  2.000E+04 -1.149E-02
   1   16    9     1     9    1.0588E+05 -2.0267E+01   1.0590E+05  0.000E+00  0.000E+00  0.000E+00  4.45929E+01  1.497E-01  2.000E+01  2.000E+04 -1.013E-03
   1   16   10     1    10    1.0590E+05  2.8189E+02   1.0562E+05  0.000E+00  0.000E+00  0.000E+00  4.41155E+01  1.496E-01  2.000E+01  2.000E+04  1.409E-02
   1   16   11     1    11    1.0562E+05  7.4656E+02   1.0487E+05  0.000E+00  0.000E+00  0.000E+00  4.36378E+01  1.492E-01  2.000E+01  2.000E+04  3.733E-02
   1   16   12     1    12    1.0487E+05  2.2011E+03   1.0267E+05  0.000E+00  0.000E+00  0.000E+00  4.31593E+01  1.479E-01  2.000E+01  2.000E+04  1.101E-01
   1   15   13     1    13    1.0267E+05  1.1355E+03   1.0154E+05  0.000E+00  0.000E+00  0.000E+00  4.26806E+01  1.465E-01  2.000E+01  2.000E+04  5.678E-02
   1   14   14     1    14    1.0154E+05 -7.2765E+01   1.0161E+05  0.000E+00  0.000E+00  0.000E+00  4.22028E+01  1.460E-01  2.000E+01  2.000E+04 -3.638E-03
   1   13   15     1    15    1.0161E+05 -1.1111E+03   1.0272E+05  0.000E+00  0.000E+00  0.000E+00  4.17261E+01  1.465E-01  2.000E+01  2.000E+04 -5.556E-02
   1   12   16     1    16    1.0272E+05 -2.4408E+03   1.0516E+05  0.000E+00  0.000E+00  0.000E+00  4.12503E+01  1.480E-01  2.000E+01  2.000E+04 -1.220E-01
   1   12   17     1    17    1.0516E+05 -1.3581E+03   1.0652E+05  0.000E+00  0.000E+00  0.000E+00  4.07747E+01  1.497E-01  2.000E+01  2.000E+04 -6.791E-02
   1   12   18     1    18    1.0652E+05 -1.2990E+03   1.0782E+05  0.000E+00  0.000E+00  0.000E+00  4.02985E+01  1.508E-01  2.000E+01  2.000E+04 -6.495E-02
   1   12   19     1    19    1.0782E+05 -1.9624E+03   1.0978E+05  0.000E+00  0.000E+00  0.000E+00  3.98226E+01  1.522E-01  2.000E+01  2.000E+04 -9.812E-02
   1   13   20     1    20    1.0978E+05 -8.6716E+02   1.1065E+05  0.000E+00  0.000E+00  0.000E+00  3.93465E+01  1.533E-01  2.000E+01  2.000E+04 -4.336E-02
   1   14   21     1    21    1.1065E+05 -2.0123E+02   1.1085E+05  0.000E+00  0.000E+00  0.000E+00  3.88697E+01  1.538E-01  2.000E+01  2.000E+04 -1.006E-02
   1   14   22     1    22    1.1085E+05  4.9938E+03   1.0586E+05  0.000E+00  0.000E+00  0.000E+00  3.83904E+01  1.518E-01  2.000E+01  2.000E+04  2.497E-01
   1    9   30     2     1    5.0000E+04 -5.2439E+02   5.0524E+04  0.000E+00  0.000E+00  0.000E+00  4.02412E+01  1.162E-01  2.000E+01  2.000E+04 -2.622E-02
   1    9   29     2     2    5.0524E+04 -8.2638E+02   5.1351E+04  0.000E+00  0.000E+00  0.000E+00  3.99922E+01  1.172E-01  2.000E+01  2.000E+04 -4.132E-02
   1    9   28     2     3    5.1351E+04 -1.0869E+03   5.2438E+04  0.000E+00  0.000E+00  0.000E+00  3.97435E+01  1.185E-01  2.000E+01  2.000E+04 -5.435E-02
   1    9   27     2     4    5.2438E+04 -2.3336E+03   5.4771E+04  0.000E+00  0.000E+00  0.000E+00  3.94958E+01  1.208E-01  2.000E+01  2.000E+04 -1.167E-01
   1   10   26     2     5    5.4771E+04 -1.5172E+03   5.6289E+04  0.000E+00  0.000E+00  0.000E+00  3.92484E+01  1.234E-01  2.000E+01  2.000E+04 -7.586E-02
   1   11   25     2     6    5.6289E+04 -1.3187E+03   5.7607E+04  0.000E+00  0.000E+00  0.000E+00  3.90003E+01  1.253E-01  2.000E+01  2.000E+04 -6.593E-02
   1   12   24     2     7    5.7607E+04 -1.4032E+03   5.9010E+04  0.000E+00  0.000E+00  0.000E+00  3.87521E+01  1.271E-01  2.000E+01  2.000E+04 -7.016E-02
   1   13   23     2     8    5.9010E+04 -1.9582E+02   5.9206E+04  0.000E+00  0.000E+00  0.000E+00  3.85031E+01  1.281E-01  2.000E+01  2.000E+04 -9.791E-03
   1   14   22     2     9    5.9206E+04  2.2210E+03   5.6985E+04  0.000E+00  0.000E+00  0.000E+00  3.82518E+01  1.268E-01  2.000E+01  2.000E+04  1.111E-01
   1   14   22     3     1    1.6284E+05 -8.4373E+03   1.7128E+05  0.000E+00  0.000E+00  0.000E+00  3.77189E+01  1.633E-01  2.000E+01  2.000E+04 -4.219E-01
   1   15   23     3     2    1.7128E+05 -2.5063E+02   1.7153E+05  0.000E+00  0.000E+00  0.000E+00  3.68325E+01  1.658E-01  2.000E+01  2.000E+04 -1.253E-02
   1   15   24     3     3    1.7153E+05 -1.6054E+02   1.7169E+05  0.000E+00  0.000E+00  0.000E+00  3.59437E+01  1.660E-01  2.000E+01  2.000E+04 -8.027E-03
   1   15   25     3     4    1.7169E+05 -1.7429E+02   1.7186E+05  0.000E+00  0.000E+00  0.000E+00  3.50550E+01  1.661E-01  2.000E+01  2.000E+04 -8.714E-03
   1   15   26     3     5    1.7186E+05 -2.3783E+02   1.7210E+05  0.000E+00  0.000E+00  0.000E+00  3.41662E+01  1.662E-01  2.000E+01  2.000E+04 -1.189E-02
   1   16   27     3     6    1.7210E+05 -2.4405E+02   1.7235E+05  0.000E+00  0.000E+00  0.000E+00  3.32774E+01  1.663E-01  2.000E+01  2.000E+04 -1.220E-02
   1   17   28     3     7    1.7235E+05 -1.1808E+03   1.7353E+05  0.000E+00  0.000E+00  0.000E+00  3.23890E+01  1.667E-01  2.000E+01  2.000E+04 -5.904E-02
   1   18   29     3     8    1.7353E+05 -2.3373E+03   1.7586E+05  0.000E+00  0.000E+00  0.000E+00  3.15011E+01  1.678E-01  2.000E+01  2.000E+04 -1.169E-01
   1   18   30     3     9    1.7586E+05 -2.7973E+03   1.7866E+05  0.000E+00  0.000E+00  0.000E+00  3.06137E+01  1.692E-01  2.000E+01  2.000E+04 -1.399E-01



1
              HEAD IN LAYER   1 AT END OF TIME STEP   1 IN STRESS PERIOD    7
  ---------------------------------------------------------------------------

          1      2      3      4      5      6      7      8      9     10
         11     12     13     14     15     16     17     18     19     20
         21     22     23     24     25     26     27     28     29     30
 .........................................................................
   1  ****** ****** ****** ****** ****** ****** ****** ****** ****** ******
      ****** ****** ****** ****** ****** ****** ****** ****** ****** ******
      ****** ****** ****** ****** ****** ****** ****** ****** ****** ******
   2  ****** ****** ****** ****** ****** ****** ****** ****** ****** ******
      ****** ****** ****** ****** ****** ****** ****** ****** ****** ******
      ****** ****** ****** ****** ****** ****** ****** ****** ****** ******
   3  ****** ****** ****** ****** ****** ****** ****** ****** ****** ******
      ****** ****** ****** ****** ****** ****** ****** ****** ****** ******
      ****** ****** ****** ****** ****** ****** ****** ****** ****** ******
   4  ****** ****** ****** ****** ****** ****** ****** ****** ****** ******
      ****** ****** ****** ****** ****** ****** ****** ****** ****** ******
      ****** ****** ****** ****** ****** ****** ****** ****** ****** ******
   5  ****** ****** ****** ****** ****** ****** ****** ****** ****** ******
      ****** ****** ****** ****** ****** ****** ****** ****** ****** ******
      ****** ****** ****** ****** ****** ****** ****** ****** ****** ******
   6  ****** ****** ****** ****** ****** ****** ****** ****** ****** ******
      ****** ****** ****** ****** ****** ****** ****** ****** ****** ******
      ****** ****** ****** ****** ****** ****** ****** ****** ****** ******
   7  ****** ****** ****** ****** ****** ****** ****** ****** ****** ******
      ****** ****** ****** ****** ****** ****** ****** ****** ****** ******
      ****** ****** ****** ****** ****** ****** ****** ****** ****** ******
   8  ****** ****** ****** ****** ****** ****** ****** ****** ****** ******
      ****** ****** ****** ****** ****** ****** ****** ****** ****** ******
      ****** ****** ****** ****** ****** ****** ****** ****** ****** ******
   9  ****** ****** ****** ****** ****** ****** ****** ****** ****** ******
      ****** ****** ****** ****** ****** ****** ****** ****** ****** ******
      ****** ****** ****** ****** ****** ****** ****** ****** ****** ******
  10  ****** ****** ****** ****** ****** ****** ****** ****** ****** ******
      ****** ****** ****** ****** ****** ****** ****** ****** ****** ******
      ****** ****** ****** ****** ****** ****** ****** ****** ****** ******
  11  ****** ****** ****** ****** ****** ****** ****** ****** ****** ******
      ****** ****** ****** ****** ****** ****** ****** ****** ****** ******
      ****** ****** ****** ****** ****** ****** ****** ****** ****** ******
  12  ****** ****** ****** ****** ****** ****** ****** ****** ****** ******
      ****** ****** ****** ****** ****** ****** ****** ****** ****** ******
      ****** ****** ****** ****** ****** ****** ****** ****** ****** ******
  13  ****** ****** ****** ****** ****** ****** ****** ****** ****** ******
      ****** ****** ****** ****** ****** ****** ****** ****** ****** ******
      ****** ****** ****** ****** ****** ****** ****** ****** ****** ******
  14  ****** ****** ****** ****** ****** ****** ****** ****** ****** ******
      ****** ****** ****** ****** ****** ****** ****** ****** ****** ******
      ****** ****** ****** ****** ****** ****** ****** ****** ****** ******
  15  ****** ****** ****** ****** ****** ****** ****** ****** ****** ******
      ****** ****** ****** ****** ****** ****** ****** ****** ****** ******
      ****** ****** ****** ****** ****** ****** ****** ****** ****** ******
  16  ****** ****** ****** ****** ****** ****** ****** ****** ****** ******
      ****** ****** ****** ****** ****** ****** ****** ****** ****** ******
      ****** ****** ****** ****** ****** ****** ****** ****** ****** ******
  17  ****** ****** ****** ****** ****** ****** ****** ****** ****** ******
      ****** ****** ****** ****** ****** ****** ****** ****** ****** ******
      ****** ****** ****** ****** ****** ****** ****** ****** ****** ******
  18  ****** ****** ****** ****** ****** ****** ****** ****** ****** ******
      ****** ****** ****** ****** ****** ****** ****** ****** ****** ******
      ****** ****** ****** ****** ****** ****** ****** ****** ****** ******
  19  ****** ****** ****** ****** ****** ****** ****** ****** ****** ******
      ****** ****** ****** ****** ****** ****** ****** ****** ****** ******
      ****** ****** ****** ****** ****** ****** ****** ****** ****** ******
  20  ****** ****** ****** ****** ****** ****** ****** ****** ****** ******
      ****** ****** ****** ****** ****** ****** ****** ****** ****** ******
      ****** ****** ****** ****** ****** ****** ****** ****** ****** ******
  21  ****** ****** ****** ****** ****** ****** ****** ****** ****** ******
      ****** ****** ****** ****** ****** ****** ****** ****** ****** ******
      ****** ****** ****** ****** ****** ****** ****** ****** ****** ******
  22  ****** ****** ****** ****** ****** ****** ****** ****** ****** ******
      ****** ****** ****** ****** ****** ****** ****** ****** ****** ******
      ****** ****** ****** ****** ****** ****** ****** ****** ****** ******
  23  ****** ****** ****** ****** ****** ****** ****** ****** ****** ******
      ****** ****** ****** ****** ****** ****** ****** ****** ****** ******
      ****** ****** ****** ****** ****** ****** ****** ****** ****** ******
  24  ****** ****** ****** ****** ****** ****** ****** ****** ****** ******
      ****** ****** ****** ****** ****** ****** ****** ****** ****** ******
      ****** ****** ****** ****** ****** ****** ****** ****** ****** ******
  25  ****** ****** ****** ****** ****** ****** ****** ****** ****** ******
      ****** ****** ****** ****** ****** ****** ****** ****** ****** ******
      ****** ****** ****** ****** ****** ****** ****** ****** ****** ******

 HEAD WILL BE SAVED ON UNIT   51 AT END OF TIME STEP    1, STRESS PERIOD    7
1
  VOLUMETRIC BUDGET FOR ENTIRE MODEL AT END OF TIME STEP    1, STRESS PERIOD   7
  ------------------------------------------------------------------------------

     CUMULATIVE VOLUMES      L**3       RATES FOR THIS TIME STEP      L**3/T
     ------------------                 ------------------------

           IN:                                      IN:
           ---                                      ---
             STORAGE =    33852032.5113               STORAGE =       22546.3142
       CONSTANT HEAD =    16932923.1674         CONSTANT HEAD =       34743.7706
               WELLS =           0.0000                 WELLS =           0.0000
            RECHARGE =    15097200.0000              RECHARGE =           0.0000
      STREAM LEAKAGE =     5241804.3473        STREAM LEAKAGE =       11579.8448

            TOTAL IN =    71123960.0261              TOTAL IN =       68869.9296

          OUT:                                     OUT:
          ----                                     ----
             STORAGE =      772017.6519               STORAGE =           0.0000
       CONSTANT HEAD =           0.0000         CONSTANT HEAD =           0.0000
               WELLS =    18293597.9378                 WELLS =       28628.4788
            RECHARGE =           0.0000              RECHARGE =           0.0000
      STREAM LEAKAGE =    52058347.1382        STREAM LEAKAGE =       40241.4566

           TOTAL OUT =    71123962.7279             TOTAL OUT =       68869.9354

            IN - OUT =          -2.7018              IN - OUT =      -5.7833E-03

 PERCENT DISCREPANCY =          -0.00     PERCENT DISCREPANCY =          -0.00






         TIME SUMMARY AT END OF TIME STEP    1 IN STRESS PERIOD    7
                    SECONDS     MINUTES      HOURS       DAYS        YEARS
                    -----------------------------------------------------------
   TIME STEP LENGTH 7.86240E+06 1.31040E+05  2184.0      91.000     0.24914    
 STRESS PERIOD TIME 7.86240E+06 1.31040E+05  2184.0      91.000     0.24914    
         TOTAL TIME 5.52096E+07 9.20160E+05  15336.      639.00      1.7495    
1
1
                            STRESS PERIOD NO.    8, LENGTH =   91.00000    
                            -----------------------------------------------

                              NUMBER OF TIME STEPS =     1

                               MULTIPLIER FOR DELT =     1.500

                            INITIAL TIME STEP SIZE =   91.00000    

 WELL NO.  LAYER   ROW   COL   STRESS RATE         
 --------------------------------------------------
      1      1     20     17      -6946.    
      2      1     18     14     -0.1271E+05
      3      1      9      3      -2375.    
      4      1     21     12      -6598.    

      4 WELLS

                 RECHARGE =  1.000000E-03

 REUSING STREAM SEGMENT DATA FROM LAST STRESS PERIOD
 
 SOLVING FOR HEAD 


     6 CALLS TO PCG ROUTINE FOR TIME STEP   1 IN STRESS PERIOD    8
    22 TOTAL ITERATIONS

 OUTPUT CONTROL FOR STRESS PERIOD    8   TIME STEP    1
    SAVE BUDGET
    SAVE HEAD FOR ALL LAYERS
    PRINT HEAD FOR ALL LAYERS
 UBDSV2 SAVING "STREAMFLOW OUT  " ON UNIT  50 AT TIME STEP  1, STRESS PERIOD   8



 STREAM LISTING     PERIOD      8   STEP        1

 LAYER ROW COL. STREAM  RCH.  FLOW INTO     FLOW TO   FLOW OUT OF   OVRLND.     DIRECT     STREAM       STREAM     STREAM     STREAM   STREAMBED  STREAMBED
                SEG.NO.  NO.  STRM. RCH.    AQUIFER    STRM. RCH.    RUNOFF     PRECIP       ET          HEAD       DEPTH      WIDTH   CONDCTNC.   GRADIENT

   1   13    1     1     1    1.0000E+05 -1.2867E+03   1.0129E+05  0.000E+00  0.000E+00  0.000E+00  4.84066E+01  1.452E-01  2.000E+01  2.000E+04 -6.433E-02
   1   13    2     1     2    1.0129E+05 -2.2133E+03   1.0350E+05  0.000E+00  0.000E+00  0.000E+00  4.79308E+01  1.467E-01  2.000E+01  2.000E+04 -1.107E-01
   1   14    3     1     3    1.0350E+05 -4.0041E+02   1.0390E+05  0.000E+00  0.000E+00  0.000E+00  4.74547E+01  1.478E-01  2.000E+01  2.000E+04 -2.002E-02
   1   15    4     1     4    1.0390E+05 -3.6072E+02   1.0426E+05  0.000E+00  0.000E+00  0.000E+00  4.69777E+01  1.482E-01  2.000E+01  2.000E+04 -1.804E-02
   1   16    5     1     5    1.0426E+05 -9.8451E+02   1.0525E+05  0.000E+00  0.000E+00  0.000E+00  4.65010E+01  1.487E-01  2.000E+01  2.000E+04 -4.923E-02
   1   16    6     1     6    1.0525E+05 -5.7701E+02   1.0582E+05  0.000E+00  0.000E+00  0.000E+00  4.60244E+01  1.494E-01  2.000E+01  2.000E+04 -2.885E-02
   1   16    7     1     7    1.0582E+05 -4.7238E+02   1.0630E+05  0.000E+00  0.000E+00  0.000E+00  4.55476E+01  1.498E-01  2.000E+01  2.000E+04 -2.362E-02
   1   16    8     1     8    1.0630E+05 -3.2790E+02   1.0662E+05  0.000E+00  0.000E+00  0.000E+00  4.50706E+01  1.502E-01  2.000E+01  2.000E+04 -1.640E-02
   1   16    9     1     9    1.0662E+05 -1.1946E+02   1.0674E+05  0.000E+00  0.000E+00  0.000E+00  4.45936E+01  1.504E-01  2.000E+01  2.000E+04 -5.973E-03
   1   16   10     1    10    1.0674E+05  1.8036E+02   1.0656E+05  0.000E+00  0.000E+00  0.000E+00  4.41163E+01  1.504E-01  2.000E+01  2.000E+04  9.018E-03
   1   16   11     1    11    1.0656E+05  6.4237E+02   1.0592E+05  0.000E+00  0.000E+00  0.000E+00  4.36386E+01  1.500E-01  2.000E+01  2.000E+04  3.212E-02
   1   16   12     1    12    1.0592E+05  2.0464E+03   1.0387E+05  0.000E+00  0.000E+00  0.000E+00  4.31602E+01  1.489E-01  2.000E+01  2.000E+04  1.023E-01
   1   15   13     1    13    1.0387E+05  9.7196E+02   1.0290E+05  0.000E+00  0.000E+00  0.000E+00  4.26817E+01  1.476E-01  2.000E+01  2.000E+04  4.860E-02
   1   14   14     1    14    1.0290E+05 -2.3040E+02   1.0313E+05  0.000E+00  0.000E+00  0.000E+00  4.22041E+01  1.473E-01  2.000E+01  2.000E+04 -1.152E-02
   1   13   15     1    15    1.0313E+05 -1.2570E+03   1.0439E+05  0.000E+00  0.000E+00  0.000E+00  4.17274E+01  1.479E-01  2.000E+01  2.000E+04 -6.285E-02
   1   12   16     1    16    1.0439E+05 -2.5506E+03   1.0694E+05  0.000E+00  0.000E+00  0.000E+00  4.12518E+01  1.495E-01  2.000E+01  2.000E+04 -1.275E-01
   1   12   17     1    17    1.0694E+05 -1.4679E+03   1.0841E+05  0.000E+00  0.000E+00  0.000E+00  4.07762E+01  1.512E-01  2.000E+01  2.000E+04 -7.340E-02
   1   12   18     1    18    1.0841E+05 -1.4156E+03   1.0982E+05  0.000E+00  0.000E+00  0.000E+00  4.03002E+01  1.524E-01  2.000E+01  2.000E+04 -7.078E-02
   1   12   19     1    19    1.0982E+05 -2.1104E+03   1.1193E+05  0.000E+00  0.000E+00  0.000E+00  3.98244E+01  1.539E-01  2.000E+01  2.000E+04 -1.055E-01
   1   13   20     1    20    1.1193E+05 -1.0422E+03   1.1298E+05  0.000E+00  0.000E+00  0.000E+00  3.93484E+01  1.552E-01  2.000E+01  2.000E+04 -5.211E-02
   1   14   21     1    21    1.1298E+05 -3.5346E+02   1.1333E+05  0.000E+00  0.000E+00  0.000E+00  3.88717E+01  1.558E-01  2.000E+01  2.000E+04 -1.767E-02
   1   14   22     1    22    1.1333E+05  4.9479E+03   1.0838E+05  0.000E+00  0.000E+00  0.000E+00  3.83925E+01  1.539E-01  2.000E+01  2.000E+04  2.474E-01
   1    9   30     2     1    5.0000E+04 -6.8811E+02   5.0688E+04  0.000E+00  0.000E+00  0.000E+00  4.02413E+01  1.163E-01  2.000E+01  2.000E+04 -3.441E-02
   1    9   29     2     2    5.0688E+04 -9.8733E+02   5.1675E+04  0.000E+00  0.000E+00  0.000E+00  3.99925E+01  1.175E-01  2.000E+01  2.000E+04 -4.937E-02
   1    9   28     2     3    5.1675E+04 -1.2424E+03   5.2918E+04  0.000E+00  0.000E+00  0.000E+00  3.97440E+01  1.190E-01  2.000E+01  2.000E+04 -6.212E-02
   1    9   27     2     4    5.2918E+04 -2.5127E+03   5.5431E+04  0.000E+00  0.000E+00  0.000E+00  3.94966E+01  1.216E-01  2.000E+01  2.000E+04 -1.256E-01
   1   10   26     2     5    5.5431E+04 -1.7230E+03   5.7154E+04  0.000E+00  0.000E+00  0.000E+00  3.92494E+01  1.244E-01  2.000E+01  2.000E+04 -8.615E-02
   1   11   25     2     6    5.7154E+04 -1.5229E+03   5.8676E+04  0.000E+00  0.000E+00  0.000E+00  3.90015E+01  1.265E-01  2.000E+01  2.000E+04 -7.614E-02
   1   12   24     2     7    5.8676E+04 -1.5885E+03   6.0265E+04  0.000E+00  0.000E+00  0.000E+00  3.87536E+01  1.286E-01  2.000E+01  2.000E+04 -7.942E-02
   1   13   23     2     8    6.0265E+04 -2.7014E+02   6.0535E+04  0.000E+00  0.000E+00  0.000E+00  3.85048E+01  1.298E-01  2.000E+01  2.000E+04 -1.351E-02
   1   14   22     2     9    6.0535E+04  2.1686E+03   5.8366E+04  0.000E+00  0.000E+00  0.000E+00  3.82535E+01  1.285E-01  2.000E+01  2.000E+04  1.084E-01
   1   14   22     3     1    1.6675E+05 -8.4791E+03   1.7523E+05  0.000E+00  0.000E+00  0.000E+00  3.77212E+01  1.656E-01  2.000E+01  2.000E+04 -4.240E-01
   1   15   23     3     2    1.7523E+05 -3.1325E+02   1.7554E+05  0.000E+00  0.000E+00  0.000E+00  3.68348E+01  1.681E-01  2.000E+01  2.000E+04 -1.566E-02
   1   15   24     3     3    1.7554E+05 -2.2023E+02   1.7576E+05  0.000E+00  0.000E+00  0.000E+00  3.59461E+01  1.683E-01  2.000E+01  2.000E+04 -1.101E-02
   1   15   25     3     4    1.7576E+05 -2.3583E+02   1.7600E+05  0.000E+00  0.000E+00  0.000E+00  3.50573E+01  1.684E-01  2.000E+01  2.000E+04 -1.179E-02
   1   15   26     3     5    1.7600E+05 -3.1205E+02   1.7631E+05  0.000E+00  0.000E+00  0.000E+00  3.41686E+01  1.686E-01  2.000E+01  2.000E+04 -1.560E-02
   1   16   27     3     6    1.7631E+05 -3.2506E+02   1.7663E+05  0.000E+00  0.000E+00  0.000E+00  3.32799E+01  1.688E-01  2.000E+01  2.000E+04 -1.625E-02
   1   17   28     3     7    1.7663E+05 -1.3817E+03   1.7801E+05  0.000E+00  0.000E+00  0.000E+00  3.23915E+01  1.693E-01  2.000E+01  2.000E+04 -6.908E-02
   1   18   29     3     8    1.7801E+05 -2.4965E+03   1.8051E+05  0.000E+00  0.000E+00  0.000E+00  3.15037E+01  1.704E-01  2.000E+01  2.000E+04 -1.248E-01
   1   18   30     3     9    1.8051E+05 -2.9402E+03   1.8345E+05  0.000E+00  0.000E+00  0.000E+00  3.06164E+01  1.719E-01  2.000E+01  2.000E+04 -1.470E-01



1
              HEAD IN LAYER   1 AT END OF TIME STEP   1 IN STRESS PERIOD    8
  ---------------------------------------------------------------------------

          1      2      3      4      5      6      7      8      9     10
         11     12     13     14     15     16     17     18     19     20
         21     22     23     24     25     26     27     28     29     30
 .........................................................................
   1  ****** ****** ****** ****** ****** ****** ****** ****** ****** ******
      ****** ****** ****** ****** ****** ****** ****** ****** ****** ******
      ****** ****** ****** ****** ****** ****** ****** ****** ****** ******
   2  ****** ****** ****** ****** ****** ****** ****** ****** ****** ******
      ****** ****** ****** ****** ****** ****** ****** ****** ****** ******
      ****** ****** ****** ****** ****** ****** ****** ****** ****** ******
   3  ****** ****** ****** ****** ****** ****** ****** ****** ****** ******
      ****** ****** ****** ****** ****** ****** ****** ****** ****** ******
      ****** ****** ****** ****** ****** ****** ****** ****** ****** ******
   4  ****** ****** ****** ****** ****** ****** ****** ****** ****** ******
      ****** ****** ****** ****** ****** ****** ****** ****** ****** ******
      ****** ****** ****** ****** ****** ****** ****** ****** ****** ******
   5  ****** ****** ****** ****** ****** ****** ****** ****** ****** ******
      ****** ****** ****** ****** ****** ****** ****** ****** ****** ******
      ****** ****** ****** ****** ****** ****** ****** ****** ****** ******
   6  ****** ****** ****** ****** ****** ****** ****** ****** ****** ******
      ****** ****** ****** ****** ****** ****** ****** ****** ****** ******
      ****** ****** ****** ****** ****** ****** ****** ****** ****** ******
   7  ****** ****** ****** ****** ****** ****** ****** ****** ****** ******
      ****** ****** ****** ****** ****** ****** ****** ****** ****** ******
      ****** ****** ****** ****** ****** ****** ****** ****** ****** ******
   8  ****** ****** ****** ****** ****** ****** ****** ****** ****** ******
      ****** ****** ****** ****** ****** ****** ****** ****** ****** ******
      ****** ****** ****** ****** ****** ****** ****** ****** ****** ******
   9  ****** ****** ****** ****** ****** ****** ****** ****** ****** ******
      ****** ****** ****** ****** ****** ****** ****** ****** ****** ******
      ****** ****** ****** ****** ****** ****** ****** ****** ****** ******
  10  ****** ****** ****** ****** ****** ****** ****** ****** ****** ******
      ****** ****** ****** ****** ****** ****** ****** ****** ****** ******
      ****** ****** ****** ****** ****** ****** ****** ****** ****** ******
  11  ****** ****** ****** ****** ****** ****** ****** ****** ****** ******
      ****** ****** ****** ****** ****** ****** ****** ****** ****** ******
      ****** ****** ****** ****** ****** ****** ****** ****** ****** ******
  12  ****** ****** ****** ****** ****** ****** ****** ****** ****** ******
      ****** ****** ****** ****** ****** ****** ****** ****** ****** ******
      ****** ****** ****** ****** ****** ****** ****** ****** ****** ******
  13  ****** ****** ****** ****** ****** ****** ****** ****** ****** ******
      ****** ****** ****** ****** ****** ****** ****** ****** ****** ******
      ****** ****** ****** ****** ****** ****** ****** ****** ****** ******
  14  ****** ****** ****** ****** ****** ****** ****** ****** ****** ******
      ****** ****** ****** ****** ****** ****** ****** ****** ****** ******
      ****** ****** ****** ****** ****** ****** ****** ****** ****** ******
  15  ****** ****** ****** ****** ****** ****** ****** ****** ****** ******
      ****** ****** ****** ****** ****** ****** ****** ****** ****** ******
      ****** ****** ****** ****** ****** ****** ****** ****** ****** ******
  16  ****** ****** ****** ****** ****** ****** ****** ****** ****** ******
      ****** ****** ****** ****** ****** ****** ****** ****** ****** ******
      ****** ****** ****** ****** ****** ****** ****** ****** ****** ******
  17  ****** ****** ****** ****** ****** ****** ****** ****** ****** ******
      ****** ****** ****** ****** ****** ****** ****** ****** ****** ******
      ****** ****** ****** ****** ****** ****** ****** ****** ****** ******
  18  ****** ****** ****** ****** ****** ****** ****** ****** ****** ******
      ****** ****** ****** ****** ****** ****** ****** ****** ****** ******
      ****** ****** ****** ****** ****** ****** ****** ****** ****** ******
  19  ****** ****** ****** ****** ****** ****** ****** ****** ****** ******
      ****** ****** ****** ****** ****** ****** ****** ****** ****** ******
      ****** ****** ****** ****** ****** ****** ****** ****** ****** ******
  20  ****** ****** ****** ****** ****** ****** ****** ****** ****** ******
      ****** ****** ****** ****** ****** ****** ****** ****** ****** ******
      ****** ****** ****** ****** ****** ****** ****** ****** ****** ******
  21  ****** ****** ****** ****** ****** ****** ****** ****** ****** ******
      ****** ****** ****** ****** ****** ****** ****** ****** ****** ******
      ****** ****** ****** ****** ****** ****** ****** ****** ****** ******
  22  ****** ****** ****** ****** ****** ****** ****** ****** ****** ******
      ****** ****** ****** ****** ****** ****** ****** ****** ****** ******
      ****** ****** ****** ****** ****** ****** ****** ****** ****** ******
  23  ****** ****** ****** ****** ****** ****** ****** ****** ****** ******
      ****** ****** ****** ****** ****** ****** ****** ****** ****** ******
      ****** ****** ****** ****** ****** ****** ****** ****** ****** ******
  24  ****** ****** ****** ****** ****** ****** ****** ****** ****** ******
      ****** ****** ****** ****** ****** ****** ****** ****** ****** ******
      ****** ****** ****** ****** ****** ****** ****** ****** ****** ******
  25  ****** ****** ****** ****** ****** ****** ****** ****** ****** ******
      ****** ****** ****** ****** ****** ****** ****** ****** ****** ******
      ****** ****** ****** ****** ****** ****** ****** ****** ****** ******

 HEAD WILL BE SAVED ON UNIT   51 AT END OF TIME STEP    1, STRESS PERIOD    8
1
  VOLUMETRIC BUDGET FOR ENTIRE MODEL AT END OF TIME STEP    1, STRESS PERIOD   8
  ------------------------------------------------------------------------------

     CUMULATIVE VOLUMES      L**3       RATES FOR THIS TIME STEP      L**3/T
     ------------------                 ------------------------

           IN:                                      IN:
           ---                                      ---
             STORAGE =    33985804.3186               STORAGE =        1470.0199
       CONSTANT HEAD =    20069485.1845         CONSTANT HEAD =       34467.7145
               WELLS =           0.0000                 WELLS =           0.0000
            RECHARGE =    17608800.0000              RECHARGE =       27600.0000
      STREAM LEAKAGE =     6238947.4275        STREAM LEAKAGE =       10957.6163

            TOTAL IN =    77903036.9306              TOTAL IN =       74495.3506

          OUT:                                     OUT:
          ----                                     ----
             STORAGE =      904693.4071               STORAGE =        1457.9753
       CONSTANT HEAD =           0.0000         CONSTANT HEAD =           0.0000
               WELLS =    20898789.5064                 WELLS =       28628.4788
            RECHARGE =           0.0000              RECHARGE =           0.0000
      STREAM LEAKAGE =    56099555.9604        STREAM LEAKAGE =       44408.8882

           TOTAL OUT =    77903038.8739             TOTAL OUT =       74495.3423

            IN - OUT =          -1.9433              IN - OUT =       8.3351E-03

 PERCENT DISCREPANCY =          -0.00     PERCENT DISCREPANCY =           0.00






         TIME SUMMARY AT END OF TIME STEP    1 IN STRESS PERIOD    8
                    SECONDS     MINUTES      HOURS       DAYS        YEARS
                    -----------------------------------------------------------
   TIME STEP LENGTH 7.86240E+06 1.31040E+05  2184.0      91.000     0.24914    
 STRESS PERIOD TIME 7.86240E+06 1.31040E+05  2184.0      91.000     0.24914    
         TOTAL TIME 6.30720E+07 1.05120E+06  17520.      730.00      1.9986    
1
1
                            STRESS PERIOD NO.    9, LENGTH =   92.00000    
                            -----------------------------------------------

                              NUMBER OF TIME STEPS =     1

                               MULTIPLIER FOR DELT =     1.500

                            INITIAL TIME STEP SIZE =   92.00000    

 WELL NO.  LAYER   ROW   COL   STRESS RATE         
 --------------------------------------------------
      1      1     20     17      -6946.    
      2      1     18     14     -0.1271E+05
      3      1      9      3      -2375.    
      4      1     21     12      -6598.    

      4 WELLS

                 RECHARGE =  5.000000E-04

 REUSING STREAM SEGMENT DATA FROM LAST STRESS PERIOD
 
 SOLVING FOR HEAD 


     6 CALLS TO PCG ROUTINE FOR TIME STEP   1 IN STRESS PERIOD    9
    23 TOTAL ITERATIONS

 OUTPUT CONTROL FOR STRESS PERIOD    9   TIME STEP    1
    SAVE BUDGET
    SAVE HEAD FOR ALL LAYERS
    PRINT HEAD FOR ALL LAYERS
 UBDSV2 SAVING "STREAMFLOW OUT  " ON UNIT  50 AT TIME STEP  1, STRESS PERIOD   9



 STREAM LISTING     PERIOD      9   STEP        1

 LAYER ROW COL. STREAM  RCH.  FLOW INTO     FLOW TO   FLOW OUT OF   OVRLND.     DIRECT     STREAM       STREAM     STREAM     STREAM   STREAMBED  STREAMBED
                SEG.NO.  NO.  STRM. RCH.    AQUIFER    STRM. RCH.    RUNOFF     PRECIP       ET          HEAD       DEPTH      WIDTH   CONDCTNC.   GRADIENT

   1   13    1     1     1    1.0000E+05 -1.0710E+03   1.0107E+05  0.000E+00  0.000E+00  0.000E+00  4.84065E+01  1.451E-01  2.000E+01  2.000E+04 -5.355E-02
   1   13    2     1     2    1.0107E+05 -1.9690E+03   1.0304E+05  0.000E+00  0.000E+00  0.000E+00  4.79305E+01  1.464E-01  2.000E+01  2.000E+04 -9.845E-02
   1   14    3     1     3    1.0304E+05 -3.2914E+02   1.0337E+05  0.000E+00  0.000E+00  0.000E+00  4.74542E+01  1.474E-01  2.000E+01  2.000E+04 -1.646E-02
   1   15    4     1     4    1.0337E+05 -2.8834E+02   1.0366E+05  0.000E+00  0.000E+00  0.000E+00  4.69772E+01  1.477E-01  2.000E+01  2.000E+04 -1.442E-02
   1   16    5     1     5    1.0366E+05 -7.8900E+02   1.0445E+05  0.000E+00  0.000E+00  0.000E+00  4.65004E+01  1.481E-01  2.000E+01  2.000E+04 -3.945E-02
   1   16    6     1     6    1.0445E+05 -4.5540E+02   1.0490E+05  0.000E+00  0.000E+00  0.000E+00  4.60237E+01  1.487E-01  2.000E+01  2.000E+04 -2.277E-02
   1   16    7     1     7    1.0490E+05 -3.5459E+02   1.0526E+05  0.000E+00  0.000E+00  0.000E+00  4.55467E+01  1.490E-01  2.000E+01  2.000E+04 -1.773E-02
   1   16    8     1     8    1.0526E+05 -2.1165E+02   1.0547E+05  0.000E+00  0.000E+00  0.000E+00  4.50697E+01  1.493E-01  2.000E+01  2.000E+04 -1.058E-02
   1   16    9     1     9    1.0547E+05 -4.7963E+00   1.0547E+05  0.000E+00  0.000E+00  0.000E+00  4.45925E+01  1.493E-01  2.000E+01  2.000E+04 -2.398E-04
   1   16   10     1    10    1.0547E+05  2.9309E+02   1.0518E+05  0.000E+00  0.000E+00  0.000E+00  4.41151E+01  1.492E-01  2.000E+01  2.000E+04  1.465E-02
   1   16   11     1    11    1.0518E+05  7.5430E+02   1.0443E+05  0.000E+00  0.000E+00  0.000E+00  4.36374E+01  1.488E-01  2.000E+01  2.000E+04  3.771E-02
   1   16   12     1    12    1.0443E+05  2.2381E+03   1.0219E+05  0.000E+00  0.000E+00  0.000E+00  4.31589E+01  1.475E-01  2.000E+01  2.000E+04  1.119E-01
   1   15   13     1    13    1.0219E+05  1.1838E+03   1.0100E+05  0.000E+00  0.000E+00  0.000E+00  4.26801E+01  1.460E-01  2.000E+01  2.000E+04  5.919E-02
   1   14   14     1    14    1.0100E+05 -5.7668E+00   1.0101E+05  0.000E+00  0.000E+00  0.000E+00  4.22023E+01  1.455E-01  2.000E+01  2.000E+04 -2.883E-04
   1   13   15     1    15    1.0101E+05 -1.0272E+03   1.0204E+05  0.000E+00  0.000E+00  0.000E+00  4.17255E+01  1.460E-01  2.000E+01  2.000E+04 -5.136E-02
   1   12   16     1    16    1.0204E+05 -2.3138E+03   1.0435E+05  0.000E+00  0.000E+00  0.000E+00  4.12497E+01  1.474E-01  2.000E+01  2.000E+04 -1.157E-01
   1   12   17     1    17    1.0435E+05 -1.3049E+03   1.0566E+05  0.000E+00  0.000E+00  0.000E+00  4.07740E+01  1.490E-01  2.000E+01  2.000E+04 -6.525E-02
   1   12   18     1    18    1.0566E+05 -1.2601E+03   1.0692E+05  0.000E+00  0.000E+00  0.000E+00  4.02978E+01  1.500E-01  2.000E+01  2.000E+04 -6.300E-02
   1   12   19     1    19    1.0692E+05 -1.9237E+03   1.0884E+05  0.000E+00  0.000E+00  0.000E+00  3.98218E+01  1.514E-01  2.000E+01  2.000E+04 -9.618E-02
   1   13   20     1    20    1.0884E+05 -8.6731E+02   1.0971E+05  0.000E+00  0.000E+00  0.000E+00  3.93457E+01  1.526E-01  2.000E+01  2.000E+04 -4.337E-02
   1   14   21     1    21    1.0971E+05 -1.7881E+02   1.0989E+05  0.000E+00  0.000E+00  0.000E+00  3.88689E+01  1.530E-01  2.000E+01  2.000E+04 -8.940E-03
   1   14   22     1    22    1.0989E+05  4.9852E+03   1.0490E+05  0.000E+00  0.000E+00  0.000E+00  3.83896E+01  1.510E-01  2.000E+01  2.000E+04  2.493E-01
   1    9   30     2     1    5.0000E+04 -5.6520E+02   5.0565E+04  0.000E+00  0.000E+00  0.000E+00  4.02413E+01  1.163E-01  2.000E+01  2.000E+04 -2.826E-02
   1    9   29     2     2    5.0565E+04 -8.6421E+02   5.1429E+04  0.000E+00  0.000E+00  0.000E+00  3.99922E+01  1.172E-01  2.000E+01  2.000E+04 -4.321E-02
   1    9   28     2     3    5.1429E+04 -1.1174E+03   5.2547E+04  0.000E+00  0.000E+00  0.000E+00  3.97436E+01  1.186E-01  2.000E+01  2.000E+04 -5.587E-02
   1    9   27     2     4    5.2547E+04 -2.3370E+03   5.4884E+04  0.000E+00  0.000E+00  0.000E+00  3.94960E+01  1.210E-01  2.000E+01  2.000E+04 -1.169E-01
   1   10   26     2     5    5.4884E+04 -1.5500E+03   5.6434E+04  0.000E+00  0.000E+00  0.000E+00  3.92486E+01  1.236E-01  2.000E+01  2.000E+04 -7.750E-02
   1   11   25     2     6    5.6434E+04 -1.3572E+03   5.7791E+04  0.000E+00  0.000E+00  0.000E+00  3.90005E+01  1.255E-01  2.000E+01  2.000E+04 -6.786E-02
   1   12   24     2     7    5.7791E+04 -1.4362E+03   5.9227E+04  0.000E+00  0.000E+00  0.000E+00  3.87523E+01  1.273E-01  2.000E+01  2.000E+04 -7.181E-02
   1   13   23     2     8    5.9227E+04 -2.2308E+02   5.9450E+04  0.000E+00  0.000E+00  0.000E+00  3.85034E+01  1.284E-01  2.000E+01  2.000E+04 -1.115E-02
   1   14   22     2     9    5.9450E+04  2.2348E+03   5.7216E+04  0.000E+00  0.000E+00  0.000E+00  3.82521E+01  1.271E-01  2.000E+01  2.000E+04  1.117E-01
   1   14   22     3     1    1.6212E+05 -8.4382E+03   1.7055E+05  0.000E+00  0.000E+00  0.000E+00  3.77184E+01  1.629E-01  2.000E+01  2.000E+04 -4.219E-01
   1   15   23     3     2    1.7055E+05 -2.5988E+02   1.7081E+05  0.000E+00  0.000E+00  0.000E+00  3.68321E+01  1.654E-01  2.000E+01  2.000E+04 -1.299E-02
   1   15   24     3     3    1.7081E+05 -1.7680E+02   1.7099E+05  0.000E+00  0.000E+00  0.000E+00  3.59433E+01  1.656E-01  2.000E+01  2.000E+04 -8.840E-03
   1   15   25     3     4    1.7099E+05 -1.9220E+02   1.7118E+05  0.000E+00  0.000E+00  0.000E+00  3.50546E+01  1.657E-01  2.000E+01  2.000E+04 -9.610E-03
   1   15   26     3     5    1.7118E+05 -2.6423E+02   1.7145E+05  0.000E+00  0.000E+00  0.000E+00  3.41658E+01  1.658E-01  2.000E+01  2.000E+04 -1.321E-02
   1   16   27     3     6    1.7145E+05 -2.6864E+02   1.7172E+05  0.000E+00  0.000E+00  0.000E+00  3.32771E+01  1.660E-01  2.000E+01  2.000E+04 -1.343E-02
   1   17   28     3     7    1.7172E+05 -1.2267E+03   1.7294E+05  0.000E+00  0.000E+00  0.000E+00  3.23886E+01  1.664E-01  2.000E+01  2.000E+04 -6.133E-02
   1   18   29     3     8    1.7294E+05 -2.3173E+03   1.7526E+05  0.000E+00  0.000E+00  0.000E+00  3.15007E+01  1.674E-01  2.000E+01  2.000E+04 -1.159E-01
   1   18   30     3     9    1.7526E+05 -2.8060E+03   1.7807E+05  0.000E+00  0.000E+00  0.000E+00  3.06133E+01  1.689E-01  2.000E+01  2.000E+04 -1.403E-01



1
              HEAD IN LAYER   1 AT END OF TIME STEP   1 IN STRESS PERIOD    9
  ---------------------------------------------------------------------------

          1      2      3      4      5      6      7      8      9     10
         11     12     13     14     15     16     17     18     19     20
         21     22     23     24     25     26     27     28     29     30
 .........................................................................
   1  ****** ****** ****** ****** ****** ****** ****** ****** ****** ******
      ****** ****** ****** ****** ****** ****** ****** ****** ****** ******
      ****** ****** ****** ****** ****** ****** ****** ****** ****** ******
   2  ****** ****** ****** ****** ****** ****** ****** ****** ****** ******
      ****** ****** ****** ****** ****** ****** ****** ****** ****** ******
      ****** ****** ****** ****** ****** ****** ****** ****** ****** ******
   3  ****** ****** ****** ****** ****** ****** ****** ****** ****** ******
      ****** ****** ****** ****** ****** ****** ****** ****** ****** ******
      ****** ****** ****** ****** ****** ****** ****** ****** ****** ******
   4  ****** ****** ****** ****** ****** ****** ****** ****** ****** ******
      ****** ****** ****** ****** ****** ****** ****** ****** ****** ******
      ****** ****** ****** ****** ****** ****** ****** ****** ****** ******
   5  ****** ****** ****** ****** ****** ****** ****** ****** ****** ******
      ****** ****** ****** ****** ****** ****** ****** ****** ****** ******
      ****** ****** ****** ****** ****** ****** ****** ****** ****** ******
   6  ****** ****** ****** ****** ****** ****** ****** ****** ****** ******
      ****** ****** ****** ****** ****** ****** ****** ****** ****** ******
      ****** ****** ****** ****** ****** ****** ****** ****** ****** ******
   7  ****** ****** ****** ****** ****** ****** ****** ****** ****** ******
      ****** ****** ****** ****** ****** ****** ****** ****** ****** ******
      ****** ****** ****** ****** ****** ****** ****** ****** ****** ******
   8  ****** ****** ****** ****** ****** ****** ****** ****** ****** ******
      ****** ****** ****** ****** ****** ****** ****** ****** ****** ******
      ****** ****** ****** ****** ****** ****** ****** ****** ****** ******
   9  ****** ****** ****** ****** ****** ****** ****** ****** ****** ******
      ****** ****** ****** ****** ****** ****** ****** ****** ****** ******
      ****** ****** ****** ****** ****** ****** ****** ****** ****** ******
  10  ****** ****** ****** ****** ****** ****** ****** ****** ****** ******
      ****** ****** ****** ****** ****** ****** ****** ****** ****** ******
      ****** ****** ****** ****** ****** ****** ****** ****** ****** ******
  11  ****** ****** ****** ****** ****** ****** ****** ****** ****** ******
      ****** ****** ****** ****** ****** ****** ****** ****** ****** ******
      ****** ****** ****** ****** ****** ****** ****** ****** ****** ******
  12  ****** ****** ****** ****** ****** ****** ****** ****** ****** ******
      ****** ****** ****** ****** ****** ****** ****** ****** ****** ******
      ****** ****** ****** ****** ****** ****** ****** ****** ****** ******
  13  ****** ****** ****** ****** ****** ****** ****** ****** ****** ******
      ****** ****** ****** ****** ****** ****** ****** ****** ****** ******
      ****** ****** ****** ****** ****** ****** ****** ****** ****** ******
  14  ****** ****** ****** ****** ****** ****** ****** ****** ****** ******
      ****** ****** ****** ****** ****** ****** ****** ****** ****** ******
      ****** ****** ****** ****** ****** ****** ****** ****** ****** ******
  15  ****** ****** ****** ****** ****** ****** ****** ****** ****** ******
      ****** ****** ****** ****** ****** ****** ****** ****** ****** ******
      ****** ****** ****** ****** ****** ****** ****** ****** ****** ******
  16  ****** ****** ****** ****** ****** ****** ****** ****** ****** ******
      ****** ****** ****** ****** ****** ****** ****** ****** ****** ******
      ****** ****** ****** ****** ****** ****** ****** ****** ****** ******
  17  ****** ****** ****** ****** ****** ****** ****** ****** ****** ******
      ****** ****** ****** ****** ****** ****** ****** ****** ****** ******
      ****** ****** ****** ****** ****** ****** ****** ****** ****** ******
  18  ****** ****** ****** ****** ****** ****** ****** ****** ****** ******
      ****** ****** ****** ****** ****** ****** ****** ****** ****** ******
      ****** ****** ****** ****** ****** ****** ****** ****** ****** ******
  19  ****** ****** ****** ****** ****** ****** ****** ****** ****** ******
      ****** ****** ****** ****** ****** ****** ****** ****** ****** ******
      ****** ****** ****** ****** ****** ****** ****** ****** ****** ******
  20  ****** ****** ****** ****** ****** ****** ****** ****** ****** ******
      ****** ****** ****** ****** ****** ****** ****** ****** ****** ******
      ****** ****** ****** ****** ****** ****** ****** ****** ****** ******
  21  ****** ****** ****** ****** ****** ****** ****** ****** ****** ******
      ****** ****** ****** ****** ****** ****** ****** ****** ****** ******
      ****** ****** ****** ****** ****** ****** ****** ****** ****** ******
  22  ****** ****** ****** ****** ****** ****** ****** ****** ****** ******
      ****** ****** ****** ****** ****** ****** ****** ****** ****** ******
      ****** ****** ****** ****** ****** ****** ****** ****** ****** ******
  23  ****** ****** ****** ****** ****** ****** ****** ****** ****** ******
      ****** ****** ****** ****** ****** ****** ****** ****** ****** ******
      ****** ****** ****** ****** ****** ****** ****** ****** ****** ******
  24  ****** ****** ****** ****** ****** ****** ****** ****** ****** ******
      ****** ****** ****** ****** ****** ****** ****** ****** ****** ******
      ****** ****** ****** ****** ****** ****** ****** ****** ****** ******
  25  ****** ****** ****** ****** ****** ****** ****** ****** ****** ******
      ****** ****** ****** ****** ****** ****** ****** ****** ****** ******
      ****** ****** ****** ****** ****** ****** ****** ****** ****** ******

 HEAD WILL BE SAVED ON UNIT   51 AT END OF TIME STEP    1, STRESS PERIOD    9
1
  VOLUMETRIC BUDGET FOR ENTIRE MODEL AT END OF TIME STEP    1, STRESS PERIOD   9
  ------------------------------------------------------------------------------

     CUMULATIVE VOLUMES      L**3       RATES FOR THIS TIME STEP      L**3/T
     ------------------                 ------------------------

           IN:                                      IN:
           ---                                      ---
             STORAGE =    34652800.1869               STORAGE =        7249.9551
       CONSTANT HEAD =    23348718.3238         CONSTANT HEAD =       35643.8385
               WELLS =           0.0000                 WELLS =           0.0000
            RECHARGE =    18878400.0000              RECHARGE =       13800.0000
      STREAM LEAKAGE =     7314367.9553        STREAM LEAKAGE =       11689.3536

            TOTAL IN =    84194286.4660              TOTAL IN =       68383.1471

          OUT:                                     OUT:
          ----                                     ----
             STORAGE =      904693.4071               STORAGE =           0.0000
       CONSTANT HEAD =           0.0000         CONSTANT HEAD =           0.0000
               WELLS =    23532609.5538                 WELLS =       28628.4788
            RECHARGE =           0.0000              RECHARGE =           0.0000
      STREAM LEAKAGE =    59756985.5229        STREAM LEAKAGE =       39754.6692

           TOTAL OUT =    84194288.4838             TOTAL OUT =       68383.1479

            IN - OUT =          -2.0178              IN - OUT =      -8.0996E-04

 PERCENT DISCREPANCY =          -0.00     PERCENT DISCREPANCY =          -0.00






         TIME SUMMARY AT END OF TIME STEP    1 IN STRESS PERIOD    9
                    SECONDS     MINUTES      HOURS       DAYS        YEARS
                    -----------------------------------------------------------
   TIME STEP LENGTH 7.94880E+06 1.32480E+05  2208.0      92.000     0.25188    
 STRESS PERIOD TIME 7.94880E+06 1.32480E+05  2208.0      92.000     0.25188    
         TOTAL TIME 7.10208E+07 1.18368E+06  19728.      822.00      2.2505    
1
1
                            STRESS PERIOD NO.   10, LENGTH =   91.00000    
                            -----------------------------------------------

                              NUMBER OF TIME STEPS =     1

                               MULTIPLIER FOR DELT =     1.500

                            INITIAL TIME STEP SIZE =   91.00000    

 WELL NO.  LAYER   ROW   COL   STRESS RATE         
 --------------------------------------------------
      1      1     20     17      -6946.    
      2      1     18     14     -0.1271E+05
      3      1      9      3      -2375.    
      4      1     21     12      -6598.    

      4 WELLS

                 RECHARGE =  2.000000E-03

 REUSING STREAM SEGMENT DATA FROM LAST STRESS PERIOD
 
 SOLVING FOR HEAD 


     7 CALLS TO PCG ROUTINE FOR TIME STEP   1 IN STRESS PERIOD   10
    26 TOTAL ITERATIONS

 OUTPUT CONTROL FOR STRESS PERIOD   10   TIME STEP    1
    SAVE BUDGET
    SAVE HEAD FOR ALL LAYERS
    PRINT HEAD FOR ALL LAYERS
 UBDSV2 SAVING "STREAMFLOW OUT  " ON UNIT  50 AT TIME STEP  1, STRESS PERIOD  10



 STREAM LISTING     PERIOD     10   STEP        1

 LAYER ROW COL. STREAM  RCH.  FLOW INTO     FLOW TO   FLOW OUT OF   OVRLND.     DIRECT     STREAM       STREAM     STREAM     STREAM   STREAMBED  STREAMBED
                SEG.NO.  NO.  STRM. RCH.    AQUIFER    STRM. RCH.    RUNOFF     PRECIP       ET          HEAD       DEPTH      WIDTH   CONDCTNC.   GRADIENT

   1   13    1     1     1    1.0000E+05 -1.5228E+03   1.0152E+05  0.000E+00  0.000E+00  0.000E+00  4.84067E+01  1.453E-01  2.000E+01  2.000E+04 -7.614E-02
   1   13    2     1     2    1.0152E+05 -2.4698E+03   1.0399E+05  0.000E+00  0.000E+00  0.000E+00  4.79311E+01  1.470E-01  2.000E+01  2.000E+04 -1.235E-01
   1   14    3     1     3    1.0399E+05 -5.1543E+02   1.0451E+05  0.000E+00  0.000E+00  0.000E+00  4.74551E+01  1.483E-01  2.000E+01  2.000E+04 -2.577E-02
   1   15    4     1     4    1.0451E+05 -4.8748E+02   1.0500E+05  0.000E+00  0.000E+00  0.000E+00  4.69783E+01  1.487E-01  2.000E+01  2.000E+04 -2.437E-02
   1   16    5     1     5    1.0500E+05 -1.4064E+03   1.0640E+05  0.000E+00  0.000E+00  0.000E+00  4.65018E+01  1.495E-01  2.000E+01  2.000E+04 -7.032E-02
   1   16    6     1     6    1.0640E+05 -8.1677E+02   1.0722E+05  0.000E+00  0.000E+00  0.000E+00  4.60255E+01  1.505E-01  2.000E+01  2.000E+04 -4.084E-02
   1   16    7     1     7    1.0722E+05 -6.9822E+02   1.0792E+05  0.000E+00  0.000E+00  0.000E+00  4.55489E+01  1.511E-01  2.000E+01  2.000E+04 -3.491E-02
   1   16    8     1     8    1.0792E+05 -5.4984E+02   1.0847E+05  0.000E+00  0.000E+00  0.000E+00  4.50721E+01  1.516E-01  2.000E+01  2.000E+04 -2.749E-02
   1   16    9     1     9    1.0847E+05 -3.4145E+02   1.0881E+05  0.000E+00  0.000E+00  0.000E+00  4.45952E+01  1.520E-01  2.000E+01  2.000E+04 -1.707E-02
   1   16   10     1    10    1.0881E+05 -4.3688E+01   1.0885E+05  0.000E+00  0.000E+00  0.000E+00  4.41181E+01  1.522E-01  2.000E+01  2.000E+04 -2.184E-03
   1   16   11     1    11    1.0885E+05  4.1416E+02   1.0844E+05  0.000E+00  0.000E+00  0.000E+00  4.36407E+01  1.520E-01  2.000E+01  2.000E+04  2.071E-02
   1   16   12     1    12    1.0844E+05  1.6705E+03   1.0677E+05  0.000E+00  0.000E+00  0.000E+00  4.31625E+01  1.512E-01  2.000E+01  2.000E+04  8.352E-02
   1   15   13     1    13    1.0677E+05  5.9858E+02   1.0617E+05  0.000E+00  0.000E+00  0.000E+00  4.26843E+01  1.502E-01  2.000E+01  2.000E+04  2.993E-02
   1   14   14     1    14    1.0617E+05 -5.9854E+02   1.0677E+05  0.000E+00  0.000E+00  0.000E+00  4.22070E+01  1.502E-01  2.000E+01  2.000E+04 -2.993E-02
   1   13   15     1    15    1.0677E+05 -1.6104E+03   1.0838E+05  0.000E+00  0.000E+00  0.000E+00  4.17307E+01  1.511E-01  2.000E+01  2.000E+04 -8.052E-02
   1   12   16     1    16    1.0838E+05 -2.8762E+03   1.1125E+05  0.000E+00  0.000E+00  0.000E+00  4.12553E+01  1.530E-01  2.000E+01  2.000E+04 -1.438E-01
   1   12   17     1    17    1.1125E+05 -1.7305E+03   1.1298E+05  0.000E+00  0.000E+00  0.000E+00  4.07799E+01  1.549E-01  2.000E+01  2.000E+04 -8.652E-02
   1   12   18     1    18    1.1298E+05 -1.6814E+03   1.1467E+05  0.000E+00  0.000E+00  0.000E+00  4.03041E+01  1.563E-01  2.000E+01  2.000E+04 -8.407E-02
   1   12   19     1    19    1.1467E+05 -2.4424E+03   1.1711E+05  0.000E+00  0.000E+00  0.000E+00  3.98285E+01  1.580E-01  2.000E+01  2.000E+04 -1.221E-01
   1   13   20     1    20    1.1711E+05 -1.3879E+03   1.1850E+05  0.000E+00  0.000E+00  0.000E+00  3.93528E+01  1.596E-01  2.000E+01  2.000E+04 -6.939E-02
   1   14   21     1    21    1.1850E+05 -7.0199E+02   1.1920E+05  0.000E+00  0.000E+00  0.000E+00  3.88764E+01  1.604E-01  2.000E+01  2.000E+04 -3.510E-02
   1   14   22     1    22    1.1920E+05  4.8623E+03   1.1434E+05  0.000E+00  0.000E+00  0.000E+00  3.83974E+01  1.588E-01  2.000E+01  2.000E+04  2.431E-01
   1    9   30     2     1    5.0000E+04 -9.7966E+02   5.0980E+04  0.000E+00  0.000E+00  0.000E+00  4.02415E+01  1.165E-01  2.000E+01  2.000E+04 -4.898E-02
   1    9   29     2     2    5.0980E+04 -1.2764E+03   5.2256E+04  0.000E+00  0.000E+00  0.000E+00  3.99931E+01  1.181E-01  2.000E+01  2.000E+04 -6.382E-02
   1    9   28     2     3    5.2256E+04 -1.5288E+03   5.3785E+04  0.000E+00  0.000E+00  0.000E+00  3.97450E+01  1.200E-01  2.000E+01  2.000E+04 -7.644E-02
   1    9   27     2     4    5.3785E+04 -2.8906E+03   5.6675E+04  0.000E+00  0.000E+00  0.000E+00  3.94980E+01  1.230E-01  2.000E+01  2.000E+04 -1.445E-01
   1   10   26     2     5    5.6675E+04 -2.1034E+03   5.8779E+04  0.000E+00  0.000E+00  0.000E+00  3.92513E+01  1.263E-01  2.000E+01  2.000E+04 -1.052E-01
   1   11   25     2     6    5.8779E+04 -1.8861E+03   6.0665E+04  0.000E+00  0.000E+00  0.000E+00  3.90039E+01  1.289E-01  2.000E+01  2.000E+04 -9.430E-02
   1   12   24     2     7    6.0665E+04 -1.9149E+03   6.2580E+04  0.000E+00  0.000E+00  0.000E+00  3.87563E+01  1.313E-01  2.000E+01  2.000E+04 -9.574E-02
   1   13   23     2     8    6.2580E+04 -3.7187E+02   6.2952E+04  0.000E+00  0.000E+00  0.000E+00  3.85078E+01  1.328E-01  2.000E+01  2.000E+04 -1.859E-02
   1   14   22     2     9    6.2952E+04  2.0492E+03   6.0902E+04  0.000E+00  0.000E+00  0.000E+00  3.82567E+01  1.317E-01  2.000E+01  2.000E+04  1.025E-01
   1   14   22     3     1    1.7524E+05 -8.5640E+03   1.8380E+05  0.000E+00  0.000E+00  0.000E+00  3.77261E+01  1.705E-01  2.000E+01  2.000E+04 -4.282E-01
   1   15   23     3     2    1.8380E+05 -4.2197E+02   1.8422E+05  0.000E+00  0.000E+00  0.000E+00  3.68397E+01  1.731E-01  2.000E+01  2.000E+04 -2.110E-02
   1   15   24     3     3    1.8422E+05 -3.1373E+02   1.8454E+05  0.000E+00  0.000E+00  0.000E+00  3.59511E+01  1.733E-01  2.000E+01  2.000E+04 -1.569E-02
   1   15   25     3     4    1.8454E+05 -3.3257E+02   1.8487E+05  0.000E+00  0.000E+00  0.000E+00  3.50623E+01  1.735E-01  2.000E+01  2.000E+04 -1.663E-02
   1   15   26     3     5    1.8487E+05 -4.2633E+02   1.8530E+05  0.000E+00  0.000E+00  0.000E+00  3.41737E+01  1.737E-01  2.000E+01  2.000E+04 -2.132E-02
   1   16   27     3     6    1.8530E+05 -4.5425E+02   1.8575E+05  0.000E+00  0.000E+00  0.000E+00  3.32850E+01  1.739E-01  2.000E+01  2.000E+04 -2.271E-02
   1   17   28     3     7    1.8575E+05 -1.7464E+03   1.8750E+05  0.000E+00  0.000E+00  0.000E+00  3.23968E+01  1.745E-01  2.000E+01  2.000E+04 -8.732E-02
   1   18   29     3     8    1.8750E+05 -2.8668E+03   1.9036E+05  0.000E+00  0.000E+00  0.000E+00  3.15092E+01  1.758E-01  2.000E+01  2.000E+04 -1.433E-01
   1   18   30     3     9    1.9036E+05 -3.2303E+03   1.9359E+05  0.000E+00  0.000E+00  0.000E+00  3.06220E+01  1.775E-01  2.000E+01  2.000E+04 -1.615E-01



1
              HEAD IN LAYER   1 AT END OF TIME STEP   1 IN STRESS PERIOD   10
  ---------------------------------------------------------------------------

          1      2      3      4      5      6      7      8      9     10
         11     12     13     14     15     16     17     18     19     20
         21     22     23     24     25     26     27     28     29     30
 .........................................................................
   1  ****** ****** ****** ****** ****** ****** ****** ****** ****** ******
      ****** ****** ****** ****** ****** ****** ****** ****** ****** ******
      ****** ****** ****** ****** ****** ****** ****** ****** ****** ******
   2  ****** ****** ****** ****** ****** ****** ****** ****** ****** ******
      ****** ****** ****** ****** ****** ****** ****** ****** ****** ******
      ****** ****** ****** ****** ****** ****** ****** ****** ****** ******
   3  ****** ****** ****** ****** ****** ****** ****** ****** ****** ******
      ****** ****** ****** ****** ****** ****** ****** ****** ****** ******
      ****** ****** ****** ****** ****** ****** ****** ****** ****** ******
   4  ****** ****** ****** ****** ****** ****** ****** ****** ****** ******
      ****** ****** ****** ****** ****** ****** ****** ****** ****** ******
      ****** ****** ****** ****** ****** ****** ****** ****** ****** ******
   5  ****** ****** ****** ****** ****** ****** ****** ****** ****** ******
      ****** ****** ****** ****** ****** ****** ****** ****** ****** ******
      ****** ****** ****** ****** ****** ****** ****** ****** ****** ******
   6  ****** ****** ****** ****** ****** ****** ****** ****** ****** ******
      ****** ****** ****** ****** ****** ****** ****** ****** ****** ******
      ****** ****** ****** ****** ****** ****** ****** ****** ****** ******
   7  ****** ****** ****** ****** ****** ****** ****** ****** ****** ******
      ****** ****** ****** ****** ****** ****** ****** ****** ****** ******
      ****** ****** ****** ****** ****** ****** ****** ****** ****** ******
   8  ****** ****** ****** ****** ****** ****** ****** ****** ****** ******
      ****** ****** ****** ****** ****** ****** ****** ****** ****** ******
      ****** ****** ****** ****** ****** ****** ****** ****** ****** ******
   9  ****** ****** ****** ****** ****** ****** ****** ****** ****** ******
      ****** ****** ****** ****** ****** ****** ****** ****** ****** ******
      ****** ****** ****** ****** ****** ****** ****** ****** ****** ******
  10  ****** ****** ****** ****** ****** ****** ****** ****** ****** ******
      ****** ****** ****** ****** ****** ****** ****** ****** ****** ******
      ****** ****** ****** ****** ****** ****** ****** ****** ****** ******
  11  ****** ****** ****** ****** ****** ****** ****** ****** ****** ******
      ****** ****** ****** ****** ****** ****** ****** ****** ****** ******
      ****** ****** ****** ****** ****** ****** ****** ****** ****** ******
  12  ****** ****** ****** ****** ****** ****** ****** ****** ****** ******
      ****** ****** ****** ****** ****** ****** ****** ****** ****** ******
      ****** ****** ****** ****** ****** ****** ****** ****** ****** ******
  13  ****** ****** ****** ****** ****** ****** ****** ****** ****** ******
      ****** ****** ****** ****** ****** ****** ****** ****** ****** ******
      ****** ****** ****** ****** ****** ****** ****** ****** ****** ******
  14  ****** ****** ****** ****** ****** ****** ****** ****** ****** ******
      ****** ****** ****** ****** ****** ****** ****** ****** ****** ******
      ****** ****** ****** ****** ****** ****** ****** ****** ****** ******
  15  ****** ****** ****** ****** ****** ****** ****** ****** ****** ******
      ****** ****** ****** ****** ****** ****** ****** ****** ****** ******
      ****** ****** ****** ****** ****** ****** ****** ****** ****** ******
  16  ****** ****** ****** ****** ****** ****** ****** ****** ****** ******
      ****** ****** ****** ****** ****** ****** ****** ****** ****** ******
      ****** ****** ****** ****** ****** ****** ****** ****** ****** ******
  17  ****** ****** ****** ****** ****** ****** ****** ****** ****** ******
      ****** ****** ****** ****** ****** ****** ****** ****** ****** ******
      ****** ****** ****** ****** ****** ****** ****** ****** ****** ******
  18  ****** ****** ****** ****** ****** ****** ****** ****** ****** ******
      ****** ****** ****** ****** ****** ****** ****** ****** ****** ******
      ****** ****** ****** ****** ****** ****** ****** ****** ****** ******
  19  ****** ****** ****** ****** ****** ****** ****** ****** ****** ******
      ****** ****** ****** ****** ****** ****** ****** ****** ****** ******
      ****** ****** ****** ****** ****** ****** ****** ****** ****** ******
  20  ****** ****** ****** ****** ****** ****** ****** ****** ****** ******
      ****** ****** ****** ****** ****** ****** ****** ****** ****** ******
      ****** ****** ****** ****** ****** ****** ****** ****** ****** ******
  21  ****** ****** ****** ****** ****** ****** ****** ****** ****** ******
      ****** ****** ****** ****** ****** ****** ****** ****** ****** ******
      ****** ****** ****** ****** ****** ****** ****** ****** ****** ******
  22  ****** ****** ****** ****** ****** ****** ****** ****** ****** ******
      ****** ****** ****** ****** ****** ****** ****** ****** ****** ******
      ****** ****** ****** ****** ****** ****** ****** ****** ****** ******
  23  ****** ****** ****** ****** ****** ****** ****** ****** ****** ******
      ****** ****** ****** ****** ****** ****** ****** ****** ****** ******
      ****** ****** ****** ****** ****** ****** ****** ****** ****** ******
  24  ****** ****** ****** ****** ****** ****** ****** ****** ****** ******
      ****** ****** ****** ****** ****** ****** ****** ****** ****** ******
      ****** ****** ****** ****** ****** ****** ****** ****** ****** ******
  25  ****** ****** ****** ****** ****** ****** ****** ****** ****** ******
      ****** ****** ****** ****** ****** ****** ****** ****** ****** ******
      ****** ****** ****** ****** ****** ****** ****** ****** ****** ******

 HEAD WILL BE SAVED ON UNIT   51 AT END OF TIME STEP    1, STRESS PERIOD   10
1
  VOLUMETRIC BUDGET FOR ENTIRE MODEL AT END OF TIME STEP    1, STRESS PERIOD  10
  ------------------------------------------------------------------------------

     CUMULATIVE VOLUMES      L**3       RATES FOR THIS TIME STEP      L**3/T
     ------------------                 ------------------------

           IN:                                      IN:
           ---                                      ---
             STORAGE =    34652800.1869               STORAGE =           0.0000
       CONSTANT HEAD =    26323983.9717         CONSTANT HEAD =       32695.2269
               WELLS =           0.0000                 WELLS =           0.0000
            RECHARGE =    23901600.0000              RECHARGE =       55200.0000
      STREAM LEAKAGE =     8187484.0278        STREAM LEAKAGE =        9594.6821

            TOTAL IN =    93065868.1864              TOTAL IN =       97489.9090

          OUT:                                     OUT:
          ----                                     ----
             STORAGE =     2330878.7439               STORAGE =       15672.3663
       CONSTANT HEAD =           0.0000         CONSTANT HEAD =           0.0000
               WELLS =    26137801.1224                 WELLS =       28628.4788
            RECHARGE =           0.0000              RECHARGE =           0.0000
      STREAM LEAKAGE =    64597189.9811        STREAM LEAKAGE =       53189.0600

           TOTAL OUT =    93065869.8474             TOTAL OUT =       97489.9051

            IN - OUT =          -1.6609              IN - OUT =       3.9224E-03

 PERCENT DISCREPANCY =          -0.00     PERCENT DISCREPANCY =           0.00






         TIME SUMMARY AT END OF TIME STEP    1 IN STRESS PERIOD   10
                    SECONDS     MINUTES      HOURS       DAYS        YEARS
                    -----------------------------------------------------------
   TIME STEP LENGTH 7.86240E+06 1.31040E+05  2184.0      91.000     0.24914    
 STRESS PERIOD TIME 7.86240E+06 1.31040E+05  2184.0      91.000     0.24914    
         TOTAL TIME 7.88832E+07 1.31472E+06  21912.      913.00      2.4997    
1
1
                            STRESS PERIOD NO.   11, LENGTH =   91.00000    
                            -----------------------------------------------

                              NUMBER OF TIME STEPS =     1

                               MULTIPLIER FOR DELT =     1.500

                            INITIAL TIME STEP SIZE =   91.00000    

 WELL NO.  LAYER   ROW   COL   STRESS RATE         
 --------------------------------------------------
      1      1     20     17      -6946.    
      2      1     18     14     -0.1271E+05
      3      1      9      3      -2375.    
      4      1     21     12      -6598.    

      4 WELLS

                 RECHARGE =   0.00000    

 REUSING STREAM SEGMENT DATA FROM LAST STRESS PERIOD
 
 SOLVING FOR HEAD 


     7 CALLS TO PCG ROUTINE FOR TIME STEP   1 IN STRESS PERIOD   11
    26 TOTAL ITERATIONS

 OUTPUT CONTROL FOR STRESS PERIOD   11   TIME STEP    1
    SAVE BUDGET
    SAVE HEAD FOR ALL LAYERS
    PRINT HEAD FOR ALL LAYERS
 UBDSV2 SAVING "STREAMFLOW OUT  " ON UNIT  50 AT TIME STEP  1, STRESS PERIOD  11



 STREAM LISTING     PERIOD     11   STEP        1

 LAYER ROW COL. STREAM  RCH.  FLOW INTO     FLOW TO   FLOW OUT OF   OVRLND.     DIRECT     STREAM       STREAM     STREAM     STREAM   STREAMBED  STREAMBED
                SEG.NO.  NO.  STRM. RCH.    AQUIFER    STRM. RCH.    RUNOFF     PRECIP       ET          HEAD       DEPTH      WIDTH   CONDCTNC.   GRADIENT

   1   13    1     1     1    1.0000E+05 -9.5473E+02   1.0095E+05  0.000E+00  0.000E+00  0.000E+00  4.84064E+01  1.451E-01  2.000E+01  2.000E+04 -4.774E-02
   1   13    2     1     2    1.0095E+05 -1.8372E+03   1.0279E+05  0.000E+00  0.000E+00  0.000E+00  4.79304E+01  1.463E-01  2.000E+01  2.000E+04 -9.186E-02
   1   14    3     1     3    1.0279E+05 -2.8441E+02   1.0308E+05  0.000E+00  0.000E+00  0.000E+00  4.74540E+01  1.472E-01  2.000E+01  2.000E+04 -1.422E-02
   1   15    4     1     4    1.0308E+05 -2.4543E+02   1.0332E+05  0.000E+00  0.000E+00  0.000E+00  4.69770E+01  1.474E-01  2.000E+01  2.000E+04 -1.227E-02
   1   16    5     1     5    1.0332E+05 -7.1776E+02   1.0404E+05  0.000E+00  0.000E+00  0.000E+00  4.65001E+01  1.478E-01  2.000E+01  2.000E+04 -3.589E-02
   1   16    6     1     6    1.0404E+05 -4.0205E+02   1.0444E+05  0.000E+00  0.000E+00  0.000E+00  4.60233E+01  1.483E-01  2.000E+01  2.000E+04 -2.010E-02
   1   16    7     1     7    1.0444E+05 -3.0113E+02   1.0474E+05  0.000E+00  0.000E+00  0.000E+00  4.55463E+01  1.486E-01  2.000E+01  2.000E+04 -1.506E-02
   1   16    8     1     8    1.0474E+05 -1.5826E+02   1.0490E+05  0.000E+00  0.000E+00  0.000E+00  4.50693E+01  1.488E-01  2.000E+01  2.000E+04 -7.913E-03
   1   16    9     1     9    1.0490E+05  4.7907E+01   1.0485E+05  0.000E+00  0.000E+00  0.000E+00  4.45920E+01  1.488E-01  2.000E+01  2.000E+04  2.395E-03
   1   16   10     1    10    1.0485E+05  3.4461E+02   1.0451E+05  0.000E+00  0.000E+00  0.000E+00  4.41146E+01  1.487E-01  2.000E+01  2.000E+04  1.723E-02
   1   16   11     1    11    1.0451E+05  8.0432E+02   1.0370E+05  0.000E+00  0.000E+00  0.000E+00  4.36368E+01  1.482E-01  2.000E+01  2.000E+04  4.022E-02
   1   16   12     1    12    1.0370E+05  2.3170E+03   1.0139E+05  0.000E+00  0.000E+00  0.000E+00  4.31582E+01  1.469E-01  2.000E+01  2.000E+04  1.159E-01
   1   15   13     1    13    1.0139E+05  1.2876E+03   1.0010E+05  0.000E+00  0.000E+00  0.000E+00  4.26794E+01  1.453E-01  2.000E+01  2.000E+04  6.438E-02
   1   14   14     1    14    1.0010E+05  1.0803E+02   9.9991E+04  0.000E+00  0.000E+00  0.000E+00  4.22015E+01  1.447E-01  2.000E+01  2.000E+04  5.402E-03
   1   13   15     1    15    9.9991E+04 -9.0960E+02   1.0090E+05  0.000E+00  0.000E+00  0.000E+00  4.17246E+01  1.450E-01  2.000E+01  2.000E+04 -4.548E-02
   1   12   16     1    16    1.0090E+05 -2.1993E+03   1.0310E+05  0.000E+00  0.000E+00  0.000E+00  4.12487E+01  1.464E-01  2.000E+01  2.000E+04 -1.100E-01
   1   12   17     1    17    1.0310E+05 -1.2238E+03   1.0432E+05  0.000E+00  0.000E+00  0.000E+00  4.07729E+01  1.479E-01  2.000E+01  2.000E+04 -6.119E-02
   1   12   18     1    18    1.0432E+05 -1.1824E+03   1.0551E+05  0.000E+00  0.000E+00  0.000E+00  4.02966E+01  1.489E-01  2.000E+01  2.000E+04 -5.912E-02
   1   12   19     1    19    1.0551E+05 -1.8300E+03   1.0734E+05  0.000E+00  0.000E+00  0.000E+00  3.98206E+01  1.502E-01  2.000E+01  2.000E+04 -9.150E-02
   1   13   20     1    20    1.0734E+05 -7.7535E+02   1.0811E+05  0.000E+00  0.000E+00  0.000E+00  3.93444E+01  1.513E-01  2.000E+01  2.000E+04 -3.877E-02
   1   14   21     1    21    1.0811E+05 -1.0448E+02   1.0822E+05  0.000E+00  0.000E+00  0.000E+00  3.88675E+01  1.516E-01  2.000E+01  2.000E+04 -5.224E-03
   1   14   22     1    22    1.0822E+05  5.0045E+03   1.0321E+05  0.000E+00  0.000E+00  0.000E+00  3.83882E+01  1.496E-01  2.000E+01  2.000E+04  2.502E-01
   1    9   30     2     1    5.0000E+04 -4.9178E+02   5.0492E+04  0.000E+00  0.000E+00  0.000E+00  4.02412E+01  1.162E-01  2.000E+01  2.000E+04 -2.459E-02
   1    9   29     2     2    5.0492E+04 -7.9158E+02   5.1283E+04  0.000E+00  0.000E+00  0.000E+00  3.99921E+01  1.171E-01  2.000E+01  2.000E+04 -3.958E-02
   1    9   28     2     3    5.1283E+04 -1.0462E+03   5.2330E+04  0.000E+00  0.000E+00  0.000E+00  3.97434E+01  1.184E-01  2.000E+01  2.000E+04 -5.231E-02
   1    9   27     2     4    5.2330E+04 -2.2512E+03   5.4581E+04  0.000E+00  0.000E+00  0.000E+00  3.94956E+01  1.206E-01  2.000E+01  2.000E+04 -1.126E-01
   1   10   26     2     5    5.4581E+04 -1.4495E+03   5.6030E+04  0.000E+00  0.000E+00  0.000E+00  3.92481E+01  1.231E-01  2.000E+01  2.000E+04 -7.248E-02
   1   11   25     2     6    5.6030E+04 -1.2559E+03   5.7286E+04  0.000E+00  0.000E+00  0.000E+00  3.89999E+01  1.249E-01  2.000E+01  2.000E+04 -6.280E-02
   1   12   24     2     7    5.7286E+04 -1.3416E+03   5.8628E+04  0.000E+00  0.000E+00  0.000E+00  3.87516E+01  1.266E-01  2.000E+01  2.000E+04 -6.708E-02
   1   13   23     2     8    5.8628E+04 -1.8599E+02   5.8814E+04  0.000E+00  0.000E+00  0.000E+00  3.85026E+01  1.276E-01  2.000E+01  2.000E+04 -9.299E-03
   1   14   22     2     9    5.8814E+04  2.2654E+03   5.6548E+04  0.000E+00  0.000E+00  0.000E+00  3.82512E+01  1.262E-01  2.000E+01  2.000E+04  1.133E-01
   1   14   22     3     1    1.5976E+05 -8.4184E+03   1.6818E+05  0.000E+00  0.000E+00  0.000E+00  3.77171E+01  1.615E-01  2.000E+01  2.000E+04 -4.209E-01
   1   15   23     3     2    1.6818E+05 -2.2970E+02   1.6841E+05  0.000E+00  0.000E+00  0.000E+00  3.68307E+01  1.640E-01  2.000E+01  2.000E+04 -1.149E-02
   1   15   24     3     3    1.6841E+05 -1.4848E+02   1.6856E+05  0.000E+00  0.000E+00  0.000E+00  3.59419E+01  1.641E-01  2.000E+01  2.000E+04 -7.424E-03
   1   15   25     3     4    1.6856E+05 -1.6351E+02   1.6872E+05  0.000E+00  0.000E+00  0.000E+00  3.50531E+01  1.642E-01  2.000E+01  2.000E+04 -8.175E-03
   1   15   26     3     5    1.6872E+05 -2.3058E+02   1.6895E+05  0.000E+00  0.000E+00  0.000E+00  3.41644E+01  1.644E-01  2.000E+01  2.000E+04 -1.153E-02
   1   16   27     3     6    1.6895E+05 -2.3112E+02   1.6918E+05  0.000E+00  0.000E+00  0.000E+00  3.32756E+01  1.645E-01  2.000E+01  2.000E+04 -1.156E-02
   1   17   28     3     7    1.6918E+05 -1.1363E+03   1.7032E+05  0.000E+00  0.000E+00  0.000E+00  3.23871E+01  1.649E-01  2.000E+01  2.000E+04 -5.681E-02
   1   18   29     3     8    1.7032E+05 -2.2440E+03   1.7256E+05  0.000E+00  0.000E+00  0.000E+00  3.14992E+01  1.659E-01  2.000E+01  2.000E+04 -1.122E-01
   1   18   30     3     9    1.7256E+05 -2.7405E+03   1.7530E+05  0.000E+00  0.000E+00  0.000E+00  3.06118E+01  1.673E-01  2.000E+01  2.000E+04 -1.370E-01



1
              HEAD IN LAYER   1 AT END OF TIME STEP   1 IN STRESS PERIOD   11
  ---------------------------------------------------------------------------

          1      2      3      4      5      6      7      8      9     10
         11     12     13     14     15     16     17     18     19     20
         21     22     23     24     25     26     27     28     29     30
 .........................................................................
   1  ****** ****** ****** ****** ****** ****** ****** ****** ****** ******
      ****** ****** ****** ****** ****** ****** ****** ****** ****** ******
      ****** ****** ****** ****** ****** ****** ****** ****** ****** ******
   2  ****** ****** ****** ****** ****** ****** ****** ****** ****** ******
      ****** ****** ****** ****** ****** ****** ****** ****** ****** ******
      ****** ****** ****** ****** ****** ****** ****** ****** ****** ******
   3  ****** ****** ****** ****** ****** ****** ****** ****** ****** ******
      ****** ****** ****** ****** ****** ****** ****** ****** ****** ******
      ****** ****** ****** ****** ****** ****** ****** ****** ****** ******
   4  ****** ****** ****** ****** ****** ****** ****** ****** ****** ******
      ****** ****** ****** ****** ****** ****** ****** ****** ****** ******
      ****** ****** ****** ****** ****** ****** ****** ****** ****** ******
   5  ****** ****** ****** ****** ****** ****** ****** ****** ****** ******
      ****** ****** ****** ****** ****** ****** ****** ****** ****** ******
      ****** ****** ****** ****** ****** ****** ****** ****** ****** ******
   6  ****** ****** ****** ****** ****** ****** ****** ****** ****** ******
      ****** ****** ****** ****** ****** ****** ****** ****** ****** ******
      ****** ****** ****** ****** ****** ****** ****** ****** ****** ******
   7  ****** ****** ****** ****** ****** ****** ****** ****** ****** ******
      ****** ****** ****** ****** ****** ****** ****** ****** ****** ******
      ****** ****** ****** ****** ****** ****** ****** ****** ****** ******
   8  ****** ****** ****** ****** ****** ****** ****** ****** ****** ******
      ****** ****** ****** ****** ****** ****** ****** ****** ****** ******
      ****** ****** ****** ****** ****** ****** ****** ****** ****** ******
   9  ****** ****** ****** ****** ****** ****** ****** ****** ****** ******
      ****** ****** ****** ****** ****** ****** ****** ****** ****** ******
      ****** ****** ****** ****** ****** ****** ****** ****** ****** ******
  10  ****** ****** ****** ****** ****** ****** ****** ****** ****** ******
      ****** ****** ****** ****** ****** ****** ****** ****** ****** ******
      ****** ****** ****** ****** ****** ****** ****** ****** ****** ******
  11  ****** ****** ****** ****** ****** ****** ****** ****** ****** ******
      ****** ****** ****** ****** ****** ****** ****** ****** ****** ******
      ****** ****** ****** ****** ****** ****** ****** ****** ****** ******
  12  ****** ****** ****** ****** ****** ****** ****** ****** ****** ******
      ****** ****** ****** ****** ****** ****** ****** ****** ****** ******
      ****** ****** ****** ****** ****** ****** ****** ****** ****** ******
  13  ****** ****** ****** ****** ****** ****** ****** ****** ****** ******
      ****** ****** ****** ****** ****** ****** ****** ****** ****** ******
      ****** ****** ****** ****** ****** ****** ****** ****** ****** ******
  14  ****** ****** ****** ****** ****** ****** ****** ****** ****** ******
      ****** ****** ****** ****** ****** ****** ****** ****** ****** ******
      ****** ****** ****** ****** ****** ****** ****** ****** ****** ******
  15  ****** ****** ****** ****** ****** ****** ****** ****** ****** ******
      ****** ****** ****** ****** ****** ****** ****** ****** ****** ******
      ****** ****** ****** ****** ****** ****** ****** ****** ****** ******
  16  ****** ****** ****** ****** ****** ****** ****** ****** ****** ******
      ****** ****** ****** ****** ****** ****** ****** ****** ****** ******
      ****** ****** ****** ****** ****** ****** ****** ****** ****** ******
  17  ****** ****** ****** ****** ****** ****** ****** ****** ****** ******
      ****** ****** ****** ****** ****** ****** ****** ****** ****** ******
      ****** ****** ****** ****** ****** ****** ****** ****** ****** ******
  18  ****** ****** ****** ****** ****** ****** ****** ****** ****** ******
      ****** ****** ****** ****** ****** ****** ****** ****** ****** ******
      ****** ****** ****** ****** ****** ****** ****** ****** ****** ******
  19  ****** ****** ****** ****** ****** ****** ****** ****** ****** ******
      ****** ****** ****** ****** ****** ****** ****** ****** ****** ******
      ****** ****** ****** ****** ****** ****** ****** ****** ****** ******
  20  ****** ****** ****** ****** ****** ****** ****** ****** ****** ******
      ****** ****** ****** ****** ****** ****** ****** ****** ****** ******
      ****** ****** ****** ****** ****** ****** ****** ****** ****** ******
  21  ****** ****** ****** ****** ****** ****** ****** ****** ****** ******
      ****** ****** ****** ****** ****** ****** ****** ****** ****** ******
      ****** ****** ****** ****** ****** ****** ****** ****** ****** ******
  22  ****** ****** ****** ****** ****** ****** ****** ****** ****** ******
      ****** ****** ****** ****** ****** ****** ****** ****** ****** ******
      ****** ****** ****** ****** ****** ****** ****** ****** ****** ******
  23  ****** ****** ****** ****** ****** ****** ****** ****** ****** ******
      ****** ****** ****** ****** ****** ****** ****** ****** ****** ******
      ****** ****** ****** ****** ****** ****** ****** ****** ****** ******
  24  ****** ****** ****** ****** ****** ****** ****** ****** ****** ******
      ****** ****** ****** ****** ****** ****** ****** ****** ****** ******
      ****** ****** ****** ****** ****** ****** ****** ****** ****** ******
  25  ****** ****** ****** ****** ****** ****** ****** ****** ****** ******
      ****** ****** ****** ****** ****** ****** ****** ****** ****** ******
      ****** ****** ****** ****** ****** ****** ****** ****** ****** ******

 HEAD WILL BE SAVED ON UNIT   51 AT END OF TIME STEP    1, STRESS PERIOD   11
1
  VOLUMETRIC BUDGET FOR ENTIRE MODEL AT END OF TIME STEP    1, STRESS PERIOD  11
  ------------------------------------------------------------------------------

     CUMULATIVE VOLUMES      L**3       RATES FOR THIS TIME STEP      L**3/T
     ------------------                 ------------------------

           IN:                                      IN:
           ---                                      ---
             STORAGE =    36286091.3554               STORAGE =       17948.2546
       CONSTANT HEAD =    29598451.3408         CONSTANT HEAD =       35983.1579
               WELLS =           0.0000                 WELLS =           0.0000
            RECHARGE =    23901600.0000              RECHARGE =           0.0000
      STREAM LEAKAGE =     9295809.7010        STREAM LEAKAGE =       12179.4030

            TOTAL IN =    99081952.3971              TOTAL IN =       66110.8155

          OUT:                                     OUT:
          ----                                     ----
             STORAGE =     2330878.7439               STORAGE =           0.0000
       CONSTANT HEAD =           0.0000         CONSTANT HEAD =           0.0000
               WELLS =    28742992.6910                 WELLS =       28628.4788
            RECHARGE =           0.0000              RECHARGE =           0.0000
      STREAM LEAKAGE =    68008083.0911        STREAM LEAKAGE =       37482.3419

           TOTAL OUT =    99081954.5259             TOTAL OUT =       66110.8206

            IN - OUT =          -2.1288              IN - OUT =      -5.1420E-03

 PERCENT DISCREPANCY =          -0.00     PERCENT DISCREPANCY =          -0.00






         TIME SUMMARY AT END OF TIME STEP    1 IN STRESS PERIOD   11
                    SECONDS     MINUTES      HOURS       DAYS        YEARS
                    -----------------------------------------------------------
   TIME STEP LENGTH 7.86240E+06 1.31040E+05  2184.0      91.000     0.24914    
 STRESS PERIOD TIME 7.86240E+06 1.31040E+05  2184.0      91.000     0.24914    
         TOTAL TIME 8.67456E+07 1.44576E+06  24096.      1004.0      2.7488    
1
1
                            STRESS PERIOD NO.   12, LENGTH =   91.00000    
                            -----------------------------------------------

                              NUMBER OF TIME STEPS =     1

                               MULTIPLIER FOR DELT =     1.500

                            INITIAL TIME STEP SIZE =   91.00000    

 WELL NO.  LAYER   ROW   COL   STRESS RATE         
 --------------------------------------------------
      1      1     20     17      -6946.    
      2      1     18     14     -0.1271E+05
      3      1      9      3      -2375.    
      4      1     21     12      -6598.    

      4 WELLS

                 RECHARGE =  1.000000E-03

 REUSING STREAM SEGMENT DATA FROM LAST STRESS PERIOD
 
 SOLVING FOR HEAD 


     7 CALLS TO PCG ROUTINE FOR TIME STEP   1 IN STRESS PERIOD   12
    24 TOTAL ITERATIONS

 OUTPUT CONTROL FOR STRESS PERIOD   12   TIME STEP    1
    SAVE BUDGET
    SAVE HEAD FOR ALL LAYERS
    PRINT HEAD FOR ALL LAYERS
 UBDSV2 SAVING "STREAMFLOW OUT  " ON UNIT  50 AT TIME STEP  1, STRESS PERIOD  12



 STREAM LISTING     PERIOD     12   STEP        1

 LAYER ROW COL. STREAM  RCH.  FLOW INTO     FLOW TO   FLOW OUT OF   OVRLND.     DIRECT     STREAM       STREAM     STREAM     STREAM   STREAMBED  STREAMBED
                SEG.NO.  NO.  STRM. RCH.    AQUIFER    STRM. RCH.    RUNOFF     PRECIP       ET          HEAD       DEPTH      WIDTH   CONDCTNC.   GRADIENT

   1   13    1     1     1    1.0000E+05 -1.0988E+03   1.0110E+05  0.000E+00  0.000E+00  0.000E+00  4.84065E+01  1.451E-01  2.000E+01  2.000E+04 -5.494E-02
   1   13    2     1     2    1.0110E+05 -1.9921E+03   1.0309E+05  0.000E+00  0.000E+00  0.000E+00  4.79306E+01  1.465E-01  2.000E+01  2.000E+04 -9.961E-02
   1   14    3     1     3    1.0309E+05 -3.6290E+02   1.0345E+05  0.000E+00  0.000E+00  0.000E+00  4.74543E+01  1.475E-01  2.000E+01  2.000E+04 -1.814E-02
   1   15    4     1     4    1.0345E+05 -3.2771E+02   1.0378E+05  0.000E+00  0.000E+00  0.000E+00  4.69773E+01  1.478E-01  2.000E+01  2.000E+04 -1.639E-02
   1   16    5     1     5    1.0378E+05 -9.2711E+02   1.0471E+05  0.000E+00  0.000E+00  0.000E+00  4.65006E+01  1.483E-01  2.000E+01  2.000E+04 -4.636E-02
   1   16    6     1     6    1.0471E+05 -5.3227E+02   1.0524E+05  0.000E+00  0.000E+00  0.000E+00  4.60239E+01  1.489E-01  2.000E+01  2.000E+04 -2.661E-02
   1   16    7     1     7    1.0524E+05 -4.2628E+02   1.0567E+05  0.000E+00  0.000E+00  0.000E+00  4.55471E+01  1.493E-01  2.000E+01  2.000E+04 -2.131E-02
   1   16    8     1     8    1.0567E+05 -2.8238E+02   1.0595E+05  0.000E+00  0.000E+00  0.000E+00  4.50701E+01  1.496E-01  2.000E+01  2.000E+04 -1.412E-02
   1   16    9     1     9    1.0595E+05 -7.6627E+01   1.0603E+05  0.000E+00  0.000E+00  0.000E+00  4.45930E+01  1.498E-01  2.000E+01  2.000E+04 -3.831E-03
   1   16   10     1    10    1.0603E+05  2.1877E+02   1.0581E+05  0.000E+00  0.000E+00  0.000E+00  4.41156E+01  1.497E-01  2.000E+01  2.000E+04  1.094E-02
   1   16   11     1    11    1.0581E+05  6.7630E+02   1.0513E+05  0.000E+00  0.000E+00  0.000E+00  4.36380E+01  1.493E-01  2.000E+01  2.000E+04  3.381E-02
   1   16   12     1    12    1.0513E+05  2.1158E+03   1.0302E+05  0.000E+00  0.000E+00  0.000E+00  4.31595E+01  1.482E-01  2.000E+01  2.000E+04  1.058E-01
   1   15   13     1    13    1.0302E+05  1.0710E+03   1.0194E+05  0.000E+00  0.000E+00  0.000E+00  4.26809E+01  1.468E-01  2.000E+01  2.000E+04  5.355E-02
   1   14   14     1    14    1.0194E+05 -1.0927E+02   1.0205E+05  0.000E+00  0.000E+00  0.000E+00  4.22032E+01  1.464E-01  2.000E+01  2.000E+04 -5.463E-03
   1   13   15     1    15    1.0205E+05 -1.1197E+03   1.0317E+05  0.000E+00  0.000E+00  0.000E+00  4.17265E+01  1.469E-01  2.000E+01  2.000E+04 -5.599E-02
   1   12   16     1    16    1.0317E+05 -2.3832E+03   1.0556E+05  0.000E+00  0.000E+00  0.000E+00  4.12507E+01  1.484E-01  2.000E+01  2.000E+04 -1.192E-01
   1   12   17     1    17    1.0556E+05 -1.3775E+03   1.0693E+05  0.000E+00  0.000E+00  0.000E+00  4.07750E+01  1.500E-01  2.000E+01  2.000E+04 -6.887E-02
   1   12   18     1    18    1.0693E+05 -1.3382E+03   1.0827E+05  0.000E+00  0.000E+00  0.000E+00  4.02989E+01  1.512E-01  2.000E+01  2.000E+04 -6.691E-02
   1   12   19     1    19    1.0827E+05 -2.0227E+03   1.1029E+05  0.000E+00  0.000E+00  0.000E+00  3.98230E+01  1.526E-01  2.000E+01  2.000E+04 -1.011E-01
   1   13   20     1    20    1.1029E+05 -9.8556E+02   1.1128E+05  0.000E+00  0.000E+00  0.000E+00  3.93470E+01  1.538E-01  2.000E+01  2.000E+04 -4.928E-02
   1   14   21     1    21    1.1128E+05 -2.9802E+02   1.1158E+05  0.000E+00  0.000E+00  0.000E+00  3.88703E+01  1.544E-01  2.000E+01  2.000E+04 -1.490E-02
   1   14   22     1    22    1.1158E+05  4.9530E+03   1.0663E+05  0.000E+00  0.000E+00  0.000E+00  3.83910E+01  1.524E-01  2.000E+01  2.000E+04  2.477E-01
   1    9   30     2     1    5.0000E+04 -6.6830E+02   5.0668E+04  0.000E+00  0.000E+00  0.000E+00  4.02413E+01  1.163E-01  2.000E+01  2.000E+04 -3.341E-02
   1    9   29     2     2    5.0668E+04 -9.6605E+02   5.1634E+04  0.000E+00  0.000E+00  0.000E+00  3.99925E+01  1.175E-01  2.000E+01  2.000E+04 -4.830E-02
   1    9   28     2     3    5.1634E+04 -1.2172E+03   5.2852E+04  0.000E+00  0.000E+00  0.000E+00  3.97440E+01  1.190E-01  2.000E+01  2.000E+04 -6.086E-02
   1    9   27     2     4    5.2852E+04 -2.4606E+03   5.5312E+04  0.000E+00  0.000E+00  0.000E+00  3.94965E+01  1.215E-01  2.000E+01  2.000E+04 -1.230E-01
   1   10   26     2     5    5.5312E+04 -1.6796E+03   5.6992E+04  0.000E+00  0.000E+00  0.000E+00  3.92492E+01  1.242E-01  2.000E+01  2.000E+04 -8.398E-02
   1   11   25     2     6    5.6992E+04 -1.4820E+03   5.8474E+04  0.000E+00  0.000E+00  0.000E+00  3.90013E+01  1.263E-01  2.000E+01  2.000E+04 -7.410E-02
   1   12   24     2     7    5.8474E+04 -1.5480E+03   6.0022E+04  0.000E+00  0.000E+00  0.000E+00  3.87533E+01  1.283E-01  2.000E+01  2.000E+04 -7.740E-02
   1   13   23     2     8    6.0022E+04 -2.6367E+02   6.0285E+04  0.000E+00  0.000E+00  0.000E+00  3.85045E+01  1.295E-01  2.000E+01  2.000E+04 -1.318E-02
   1   14   22     2     9    6.0285E+04  2.1961E+03   5.8089E+04  0.000E+00  0.000E+00  0.000E+00  3.82532E+01  1.282E-01  2.000E+01  2.000E+04  1.098E-01
   1   14   22     3     1    1.6471E+05 -8.4685E+03   1.7318E+05  0.000E+00  0.000E+00  0.000E+00  3.77200E+01  1.644E-01  2.000E+01  2.000E+04 -4.234E-01
   1   15   23     3     2    1.7318E+05 -3.0160E+02   1.7348E+05  0.000E+00  0.000E+00  0.000E+00  3.68336E+01  1.670E-01  2.000E+01  2.000E+04 -1.508E-02
   1   15   24     3     3    1.7348E+05 -2.1349E+02   1.7370E+05  0.000E+00  0.000E+00  0.000E+00  3.59449E+01  1.671E-01  2.000E+01  2.000E+04 -1.067E-02
   1   15   25     3     4    1.7370E+05 -2.2980E+02   1.7393E+05  0.000E+00  0.000E+00  0.000E+00  3.50561E+01  1.672E-01  2.000E+01  2.000E+04 -1.149E-02
   1   15   26     3     5    1.7393E+05 -3.0802E+02   1.7424E+05  0.000E+00  0.000E+00  0.000E+00  3.41674E+01  1.674E-01  2.000E+01  2.000E+04 -1.540E-02
   1   16   27     3     6    1.7424E+05 -3.1783E+02   1.7455E+05  0.000E+00  0.000E+00  0.000E+00  3.32787E+01  1.676E-01  2.000E+01  2.000E+04 -1.589E-02
   1   17   28     3     7    1.7455E+05 -1.3567E+03   1.7591E+05  0.000E+00  0.000E+00  0.000E+00  3.23903E+01  1.681E-01  2.000E+01  2.000E+04 -6.784E-02
   1   18   29     3     8    1.7591E+05 -2.4441E+03   1.7835E+05  0.000E+00  0.000E+00  0.000E+00  3.15025E+01  1.692E-01  2.000E+01  2.000E+04 -1.222E-01
   1   18   30     3     9    1.7835E+05 -2.9083E+03   1.8126E+05  0.000E+00  0.000E+00  0.000E+00  3.06151E+01  1.707E-01  2.000E+01  2.000E+04 -1.454E-01



1
              HEAD IN LAYER   1 AT END OF TIME STEP   1 IN STRESS PERIOD   12
  ---------------------------------------------------------------------------

          1      2      3      4      5      6      7      8      9     10
         11     12     13     14     15     16     17     18     19     20
         21     22     23     24     25     26     27     28     29     30
 .........................................................................
   1  ****** ****** ****** ****** ****** ****** ****** ****** ****** ******
      ****** ****** ****** ****** ****** ****** ****** ****** ****** ******
      ****** ****** ****** ****** ****** ****** ****** ****** ****** ******
   2  ****** ****** ****** ****** ****** ****** ****** ****** ****** ******
      ****** ****** ****** ****** ****** ****** ****** ****** ****** ******
      ****** ****** ****** ****** ****** ****** ****** ****** ****** ******
   3  ****** ****** ****** ****** ****** ****** ****** ****** ****** ******
      ****** ****** ****** ****** ****** ****** ****** ****** ****** ******
      ****** ****** ****** ****** ****** ****** ****** ****** ****** ******
   4  ****** ****** ****** ****** ****** ****** ****** ****** ****** ******
      ****** ****** ****** ****** ****** ****** ****** ****** ****** ******
      ****** ****** ****** ****** ****** ****** ****** ****** ****** ******
   5  ****** ****** ****** ****** ****** ****** ****** ****** ****** ******
      ****** ****** ****** ****** ****** ****** ****** ****** ****** ******
      ****** ****** ****** ****** ****** ****** ****** ****** ****** ******
   6  ****** ****** ****** ****** ****** ****** ****** ****** ****** ******
      ****** ****** ****** ****** ****** ****** ****** ****** ****** ******
      ****** ****** ****** ****** ****** ****** ****** ****** ****** ******
   7  ****** ****** ****** ****** ****** ****** ****** ****** ****** ******
      ****** ****** ****** ****** ****** ****** ****** ****** ****** ******
      ****** ****** ****** ****** ****** ****** ****** ****** ****** ******
   8  ****** ****** ****** ****** ****** ****** ****** ****** ****** ******
      ****** ****** ****** ****** ****** ****** ****** ****** ****** ******
      ****** ****** ****** ****** ****** ****** ****** ****** ****** ******
   9  ****** ****** ****** ****** ****** ****** ****** ****** ****** ******
      ****** ****** ****** ****** ****** ****** ****** ****** ****** ******
      ****** ****** ****** ****** ****** ****** ****** ****** ****** ******
  10  ****** ****** ****** ****** ****** ****** ****** ****** ****** ******
      ****** ****** ****** ****** ****** ****** ****** ****** ****** ******
      ****** ****** ****** ****** ****** ****** ****** ****** ****** ******
  11  ****** ****** ****** ****** ****** ****** ****** ****** ****** ******
      ****** ****** ****** ****** ****** ****** ****** ****** ****** ******
      ****** ****** ****** ****** ****** ****** ****** ****** ****** ******
  12  ****** ****** ****** ****** ****** ****** ****** ****** ****** ******
      ****** ****** ****** ****** ****** ****** ****** ****** ****** ******
      ****** ****** ****** ****** ****** ****** ****** ****** ****** ******
  13  ****** ****** ****** ****** ****** ****** ****** ****** ****** ******
      ****** ****** ****** ****** ****** ****** ****** ****** ****** ******
      ****** ****** ****** ****** ****** ****** ****** ****** ****** ******
  14  ****** ****** ****** ****** ****** ****** ****** ****** ****** ******
      ****** ****** ****** ****** ****** ****** ****** ****** ****** ******
      ****** ****** ****** ****** ****** ****** ****** ****** ****** ******
  15  ****** ****** ****** ****** ****** ****** ****** ****** ****** ******
      ****** ****** ****** ****** ****** ****** ****** ****** ****** ******
      ****** ****** ****** ****** ****** ****** ****** ****** ****** ******
  16  ****** ****** ****** ****** ****** ****** ****** ****** ****** ******
      ****** ****** ****** ****** ****** ****** ****** ****** ****** ******
      ****** ****** ****** ****** ****** ****** ****** ****** ****** ******
  17  ****** ****** ****** ****** ****** ****** ****** ****** ****** ******
      ****** ****** ****** ****** ****** ****** ****** ****** ****** ******
      ****** ****** ****** ****** ****** ****** ****** ****** ****** ******
  18  ****** ****** ****** ****** ****** ****** ****** ****** ****** ******
      ****** ****** ****** ****** ****** ****** ****** ****** ****** ******
      ****** ****** ****** ****** ****** ****** ****** ****** ****** ******
  19  ****** ****** ****** ****** ****** ****** ****** ****** ****** ******
      ****** ****** ****** ****** ****** ****** ****** ****** ****** ******
      ****** ****** ****** ****** ****** ****** ****** ****** ****** ******
  20  ****** ****** ****** ****** ****** ****** ****** ****** ****** ******
      ****** ****** ****** ****** ****** ****** ****** ****** ****** ******
      ****** ****** ****** ****** ****** ****** ****** ****** ****** ******
  21  ****** ****** ****** ****** ****** ****** ****** ****** ****** ******
      ****** ****** ****** ****** ****** ****** ****** ****** ****** ******
      ****** ****** ****** ****** ****** ****** ****** ****** ****** ******
  22  ****** ****** ****** ****** ****** ****** ****** ****** ****** ******
      ****** ****** ****** ****** ****** ****** ****** ****** ****** ******
      ****** ****** ****** ****** ****** ****** ****** ****** ****** ******
  23  ****** ****** ****** ****** ****** ****** ****** ****** ****** ******
      ****** ****** ****** ****** ****** ****** ****** ****** ****** ******
      ****** ****** ****** ****** ****** ****** ****** ****** ****** ******
  24  ****** ****** ****** ****** ****** ****** ****** ****** ****** ******
      ****** ****** ****** ****** ****** ****** ****** ****** ****** ******
      ****** ****** ****** ****** ****** ****** ****** ****** ****** ******
  25  ****** ****** ****** ****** ****** ****** ****** ****** ****** ******
      ****** ****** ****** ****** ****** ****** ****** ****** ****** ******
      ****** ****** ****** ****** ****** ****** ****** ****** ****** ******

 HEAD WILL BE SAVED ON UNIT   51 AT END OF TIME STEP    1, STRESS PERIOD   12
1
  VOLUMETRIC BUDGET FOR ENTIRE MODEL AT END OF TIME STEP    1, STRESS PERIOD  12
  ------------------------------------------------------------------------------

     CUMULATIVE VOLUMES      L**3       RATES FOR THIS TIME STEP      L**3/T
     ------------------                 ------------------------

           IN:                                      IN:
           ---                                      ---
             STORAGE =    36287050.9618               STORAGE =          10.5451
       CONSTANT HEAD =    32809668.8779         CONSTANT HEAD =       35288.1048
               WELLS =           0.0000                 WELLS =           0.0000
            RECHARGE =    26413200.0000              RECHARGE =       27600.0000
      STREAM LEAKAGE =    10317836.8538        STREAM LEAKAGE =       11231.0676

            TOTAL IN =   105827756.6936              TOTAL IN =       74129.7175

          OUT:                                     OUT:
          ----                                     ----
             STORAGE =     2604535.6766               STORAGE =        3007.2190
       CONSTANT HEAD =           0.0000         CONSTANT HEAD =           0.0000
               WELLS =    31348184.2596                 WELLS =       28628.4788
            RECHARGE =           0.0000              RECHARGE =           0.0000
      STREAM LEAKAGE =    71875038.7953        STREAM LEAKAGE =       42494.0187

           TOTAL OUT =   105827758.7314             TOTAL OUT =       74129.7165

            IN - OUT =          -2.0379              IN - OUT =       9.9936E-04

 PERCENT DISCREPANCY =          -0.00     PERCENT DISCREPANCY =           0.00






         TIME SUMMARY AT END OF TIME STEP    1 IN STRESS PERIOD   12
                    SECONDS     MINUTES      HOURS       DAYS        YEARS
                    -----------------------------------------------------------
   TIME STEP LENGTH 7.86240E+06 1.31040E+05  2184.0      91.000     0.24914    
 STRESS PERIOD TIME 7.86240E+06 1.31040E+05  2184.0      91.000     0.24914    
         TOTAL TIME 9.46080E+07 1.57680E+06  26280.      1095.0      2.9979    
1

 Run end date and time (yyyy/mm/dd hh:mm:ss): 2019/08/04 17:20:36
 Elapsed run time:  0.039 Seconds

