                                  MODFLOW-2005     
      U.S. GEOLOGICAL SURVEY MODULAR FINITE-DIFFERENCE GROUND-WATER FLOW MODEL
                            VERSION 1.11.00 8/8/2013

 LIST FILE: supply2.lst
                         UNIT   10

 OPENING ..\data\supply.dis
 FILE TYPE:DIS   UNIT   11   STATUS:OLD    
 FORMAT:FORMATTED              ACCESS:SEQUENTIAL          

 OPENING ..\data\supply.ba6
 FILE TYPE:BAS6   UNIT   12   STATUS:OLD    
 FORMAT:FORMATTED              ACCESS:SEQUENTIAL          

 OPENING ..\data\supply.bc6
 FILE TYPE:BCF6   UNIT   13   STATUS:OLD    
 FORMAT:FORMATTED              ACCESS:SEQUENTIAL          

 OPENING ..\data\supply.rch
 FILE TYPE:RCH   UNIT   15   STATUS:OLD    
 FORMAT:FORMATTED              ACCESS:SEQUENTIAL          

 OPENING ..\data\supply2.sfr
 FILE TYPE:SFR   UNIT   16   STATUS:OLD    
 FORMAT:FORMATTED              ACCESS:SEQUENTIAL          

 OPENING ..\data\supply.oc
 FILE TYPE:OC   UNIT   17   STATUS:OLD    
 FORMAT:FORMATTED              ACCESS:SEQUENTIAL          

 OPENING ..\data\supply.pcg
 FILE TYPE:PCG   UNIT   18   STATUS:OLD    
 FORMAT:FORMATTED              ACCESS:SEQUENTIAL          

 OPENING supply2.wel
 FILE TYPE:WEL   UNIT   19   STATUS:OLD    
 FORMAT:FORMATTED              ACCESS:SEQUENTIAL          

 OPENING supply2sf.cbc
 FILE TYPE:DATA(BINARY)   UNIT   50   STATUS:UNKNOWN
 FORMAT:BINARY                 ACCESS:SEQUENTIAL          

 OPENING supply2hd.bhd
 FILE TYPE:DATA(BINARY)   UNIT   51   STATUS:UNKNOWN
 FORMAT:BINARY                 ACCESS:SEQUENTIAL          

 BAS -- BASIC PACKAGE, VERSION 7, 5/2/2005 INPUT READ FROM UNIT   12
 
 MODFLOW was compiled using uniform precision
 Precision of REAL and DOUBLE PRECISION variables:          15

 DISCRETIZATION INPUT DATA READ FROM UNIT   11
    1 LAYERS        25 ROWS        30 COLUMNS
   12 STRESS PERIOD(S) IN SIMULATION
 MODEL TIME UNIT IS DAYS
 MODEL LENGTH UNIT IS UNDEFINED
  Confining bed flag for each layer:
   0

                     DELR =   200.000    

                     DELC =   200.000    

 TOP ELEVATION OF LAYER 1 =  100.0000    

   MODEL LAYER BOTTOM EL. =   0.00000     FOR LAYER   1


 STRESS PERIOD     LENGTH       TIME STEPS     MULTIPLIER FOR DELT    SS FLAG
 ----------------------------------------------------------------------------
        1         92.00000          1                    1.500         TR
        2         91.00000          1                    1.500         TR
        3         91.00000          1                    1.500         TR
        4         91.00000          1                    1.500         TR
        5         92.00000          1                    1.500         TR
        6         91.00000          1                    1.500         TR
        7         91.00000          1                    1.500         TR
        8         91.00000          1                    1.500         TR
        9         92.00000          1                    1.500         TR
       10         91.00000          1                    1.500         TR
       11         91.00000          1                    1.500         TR
       12         91.00000          1                    1.500         TR

 TRANSIENT SIMULATION



 
 #MODOFC transient water supply sample problem                                   
 #                                                                               
 THE FREE FORMAT OPTION HAS BEEN SELECTED



                     BOUNDARY ARRAY FOR LAYER   1
 READING ON UNIT   12 WITH FORMAT: (20I4)              

 AQUIFER HEAD WILL BE SET TO   0.0000     AT ALL NO-FLOW NODES (IBOUND=0).



                       INITIAL HEAD FOR LAYER   1
 READING ON UNIT   12 WITH FORMAT: (10F13.0)           

 OUTPUT CONTROL IS SPECIFIED ONLY AT TIME STEPS FOR WHICH OUTPUT IS DESIRED
 COMPACT CELL-BY-CELL BUDGET FILES WILL BE WRITTEN
 HEAD PRINT FORMAT CODE IS  18    DRAWDOWN PRINT FORMAT CODE IS   0
 HEADS WILL BE SAVED ON UNIT   51    DRAWDOWNS WILL BE SAVED ON UNIT    0

 BCF -- BLOCK-CENTERED FLOW PACKAGE, VERSION 7, 5/2/2005
         INPUT READ FROM UNIT 13
 TRANSIENT SIMULATION
 HEAD AT CELLS THAT CONVERT TO DRY=   0.0000    
 WETTING CAPABILITY IS NOT ACTIVE
      LAYER  LAYER-TYPE CODE     INTERBLOCK T
      --------------------------------------------
         1            0          0 -- HARMONIC    

 COLUMN TO ROW ANISOTROPY =  1.000000    

     PRIMARY STORAGE COEF =  5.000000E-02 FOR LAYER   1

     TRANSMIS. ALONG ROWS =   500.000     FOR LAYER   1

 WEL -- WELL PACKAGE, VERSION 7, 5/2/2005 INPUT READ FROM UNIT   19
 # Well package input file written by MMProc
 No named parameters
 MAXIMUM OF      6 ACTIVE WELLS AT ONE TIME


     0 Well parameters

 RCH -- RECHARGE PACKAGE, VERSION 7, 5/2/2005 INPUT READ FROM UNIT   15
 No named parameters
 OPTION 1 -- RECHARGE TO TOP LAYER


     0 Recharge parameters

 SFR7 -- STREAMFLOW ROUTING PACKAGE, VERSION 1.0.7, 2013-01-15
         INPUT READ FROM UNIT  16
 #  Supply2 test problem for GWM-VI
 #  The eighth entry in the first data line is ISTCB2 -
 #    Setting this to a negative number indicates that
 #    streamflows out of the reach will be saved to a
 #    binary file.  The absolute value of ISTCB2 is the
 #    unit to which unformatted flows will be written.
 #
 No named parameters
 Segment information will not be 
 read by reach
 No named parameters
 No specifed inflow files


 NUMBER OF STREAM REACHES IS   40

 NUMBER OF STREAM SEGMENTS IS    3

 NUMBER OF STREAM PARAMETERS IS    0

 NUMBER OF STREAM SEGMENTS DEFINED USING PARAMETERS IS              0

 MAXIMUM ERROR FOR STREAM LEAKAGE RATES IS  1.00E-04

 CONSTANT FOR MANNINGS EQUATION IS  1.2839E+05





   STREAM NETWORK DESCRIPTION: 

   LAYER    ROW    COL   SEGMENT   REACH     LENGTH
                          NUMBER   NUMBER    IN CELL        
   --------------------------------------------------
      1     13      1       1        1    2.0000E+02
      1     13      2       1        2    2.0000E+02
      1     14      3       1        3    2.0000E+02
      1     15      4       1        4    2.0000E+02
      1     16      5       1        5    2.0000E+02
      1     16      6       1        6    2.0000E+02
      1     16      7       1        7    2.0000E+02
      1     16      8       1        8    2.0000E+02
      1     16      9       1        9    2.0000E+02
      1     16     10       1       10    2.0000E+02
      1     16     11       1       11    2.0000E+02
      1     16     12       1       12    2.0000E+02
      1     15     13       1       13    2.0000E+02
      1     14     14       1       14    2.0000E+02
      1     13     15       1       15    2.0000E+02
      1     12     16       1       16    2.0000E+02
      1     12     17       1       17    2.0000E+02
      1     12     18       1       18    2.0000E+02
      1     12     19       1       19    2.0000E+02
      1     13     20       1       20    2.0000E+02
      1     14     21       1       21    2.0000E+02
      1     14     22       1       22    2.0000E+02
      1      9     30       2        1    2.0000E+02
      1      9     29       2        2    2.0000E+02
      1      9     28       2        3    2.0000E+02
      1      9     27       2        4    2.0000E+02
      1     10     26       2        5    2.0000E+02
      1     11     25       2        6    2.0000E+02
      1     12     24       2        7    2.0000E+02
      1     13     23       2        8    2.0000E+02
      1     14     22       2        9    2.0000E+02
      1     14     22       3        1    2.0000E+02
      1     15     23       3        2    2.0000E+02
      1     15     24       3        3    2.0000E+02
      1     15     25       3        4    2.0000E+02
      1     15     26       3        5    2.0000E+02
      1     16     27       3        6    2.0000E+02
      1     17     28       3        7    2.0000E+02
      1     18     29       3        8    2.0000E+02
      1     18     30       3        9    2.0000E+02




 PCG -- CONJUGATE-GRADIENT SOLUTION PACKAGE, VERSION 7, 5/2/2005
 MAXIMUM OF    500 CALLS OF SOLUTION ROUTINE
 MAXIMUM OF      5 INTERNAL ITERATIONS PER CALL TO SOLUTION ROUTINE
 MATRIX PRECONDITIONING TYPE :    1



                                    SOLUTION BY THE CONJUGATE-GRADIENT METHOD
                                   -------------------------------------------
                    MAXIMUM NUMBER OF CALLS TO PCG ROUTINE =      500
                        MAXIMUM ITERATIONS PER CALL TO PCG =        5
                               MATRIX PRECONDITIONING TYPE =        1
        RELAXATION FACTOR (ONLY USED WITH PRECOND. TYPE 1) =    0.10000E+01
 PARAMETER OF POLYNOMIAL PRECOND. = 2 (2) OR IS CALCULATED :        0
                         HEAD CHANGE CRITERION FOR CLOSURE =    0.10000E-05
                     RESIDUAL CHANGE CRITERION FOR CLOSURE =    0.10000E+01
            PCG HEAD AND RESIDUAL CHANGE PRINTOUT INTERVAL =        1
     PRINTING FROM SOLVER IS LIMITED(1) OR SUPPRESSED (>1) =        1
                            STEADY-STATE DAMPING PARAMETER =    0.10000E+01
                               TRANSIENT DAMPING PARAMETER =    0.10000E+01
1
                            STRESS PERIOD NO.    1, LENGTH =   92.00000    
                            -----------------------------------------------

                              NUMBER OF TIME STEPS =     1

                               MULTIPLIER FOR DELT =     1.500

                            INITIAL TIME STEP SIZE =   92.00000    

 WELL NO.  LAYER   ROW   COL   STRESS RATE         
 --------------------------------------------------
      1      1     23     21     -0.3179E+05
      2      1     23     12     -0.3278E+05
      3      1     23     17     -0.3042E+05

      3 WELLS

                 RECHARGE =  5.000000E-04



 CLASSIFICATION & COUNT OF STREAM SEGMENTS BASED ON SOURCE OF INFLOW:

                HEADWATER     DIVERSION     RECEIVES TRIBUTARY FLOW
                ---------     ---------     -----------------------
                     2              0               1



                    INPUT DATA FOR EACH STREAM SEGMENT
 ---------------------------------------------------------------------------------------------

 SEGMENT    SEG.     INFLOW   OVERLAND   STREAM    STREAM   ICALC  OUTFLOW  DIVERSION PRIORITY
    NO.    LENGTH     RATE     RUNOFF      ET       PPT.    METH.  TO SEG.  FROM SEG.    NO.

      1  4.400E+03 1.000E+05 0.000E+00 0.000E+00 0.000E+00    1        3        0        0
      2  1.800E+03 5.000E+04 0.000E+00 0.000E+00 0.000E+00    1        3        0        0
      3  1.800E+03 0.000E+00 0.000E+00 0.000E+00 0.000E+00    1        0        0        0


         STREAMBED PROPERTIES AND STREAM DIMENSIONS

 SEGMENT     BED HYD. COND.      BED THICKNESS     ELEV.-TOP OF BED     WIDTH OF STREAM     DEPTH OF STREAM    STREAM ROUGHNESS
    No.     UPPER     LOWER     UPPER     LOWER     UPPER     LOWER     UPPER     LOWER     UPPER     LOWER   CHANNEL      BANK

     1  5.000E+00 5.000E+00 1.000E+00 1.000E+00 4.850E+01 3.800E+01 2.000E+01 2.000E+01                     5.000E-02
     2  5.000E+00 5.000E+00 1.000E+00 1.000E+00 4.025E+01 3.800E+01 2.000E+01 2.000E+01                     5.000E-02
     3  5.000E+00 5.000E+00 1.000E+00 1.000E+00 3.800E+01 3.000E+01 2.000E+01 2.000E+01                     5.000E-02



 
 SOLVING FOR HEAD 


     8 CALLS TO PCG ROUTINE FOR TIME STEP   1 IN STRESS PERIOD    1
    34 TOTAL ITERATIONS

 OUTPUT CONTROL FOR STRESS PERIOD    1   TIME STEP    1
    SAVE BUDGET
    SAVE HEAD FOR ALL LAYERS
    PRINT HEAD FOR ALL LAYERS
 UBDSV2 SAVING "STREAMFLOW OUT  " ON UNIT  50 AT TIME STEP  1, STRESS PERIOD   1



 STREAM LISTING     PERIOD      1   STEP        1

 LAYER ROW COL. STREAM  RCH.  FLOW INTO     FLOW TO   FLOW OUT OF   OVRLND.     DIRECT     STREAM       STREAM     STREAM     STREAM   STREAMBED  STREAMBED
                SEG.NO.  NO.  STRM. RCH.    AQUIFER    STRM. RCH.    RUNOFF     PRECIP       ET          HEAD       DEPTH      WIDTH   CONDCTNC.   GRADIENT

   1   13    1     1     1    1.0000E+05 -5.7424E+03   1.0574E+05  0.000E+00  0.000E+00  0.000E+00  4.84085E+01  1.471E-01  2.000E+01  2.000E+04 -2.871E-01
   1   13    2     1     2    1.0574E+05 -8.5932E+03   1.1434E+05  0.000E+00  0.000E+00  0.000E+00  4.79373E+01  1.532E-01  2.000E+01  2.000E+04 -4.297E-01
   1   14    3     1     3    1.1434E+05 -7.8507E+03   1.2219E+05  0.000E+00  0.000E+00  0.000E+00  4.74668E+01  1.600E-01  2.000E+01  2.000E+04 -3.925E-01
   1   15    4     1     4    1.2219E+05 -7.6508E+03   1.2984E+05  0.000E+00  0.000E+00  0.000E+00  4.69957E+01  1.662E-01  2.000E+01  2.000E+04 -3.825E-01
   1   16    5     1     5    1.2984E+05 -7.3399E+03   1.3718E+05  0.000E+00  0.000E+00  0.000E+00  4.65243E+01  1.720E-01  2.000E+01  2.000E+04 -3.670E-01
   1   16    6     1     6    1.3718E+05 -5.8411E+03   1.4302E+05  0.000E+00  0.000E+00  0.000E+00  4.60521E+01  1.771E-01  2.000E+01  2.000E+04 -2.921E-01
   1   16    7     1     7    1.4302E+05 -5.9218E+03   1.4894E+05  0.000E+00  0.000E+00  0.000E+00  4.55792E+01  1.815E-01  2.000E+01  2.000E+04 -2.961E-01
   1   16    8     1     8    1.4894E+05 -5.9297E+03   1.5487E+05  0.000E+00  0.000E+00  0.000E+00  4.51063E+01  1.859E-01  2.000E+01  2.000E+04 -2.965E-01
   1   16    9     1     9    1.5487E+05 -5.8501E+03   1.6072E+05  0.000E+00  0.000E+00  0.000E+00  4.46334E+01  1.902E-01  2.000E+01  2.000E+04 -2.925E-01
   1   16   10     1    10    1.6072E+05 -5.6904E+03   1.6641E+05  0.000E+00  0.000E+00  0.000E+00  4.41602E+01  1.943E-01  2.000E+01  2.000E+04 -2.845E-01
   1   16   11     1    11    1.6641E+05 -5.4778E+03   1.7189E+05  0.000E+00  0.000E+00  0.000E+00  4.36869E+01  1.983E-01  2.000E+01  2.000E+04 -2.739E-01
   1   16   12     1    12    1.7189E+05 -6.7488E+03   1.7864E+05  0.000E+00  0.000E+00  0.000E+00  4.32139E+01  2.026E-01  2.000E+01  2.000E+04 -3.374E-01
   1   15   13     1    13    1.7864E+05 -7.4956E+03   1.8613E+05  0.000E+00  0.000E+00  0.000E+00  4.27415E+01  2.075E-01  2.000E+01  2.000E+04 -3.748E-01
   1   14   14     1    14    1.8613E+05 -7.9530E+03   1.9409E+05  0.000E+00  0.000E+00  0.000E+00  4.22695E+01  2.127E-01  2.000E+01  2.000E+04 -3.977E-01
   1   13   15     1    15    1.9409E+05 -8.3521E+03   2.0244E+05  0.000E+00  0.000E+00  0.000E+00  4.17977E+01  2.181E-01  2.000E+01  2.000E+04 -4.176E-01
   1   12   16     1    16    2.0244E+05 -9.3301E+03   2.1177E+05  0.000E+00  0.000E+00  0.000E+00  4.13262E+01  2.239E-01  2.000E+01  2.000E+04 -4.665E-01
   1   12   17     1    17    2.1177E+05 -6.5017E+03   2.1827E+05  0.000E+00  0.000E+00  0.000E+00  4.08540E+01  2.290E-01  2.000E+01  2.000E+04 -3.251E-01
   1   12   18     1    18    2.1827E+05 -6.3262E+03   2.2460E+05  0.000E+00  0.000E+00  0.000E+00  4.03808E+01  2.331E-01  2.000E+01  2.000E+04 -3.163E-01
   1   12   19     1    19    2.2460E+05 -8.0446E+03   2.3264E+05  0.000E+00  0.000E+00  0.000E+00  3.99080E+01  2.376E-01  2.000E+01  2.000E+04 -4.022E-01
   1   13   20     1    20    2.3264E+05 -6.4140E+03   2.3905E+05  0.000E+00  0.000E+00  0.000E+00  3.94352E+01  2.420E-01  2.000E+01  2.000E+04 -3.207E-01
   1   14   21     1    21    2.3905E+05 -5.0551E+03   2.4411E+05  0.000E+00  0.000E+00  0.000E+00  3.89615E+01  2.456E-01  2.000E+01  2.000E+04 -2.528E-01
   1   14   22     1    22    2.4411E+05  4.4138E+03   2.3970E+05  0.000E+00  0.000E+00  0.000E+00  3.84844E+01  2.458E-01  2.000E+01  2.000E+04  2.207E-01
   1    9   30     2     1    5.0000E+04 -5.5712E+03   5.5571E+04  0.000E+00  0.000E+00  0.000E+00  4.02447E+01  1.197E-01  2.000E+01  2.000E+04 -2.786E-01
   1    9   29     2     2    5.5571E+04 -5.8702E+03   6.1441E+04  0.000E+00  0.000E+00  0.000E+00  4.00023E+01  1.273E-01  2.000E+01  2.000E+04 -2.935E-01
   1    9   28     2     3    6.1441E+04 -6.1944E+03   6.7636E+04  0.000E+00  0.000E+00  0.000E+00  3.97600E+01  1.350E-01  2.000E+01  2.000E+04 -3.097E-01
   1    9   27     2     4    6.7636E+04 -9.5876E+03   7.7223E+04  0.000E+00  0.000E+00  0.000E+00  3.95197E+01  1.447E-01  2.000E+01  2.000E+04 -4.794E-01
   1   10   26     2     5    7.7223E+04 -7.7181E+03   8.4941E+04  0.000E+00  0.000E+00  0.000E+00  3.92799E+01  1.549E-01  2.000E+01  2.000E+04 -3.859E-01
   1   11   25     2     6    8.4941E+04 -6.5922E+03   9.1534E+04  0.000E+00  0.000E+00  0.000E+00  3.90379E+01  1.629E-01  2.000E+01  2.000E+04 -3.296E-01
   1   12   24     2     7    9.1534E+04 -5.3326E+03   9.6866E+04  0.000E+00  0.000E+00  0.000E+00  3.87944E+01  1.694E-01  2.000E+01  2.000E+04 -2.666E-01
   1   13   23     2     8    9.6866E+04 -3.7846E+03   1.0065E+05  0.000E+00  0.000E+00  0.000E+00  3.85493E+01  1.743E-01  2.000E+01  2.000E+04 -1.892E-01
   1   14   22     2     9    1.0065E+05  7.4412E+02   9.9907E+04  0.000E+00  0.000E+00  0.000E+00  3.83009E+01  1.759E-01  2.000E+01  2.000E+04  3.721E-02
   1   14   22     3     1    3.3960E+05 -9.1235E+03   3.4873E+05  0.000E+00  0.000E+00  0.000E+00  3.78075E+01  2.520E-01  2.000E+01  2.000E+04 -4.562E-01
   1   15   23     3     2    3.4873E+05 -5.3265E+03   3.5405E+05  0.000E+00  0.000E+00  0.000E+00  3.69218E+01  2.551E-01  2.000E+01  2.000E+04 -2.663E-01
   1   15   24     3     3    3.5405E+05 -4.0162E+03   3.5807E+05  0.000E+00  0.000E+00  0.000E+00  3.60349E+01  2.572E-01  2.000E+01  2.000E+04 -2.008E-01
   1   15   25     3     4    3.5807E+05 -4.1132E+03   3.6218E+05  0.000E+00  0.000E+00  0.000E+00  3.51478E+01  2.589E-01  2.000E+01  2.000E+04 -2.057E-01
   1   15   26     3     5    3.6218E+05 -5.5270E+03   3.6771E+05  0.000E+00  0.000E+00  0.000E+00  3.42610E+01  2.610E-01  2.000E+01  2.000E+04 -2.764E-01
   1   16   27     3     6    3.6771E+05 -6.9901E+03   3.7470E+05  0.000E+00  0.000E+00  0.000E+00  3.33748E+01  2.637E-01  2.000E+01  2.000E+04 -3.495E-01
   1   17   28     3     7    3.7470E+05 -7.7591E+03   3.8246E+05  0.000E+00  0.000E+00  0.000E+00  3.24890E+01  2.668E-01  2.000E+01  2.000E+04 -3.880E-01
   1   18   29     3     8    3.8246E+05 -8.8059E+03   3.9126E+05  0.000E+00  0.000E+00  0.000E+00  3.16036E+01  2.703E-01  2.000E+01  2.000E+04 -4.403E-01
   1   18   30     3     9    3.9126E+05 -7.4073E+03   3.9867E+05  0.000E+00  0.000E+00  0.000E+00  3.07181E+01  2.737E-01  2.000E+01  2.000E+04 -3.704E-01



1
              HEAD IN LAYER   1 AT END OF TIME STEP   1 IN STRESS PERIOD    1
  ---------------------------------------------------------------------------

          1      2      3      4      5      6      7      8      9     10
         11     12     13     14     15     16     17     18     19     20
         21     22     23     24     25     26     27     28     29     30
 .........................................................................
   1  ****** ****** ****** ****** ****** ****** ****** ****** ****** ******
      ****** ****** ****** ****** ****** ****** ****** ****** ****** ******
      ****** ****** ****** ****** ****** ****** ****** ****** ****** ******
   2  ****** ****** ****** ****** ****** ****** ****** ****** ****** ******
      ****** ****** ****** ****** ****** ****** ****** ****** ****** ******
      ****** ****** ****** ****** ****** ****** ****** ****** ****** ******
   3  ****** ****** ****** ****** ****** ****** ****** ****** ****** ******
      ****** ****** ****** ****** ****** ****** ****** ****** ****** ******
      ****** ****** ****** ****** ****** ****** ****** ****** ****** ******
   4  ****** ****** ****** ****** ****** ****** ****** ****** ****** ******
      ****** ****** ****** ****** ****** ****** ****** ****** ****** ******
      ****** ****** ****** ****** ****** ****** ****** ****** ****** ******
   5  ****** ****** ****** ****** ****** ****** ****** ****** ****** ******
      ****** ****** ****** ****** ****** ****** ****** ****** ****** ******
      ****** ****** ****** ****** ****** ****** ****** ****** ****** ******
   6  ****** ****** ****** ****** ****** ****** ****** ****** ****** ******
      ****** ****** ****** ****** ****** ****** ****** ****** ****** ******
      ****** ****** ****** ****** ****** ****** ****** ****** ****** ******
   7  ****** ****** ****** ****** ****** ****** ****** ****** ****** ******
      ****** ****** ****** ****** ****** ****** ****** ****** ****** ******
      ****** ****** ****** ****** ****** ****** ****** ****** ****** ******
   8  ****** ****** ****** ****** ****** ****** ****** ****** ****** ******
      ****** ****** ****** ****** ****** ****** ****** ****** ****** ******
      ****** ****** ****** ****** ****** ****** ****** ****** ****** ******
   9  ****** ****** ****** ****** ****** ****** ****** ****** ****** ******
      ****** ****** ****** ****** ****** ****** ****** ****** ****** ******
      ****** ****** ****** ****** ****** ****** ****** ****** ****** ******
  10  ****** ****** ****** ****** ****** ****** ****** ****** ****** ******
      ****** ****** ****** ****** ****** ****** ****** ****** ****** ******
      ****** ****** ****** ****** ****** ****** ****** ****** ****** ******
  11  ****** ****** ****** ****** ****** ****** ****** ****** ****** ******
      ****** ****** ****** ****** ****** ****** ****** ****** ****** ******
      ****** ****** ****** ****** ****** ****** ****** ****** ****** ******
  12  ****** ****** ****** ****** ****** ****** ****** ****** ****** ******
      ****** ****** ****** ****** ****** ****** ****** ****** ****** ******
      ****** ****** ****** ****** ****** ****** ****** ****** ****** ******
  13  ****** ****** ****** ****** ****** ****** ****** ****** ****** ******
      ****** ****** ****** ****** ****** ****** ****** ****** ****** ******
      ****** ****** ****** ****** ****** ****** ****** ****** ****** ******
  14  ****** ****** ****** ****** ****** ****** ****** ****** ****** ******
      ****** ****** ****** ****** ****** ****** ****** ****** ****** ******
      ****** ****** ****** ****** ****** ****** ****** ****** ****** ******
  15  ****** ****** ****** ****** ****** ****** ****** ****** ****** ******
      ****** ****** ****** ****** ****** ****** ****** ****** ****** ******
      ****** ****** ****** ****** ****** ****** ****** ****** ****** ******
  16  ****** ****** ****** ****** ****** ****** ****** ****** ****** ******
      ****** ****** ****** ****** ****** ****** ****** ****** ****** ******
      ****** ****** ****** ****** ****** ****** ****** ****** ****** ******
  17  ****** ****** ****** ****** ****** ****** ****** ****** ****** ******
      ****** ****** ****** ****** ****** ****** ****** ****** ****** ******
      ****** ****** ****** ****** ****** ****** ****** ****** ****** ******
  18  ****** ****** ****** ****** ****** ****** ****** ****** ****** ******
      ****** ****** ****** ****** ****** ****** ****** ****** ****** ******
      ****** ****** ****** ****** ****** ****** ****** ****** ****** ******
  19  ****** ****** ****** ****** ****** ****** ****** ****** ****** ******
      ****** ****** ****** ****** ****** ****** ****** ****** ****** ******
      ****** ****** ****** ****** ****** ****** ****** ****** ****** ******
  20  ****** ****** ****** ****** ****** ****** ****** ****** ****** ******
      ****** ****** ****** ****** ****** ****** ****** ****** ****** ******
      ****** ****** ****** ****** ****** ****** ****** ****** ****** ******
  21  ****** ****** ****** ****** ****** ****** ****** ****** ****** ******
      ****** ****** ****** ****** ****** ****** ****** ****** ****** ******
      ****** ****** ****** ****** ****** ****** ****** ****** ****** ******
  22  ****** ****** ****** ****** ****** ****** ****** ****** ****** ******
      ****** ****** ****** ****** ****** ****** ****** ****** ****** ******
      ****** ****** ****** ****** ****** ****** ****** ****** ****** ******
  23  ****** ****** ****** ****** ****** ****** ****** ****** ****** ******
      ****** ****** ****** ****** ****** ****** ****** ****** ****** ******
      ****** ****** ****** ****** ****** ****** ****** ****** ****** ******
  24  ****** ****** ****** ****** ****** ****** ****** ****** ****** ******
      ****** ****** ****** ****** ****** ****** ****** ****** ****** ******
      ****** ****** ****** ****** ****** ****** ****** ****** ****** ******
  25  ****** ****** ****** ****** ****** ****** ****** ****** ****** ******
      ****** ****** ****** ****** ****** ****** ****** ****** ****** ******
      ****** ****** ****** ****** ****** ****** ****** ****** ****** ******

 HEAD WILL BE SAVED ON UNIT   51 AT END OF TIME STEP    1, STRESS PERIOD    1
1
  VOLUMETRIC BUDGET FOR ENTIRE MODEL AT END OF TIME STEP    1, STRESS PERIOD   1
  ------------------------------------------------------------------------------

     CUMULATIVE VOLUMES      L**3       RATES FOR THIS TIME STEP      L**3/T
     ------------------                 ------------------------

           IN:                                      IN:
           ---                                      ---
             STORAGE =    17440602.2499               STORAGE =      189571.7636
       CONSTANT HEAD =    12906913.4747         CONSTANT HEAD =      140292.5378
               WELLS =           0.0000                 WELLS =           0.0000
            RECHARGE =     1269600.0000              RECHARGE =       13800.0000
      STREAM LEAKAGE =      474524.5073        STREAM LEAKAGE =        5157.8751

            TOTAL IN =    32091640.2318              TOTAL IN =      348822.1764

          OUT:                                     OUT:
          ----                                     ----
             STORAGE =           0.0000               STORAGE =           0.0000
       CONSTANT HEAD =           0.0000         CONSTANT HEAD =           0.0000
               WELLS =     8739396.3063                 WELLS =       94993.4381
            RECHARGE =           0.0000              RECHARGE =           0.0000
      STREAM LEAKAGE =    23352244.0628        STREAM LEAKAGE =      253828.7398

           TOTAL OUT =    32091640.3691             TOTAL OUT =      348822.1779

            IN - OUT =          -0.1373              IN - OUT =      -1.4920E-03

 PERCENT DISCREPANCY =          -0.00     PERCENT DISCREPANCY =          -0.00






         TIME SUMMARY AT END OF TIME STEP    1 IN STRESS PERIOD    1
                    SECONDS     MINUTES      HOURS       DAYS        YEARS
                    -----------------------------------------------------------
   TIME STEP LENGTH 7.94880E+06 1.32480E+05  2208.0      92.000     0.25188    
 STRESS PERIOD TIME 7.94880E+06 1.32480E+05  2208.0      92.000     0.25188    
         TOTAL TIME 7.94880E+06 1.32480E+05  2208.0      92.000     0.25188    
1
1
                            STRESS PERIOD NO.    2, LENGTH =   91.00000    
                            -----------------------------------------------

                              NUMBER OF TIME STEPS =     1

                               MULTIPLIER FOR DELT =     1.500

                            INITIAL TIME STEP SIZE =   91.00000    

 WELL NO.  LAYER   ROW   COL   STRESS RATE         
 --------------------------------------------------
      1      1     23     21     -0.3179E+05
      2      1     23     12     -0.3278E+05
      3      1     23     17     -0.3042E+05

      3 WELLS

                 RECHARGE =  2.000000E-03

 REUSING STREAM SEGMENT DATA FROM LAST STRESS PERIOD
 
 SOLVING FOR HEAD 


     7 CALLS TO PCG ROUTINE FOR TIME STEP   1 IN STRESS PERIOD    2
    27 TOTAL ITERATIONS

 OUTPUT CONTROL FOR STRESS PERIOD    2   TIME STEP    1
    SAVE BUDGET
    SAVE HEAD FOR ALL LAYERS
    PRINT HEAD FOR ALL LAYERS
 UBDSV2 SAVING "STREAMFLOW OUT  " ON UNIT  50 AT TIME STEP  1, STRESS PERIOD   2



 STREAM LISTING     PERIOD      2   STEP        1

 LAYER ROW COL. STREAM  RCH.  FLOW INTO     FLOW TO   FLOW OUT OF   OVRLND.     DIRECT     STREAM       STREAM     STREAM     STREAM   STREAMBED  STREAMBED
                SEG.NO.  NO.  STRM. RCH.    AQUIFER    STRM. RCH.    RUNOFF     PRECIP       ET          HEAD       DEPTH      WIDTH   CONDCTNC.   GRADIENT

   1   13    1     1     1    1.0000E+05 -3.8213E+03   1.0382E+05  0.000E+00  0.000E+00  0.000E+00  4.84077E+01  1.463E-01  2.000E+01  2.000E+04 -1.911E-01
   1   13    2     1     2    1.0382E+05 -6.1781E+03   1.1000E+05  0.000E+00  0.000E+00  0.000E+00  4.79347E+01  1.506E-01  2.000E+01  2.000E+04 -3.089E-01
   1   14    3     1     3    1.1000E+05 -5.1070E+03   1.1511E+05  0.000E+00  0.000E+00  0.000E+00  4.74621E+01  1.553E-01  2.000E+01  2.000E+04 -2.554E-01
   1   15    4     1     4    1.1511E+05 -4.9040E+03   1.2001E+05  0.000E+00  0.000E+00  0.000E+00  4.69889E+01  1.594E-01  2.000E+01  2.000E+04 -2.452E-01
   1   16    5     1     5    1.2001E+05 -4.9213E+03   1.2493E+05  0.000E+00  0.000E+00  0.000E+00  4.65156E+01  1.634E-01  2.000E+01  2.000E+04 -2.461E-01
   1   16    6     1     6    1.2493E+05 -3.8564E+03   1.2879E+05  0.000E+00  0.000E+00  0.000E+00  4.60418E+01  1.668E-01  2.000E+01  2.000E+04 -1.928E-01
   1   16    7     1     7    1.2879E+05 -3.8746E+03   1.3266E+05  0.000E+00  0.000E+00  0.000E+00  4.55676E+01  1.699E-01  2.000E+01  2.000E+04 -1.937E-01
   1   16    8     1     8    1.3266E+05 -3.8255E+03   1.3649E+05  0.000E+00  0.000E+00  0.000E+00  4.50933E+01  1.729E-01  2.000E+01  2.000E+04 -1.913E-01
   1   16    9     1     9    1.3649E+05 -3.6972E+03   1.4019E+05  0.000E+00  0.000E+00  0.000E+00  4.46189E+01  1.757E-01  2.000E+01  2.000E+04 -1.849E-01
   1   16   10     1    10    1.4019E+05 -3.4972E+03   1.4368E+05  0.000E+00  0.000E+00  0.000E+00  4.41444E+01  1.785E-01  2.000E+01  2.000E+04 -1.749E-01
   1   16   11     1    11    1.4368E+05 -3.2446E+03   1.4693E+05  0.000E+00  0.000E+00  0.000E+00  4.36696E+01  1.810E-01  2.000E+01  2.000E+04 -1.622E-01
   1   16   12     1    12    1.4693E+05 -3.7702E+03   1.5070E+05  0.000E+00  0.000E+00  0.000E+00  4.31950E+01  1.836E-01  2.000E+01  2.000E+04 -1.885E-01
   1   15   13     1    13    1.5070E+05 -4.2415E+03   1.5494E+05  0.000E+00  0.000E+00  0.000E+00  4.27207E+01  1.866E-01  2.000E+01  2.000E+04 -2.121E-01
   1   14   14     1    14    1.5494E+05 -4.6751E+03   1.5961E+05  0.000E+00  0.000E+00  0.000E+00  4.22466E+01  1.898E-01  2.000E+01  2.000E+04 -2.338E-01
   1   13   15     1    15    1.5961E+05 -5.2062E+03   1.6482E+05  0.000E+00  0.000E+00  0.000E+00  4.17729E+01  1.934E-01  2.000E+01  2.000E+04 -2.603E-01
   1   12   16     1    16    1.6482E+05 -6.6614E+03   1.7148E+05  0.000E+00  0.000E+00  0.000E+00  4.12999E+01  1.976E-01  2.000E+01  2.000E+04 -3.331E-01
   1   12   17     1    17    1.7148E+05 -4.3095E+03   1.7579E+05  0.000E+00  0.000E+00  0.000E+00  4.08264E+01  2.014E-01  2.000E+01  2.000E+04 -2.155E-01
   1   12   18     1    18    1.7579E+05 -4.1391E+03   1.7993E+05  0.000E+00  0.000E+00  0.000E+00  4.03521E+01  2.043E-01  2.000E+01  2.000E+04 -2.070E-01
   1   12   19     1    19    1.7993E+05 -5.4514E+03   1.8538E+05  0.000E+00  0.000E+00  0.000E+00  3.98781E+01  2.076E-01  2.000E+01  2.000E+04 -2.726E-01
   1   13   20     1    20    1.8538E+05 -3.5363E+03   1.8892E+05  0.000E+00  0.000E+00  0.000E+00  3.94039E+01  2.107E-01  2.000E+01  2.000E+04 -1.768E-01
   1   14   21     1    21    1.8892E+05 -2.3804E+03   1.9130E+05  0.000E+00  0.000E+00  0.000E+00  3.89286E+01  2.127E-01  2.000E+01  2.000E+04 -1.190E-01
   1   14   22     1    22    1.9130E+05  4.9924E+03   1.8631E+05  0.000E+00  0.000E+00  0.000E+00  3.84504E+01  2.118E-01  2.000E+01  2.000E+04  2.496E-01
   1    9   30     2     1    5.0000E+04 -3.4575E+03   5.3458E+04  0.000E+00  0.000E+00  0.000E+00  4.02433E+01  1.183E-01  2.000E+01  2.000E+04 -1.729E-01
   1    9   29     2     2    5.3458E+04 -3.7816E+03   5.7239E+04  0.000E+00  0.000E+00  0.000E+00  3.99982E+01  1.232E-01  2.000E+01  2.000E+04 -1.891E-01
   1    9   28     2     3    5.7239E+04 -4.1575E+03   6.1397E+04  0.000E+00  0.000E+00  0.000E+00  3.97534E+01  1.284E-01  2.000E+01  2.000E+04 -2.079E-01
   1    9   27     2     4    6.1397E+04 -7.1641E+03   6.8561E+04  0.000E+00  0.000E+00  0.000E+00  3.95106E+01  1.356E-01  2.000E+01  2.000E+04 -3.582E-01
   1   10   26     2     5    6.8561E+04 -4.8340E+03   7.3395E+04  0.000E+00  0.000E+00  0.000E+00  3.92680E+01  1.430E-01  2.000E+01  2.000E+04 -2.417E-01
   1   11   25     2     6    7.3395E+04 -3.7372E+03   7.7132E+04  0.000E+00  0.000E+00  0.000E+00  3.90231E+01  1.481E-01  2.000E+01  2.000E+04 -1.869E-01
   1   12   24     2     7    7.7132E+04 -2.7444E+03   7.9876E+04  0.000E+00  0.000E+00  0.000E+00  3.87769E+01  1.519E-01  2.000E+01  2.000E+04 -1.372E-01
   1   13   23     2     8    7.9876E+04 -1.6956E+03   8.1572E+04  0.000E+00  0.000E+00  0.000E+00  3.85294E+01  1.544E-01  2.000E+01  2.000E+04 -8.478E-02
   1   14   22     2     9    8.1572E+04  1.5740E+03   7.9998E+04  0.000E+00  0.000E+00  0.000E+00  3.82795E+01  1.545E-01  2.000E+01  2.000E+04  7.870E-02
   1   14   22     3     1    2.6630E+05 -8.5430E+03   2.7485E+05  0.000E+00  0.000E+00  0.000E+00  3.77737E+01  2.181E-01  2.000E+01  2.000E+04 -4.272E-01
   1   15   23     3     2    2.7485E+05 -2.8451E+03   2.7769E+05  0.000E+00  0.000E+00  0.000E+00  3.68875E+01  2.209E-01  2.000E+01  2.000E+04 -1.423E-01
   1   15   24     3     3    2.7769E+05 -2.1242E+03   2.7982E+05  0.000E+00  0.000E+00  0.000E+00  3.59998E+01  2.220E-01  2.000E+01  2.000E+04 -1.062E-01
   1   15   25     3     4    2.7982E+05 -2.1427E+03   2.8196E+05  0.000E+00  0.000E+00  0.000E+00  3.51119E+01  2.231E-01  2.000E+01  2.000E+04 -1.071E-01
   1   15   26     3     5    2.8196E+05 -2.8359E+03   2.8479E+05  0.000E+00  0.000E+00  0.000E+00  3.42242E+01  2.242E-01  2.000E+01  2.000E+04 -1.418E-01
   1   16   27     3     6    2.8479E+05 -3.7850E+03   2.8858E+05  0.000E+00  0.000E+00  0.000E+00  3.33369E+01  2.258E-01  2.000E+01  2.000E+04 -1.892E-01
   1   17   28     3     7    2.8858E+05 -4.5979E+03   2.9318E+05  0.000E+00  0.000E+00  0.000E+00  3.24500E+01  2.278E-01  2.000E+01  2.000E+04 -2.299E-01
   1   18   29     3     8    2.9318E+05 -6.1777E+03   2.9936E+05  0.000E+00  0.000E+00  0.000E+00  3.15636E+01  2.303E-01  2.000E+01  2.000E+04 -3.089E-01
   1   18   30     3     9    2.9936E+05 -5.2533E+03   3.0461E+05  0.000E+00  0.000E+00  0.000E+00  3.06774E+01  2.330E-01  2.000E+01  2.000E+04 -2.627E-01



1
              HEAD IN LAYER   1 AT END OF TIME STEP   1 IN STRESS PERIOD    2
  ---------------------------------------------------------------------------

          1      2      3      4      5      6      7      8      9     10
         11     12     13     14     15     16     17     18     19     20
         21     22     23     24     25     26     27     28     29     30
 .........................................................................
   1  ****** ****** ****** ****** ****** ****** ****** ****** ****** ******
      ****** ****** ****** ****** ****** ****** ****** ****** ****** ******
      ****** ****** ****** ****** ****** ****** ****** ****** ****** ******
   2  ****** ****** ****** ****** ****** ****** ****** ****** ****** ******
      ****** ****** ****** ****** ****** ****** ****** ****** ****** ******
      ****** ****** ****** ****** ****** ****** ****** ****** ****** ******
   3  ****** ****** ****** ****** ****** ****** ****** ****** ****** ******
      ****** ****** ****** ****** ****** ****** ****** ****** ****** ******
      ****** ****** ****** ****** ****** ****** ****** ****** ****** ******
   4  ****** ****** ****** ****** ****** ****** ****** ****** ****** ******
      ****** ****** ****** ****** ****** ****** ****** ****** ****** ******
      ****** ****** ****** ****** ****** ****** ****** ****** ****** ******
   5  ****** ****** ****** ****** ****** ****** ****** ****** ****** ******
      ****** ****** ****** ****** ****** ****** ****** ****** ****** ******
      ****** ****** ****** ****** ****** ****** ****** ****** ****** ******
   6  ****** ****** ****** ****** ****** ****** ****** ****** ****** ******
      ****** ****** ****** ****** ****** ****** ****** ****** ****** ******
      ****** ****** ****** ****** ****** ****** ****** ****** ****** ******
   7  ****** ****** ****** ****** ****** ****** ****** ****** ****** ******
      ****** ****** ****** ****** ****** ****** ****** ****** ****** ******
      ****** ****** ****** ****** ****** ****** ****** ****** ****** ******
   8  ****** ****** ****** ****** ****** ****** ****** ****** ****** ******
      ****** ****** ****** ****** ****** ****** ****** ****** ****** ******
      ****** ****** ****** ****** ****** ****** ****** ****** ****** ******
   9  ****** ****** ****** ****** ****** ****** ****** ****** ****** ******
      ****** ****** ****** ****** ****** ****** ****** ****** ****** ******
      ****** ****** ****** ****** ****** ****** ****** ****** ****** ******
  10  ****** ****** ****** ****** ****** ****** ****** ****** ****** ******
      ****** ****** ****** ****** ****** ****** ****** ****** ****** ******
      ****** ****** ****** ****** ****** ****** ****** ****** ****** ******
  11  ****** ****** ****** ****** ****** ****** ****** ****** ****** ******
      ****** ****** ****** ****** ****** ****** ****** ****** ****** ******
      ****** ****** ****** ****** ****** ****** ****** ****** ****** ******
  12  ****** ****** ****** ****** ****** ****** ****** ****** ****** ******
      ****** ****** ****** ****** ****** ****** ****** ****** ****** ******
      ****** ****** ****** ****** ****** ****** ****** ****** ****** ******
  13  ****** ****** ****** ****** ****** ****** ****** ****** ****** ******
      ****** ****** ****** ****** ****** ****** ****** ****** ****** ******
      ****** ****** ****** ****** ****** ****** ****** ****** ****** ******
  14  ****** ****** ****** ****** ****** ****** ****** ****** ****** ******
      ****** ****** ****** ****** ****** ****** ****** ****** ****** ******
      ****** ****** ****** ****** ****** ****** ****** ****** ****** ******
  15  ****** ****** ****** ****** ****** ****** ****** ****** ****** ******
      ****** ****** ****** ****** ****** ****** ****** ****** ****** ******
      ****** ****** ****** ****** ****** ****** ****** ****** ****** ******
  16  ****** ****** ****** ****** ****** ****** ****** ****** ****** ******
      ****** ****** ****** ****** ****** ****** ****** ****** ****** ******
      ****** ****** ****** ****** ****** ****** ****** ****** ****** ******
  17  ****** ****** ****** ****** ****** ****** ****** ****** ****** ******
      ****** ****** ****** ****** ****** ****** ****** ****** ****** ******
      ****** ****** ****** ****** ****** ****** ****** ****** ****** ******
  18  ****** ****** ****** ****** ****** ****** ****** ****** ****** ******
      ****** ****** ****** ****** ****** ****** ****** ****** ****** ******
      ****** ****** ****** ****** ****** ****** ****** ****** ****** ******
  19  ****** ****** ****** ****** ****** ****** ****** ****** ****** ******
      ****** ****** ****** ****** ****** ****** ****** ****** ****** ******
      ****** ****** ****** ****** ****** ****** ****** ****** ****** ******
  20  ****** ****** ****** ****** ****** ****** ****** ****** ****** ******
      ****** ****** ****** ****** ****** ****** ****** ****** ****** ******
      ****** ****** ****** ****** ****** ****** ****** ****** ****** ******
  21  ****** ****** ****** ****** ****** ****** ****** ****** ****** ******
      ****** ****** ****** ****** ****** ****** ****** ****** ****** ******
      ****** ****** ****** ****** ****** ****** ****** ****** ****** ******
  22  ****** ****** ****** ****** ****** ****** ****** ****** ****** ******
      ****** ****** ****** ****** ****** ****** ****** ****** ****** ******
      ****** ****** ****** ****** ****** ****** ****** ****** ****** ******
  23  ****** ****** ****** ****** ****** ****** ****** ****** ****** ******
      ****** ****** ****** ****** ****** ****** ****** ****** ****** ******
      ****** ****** ****** ****** ****** ****** ****** ****** ****** ******
  24  ****** ****** ****** ****** ****** ****** ****** ****** ****** ******
      ****** ****** ****** ****** ****** ****** ****** ****** ****** ******
      ****** ****** ****** ****** ****** ****** ****** ****** ****** ******
  25  ****** ****** ****** ****** ****** ****** ****** ****** ****** ******
      ****** ****** ****** ****** ****** ****** ****** ****** ****** ******
      ****** ****** ****** ****** ****** ****** ****** ****** ****** ******

 HEAD WILL BE SAVED ON UNIT   51 AT END OF TIME STEP    1, STRESS PERIOD    2
1
  VOLUMETRIC BUDGET FOR ENTIRE MODEL AT END OF TIME STEP    1, STRESS PERIOD   2
  ------------------------------------------------------------------------------

     CUMULATIVE VOLUMES      L**3       RATES FOR THIS TIME STEP      L**3/T
     ------------------                 ------------------------

           IN:                                      IN:
           ---                                      ---
             STORAGE =    20490730.6124               STORAGE =       33517.8941
       CONSTANT HEAD =    27547392.9556         CONSTANT HEAD =      160884.3899
               WELLS =           0.0000                 WELLS =           0.0000
            RECHARGE =     6292800.0000              RECHARGE =       55200.0000
      STREAM LEAKAGE =     1072069.0934        STREAM LEAKAGE =        6566.4240

            TOTAL IN =    55402992.6613              TOTAL IN =      256168.7080

          OUT:                                     OUT:
          ----                                     ----
             STORAGE =           0.0000               STORAGE =           0.0000
       CONSTANT HEAD =           0.0000         CONSTANT HEAD =           0.0000
               WELLS =    17383799.1745                 WELLS =       94993.4381
            RECHARGE =           0.0000              RECHARGE =           0.0000
      STREAM LEAKAGE =    38019194.0740        STREAM LEAKAGE =      161175.2748

           TOTAL OUT =    55402993.2484             TOTAL OUT =      256168.7130

            IN - OUT =          -0.5871              IN - OUT =      -4.9436E-03

 PERCENT DISCREPANCY =          -0.00     PERCENT DISCREPANCY =          -0.00






         TIME SUMMARY AT END OF TIME STEP    1 IN STRESS PERIOD    2
                    SECONDS     MINUTES      HOURS       DAYS        YEARS
                    -----------------------------------------------------------
   TIME STEP LENGTH 7.86240E+06 1.31040E+05  2184.0      91.000     0.24914    
 STRESS PERIOD TIME 7.86240E+06 1.31040E+05  2184.0      91.000     0.24914    
         TOTAL TIME 1.58112E+07 2.63520E+05  4392.0      183.00     0.50103    
1
1
                            STRESS PERIOD NO.    3, LENGTH =   91.00000    
                            -----------------------------------------------

                              NUMBER OF TIME STEPS =     1

                               MULTIPLIER FOR DELT =     1.500

                            INITIAL TIME STEP SIZE =   91.00000    

 WELL NO.  LAYER   ROW   COL   STRESS RATE         
 --------------------------------------------------
      1      1     23     21     -0.3179E+05
      2      1     23     12     -0.3278E+05
      3      1     23     17     -0.3042E+05

      3 WELLS

                 RECHARGE =   0.00000    

 REUSING STREAM SEGMENT DATA FROM LAST STRESS PERIOD
 
 SOLVING FOR HEAD 


     7 CALLS TO PCG ROUTINE FOR TIME STEP   1 IN STRESS PERIOD    3
    27 TOTAL ITERATIONS

 OUTPUT CONTROL FOR STRESS PERIOD    3   TIME STEP    1
    SAVE BUDGET
    SAVE HEAD FOR ALL LAYERS
    PRINT HEAD FOR ALL LAYERS
 UBDSV2 SAVING "STREAMFLOW OUT  " ON UNIT  50 AT TIME STEP  1, STRESS PERIOD   3



 STREAM LISTING     PERIOD      3   STEP        1

 LAYER ROW COL. STREAM  RCH.  FLOW INTO     FLOW TO   FLOW OUT OF   OVRLND.     DIRECT     STREAM       STREAM     STREAM     STREAM   STREAMBED  STREAMBED
                SEG.NO.  NO.  STRM. RCH.    AQUIFER    STRM. RCH.    RUNOFF     PRECIP       ET          HEAD       DEPTH      WIDTH   CONDCTNC.   GRADIENT

   1   13    1     1     1    1.0000E+05 -2.9049E+03   1.0290E+05  0.000E+00  0.000E+00  0.000E+00  4.84073E+01  1.459E-01  2.000E+01  2.000E+04 -1.452E-01
   1   13    2     1     2    1.0290E+05 -4.9275E+03   1.0783E+05  0.000E+00  0.000E+00  0.000E+00  4.79334E+01  1.493E-01  2.000E+01  2.000E+04 -2.464E-01
   1   14    3     1     3    1.0783E+05 -3.8552E+03   1.1169E+05  0.000E+00  0.000E+00  0.000E+00  4.74598E+01  1.530E-01  2.000E+01  2.000E+04 -1.928E-01
   1   15    4     1     4    1.1169E+05 -3.6657E+03   1.1535E+05  0.000E+00  0.000E+00  0.000E+00  4.69856E+01  1.561E-01  2.000E+01  2.000E+04 -1.833E-01
   1   16    5     1     5    1.1535E+05 -3.7765E+03   1.1913E+05  0.000E+00  0.000E+00  0.000E+00  4.65114E+01  1.591E-01  2.000E+01  2.000E+04 -1.888E-01
   1   16    6     1     6    1.1913E+05 -2.9517E+03   1.2208E+05  0.000E+00  0.000E+00  0.000E+00  4.60369E+01  1.619E-01  2.000E+01  2.000E+04 -1.476E-01
   1   16    7     1     7    1.2208E+05 -2.9421E+03   1.2502E+05  0.000E+00  0.000E+00  0.000E+00  4.55620E+01  1.642E-01  2.000E+01  2.000E+04 -1.471E-01
   1   16    8     1     8    1.2502E+05 -2.8707E+03   1.2789E+05  0.000E+00  0.000E+00  0.000E+00  4.50870E+01  1.665E-01  2.000E+01  2.000E+04 -1.435E-01
   1   16    9     1     9    1.2789E+05 -2.7290E+03   1.3062E+05  0.000E+00  0.000E+00  0.000E+00  4.46119E+01  1.687E-01  2.000E+01  2.000E+04 -1.365E-01
   1   16   10     1    10    1.3062E+05 -2.5237E+03   1.3315E+05  0.000E+00  0.000E+00  0.000E+00  4.41367E+01  1.708E-01  2.000E+01  2.000E+04 -1.262E-01
   1   16   11     1    11    1.3315E+05 -2.2655E+03   1.3541E+05  0.000E+00  0.000E+00  0.000E+00  4.36613E+01  1.726E-01  2.000E+01  2.000E+04 -1.133E-01
   1   16   12     1    12    1.3541E+05 -2.4222E+03   1.3783E+05  0.000E+00  0.000E+00  0.000E+00  4.31858E+01  1.744E-01  2.000E+01  2.000E+04 -1.211E-01
   1   15   13     1    13    1.3783E+05 -2.8148E+03   1.4065E+05  0.000E+00  0.000E+00  0.000E+00  4.27105E+01  1.764E-01  2.000E+01  2.000E+04 -1.407E-01
   1   14   14     1    14    1.4065E+05 -3.2390E+03   1.4389E+05  0.000E+00  0.000E+00  0.000E+00  4.22355E+01  1.787E-01  2.000E+01  2.000E+04 -1.620E-01
   1   13   15     1    15    1.4389E+05 -3.8268E+03   1.4772E+05  0.000E+00  0.000E+00  0.000E+00  4.17609E+01  1.814E-01  2.000E+01  2.000E+04 -1.913E-01
   1   12   16     1    16    1.4772E+05 -5.3812E+03   1.5310E+05  0.000E+00  0.000E+00  0.000E+00  4.12871E+01  1.848E-01  2.000E+01  2.000E+04 -2.691E-01
   1   12   17     1    17    1.5310E+05 -3.3654E+03   1.5646E+05  0.000E+00  0.000E+00  0.000E+00  4.08130E+01  1.880E-01  2.000E+01  2.000E+04 -1.683E-01
   1   12   18     1    18    1.5646E+05 -3.2155E+03   1.5968E+05  0.000E+00  0.000E+00  0.000E+00  4.03381E+01  1.904E-01  2.000E+01  2.000E+04 -1.608E-01
   1   12   19     1    19    1.5968E+05 -4.3460E+03   1.6402E+05  0.000E+00  0.000E+00  0.000E+00  3.98636E+01  1.931E-01  2.000E+01  2.000E+04 -2.173E-01
   1   13   20     1    20    1.6402E+05 -2.4258E+03   1.6645E+05  0.000E+00  0.000E+00  0.000E+00  3.93887E+01  1.955E-01  2.000E+01  2.000E+04 -1.213E-01
   1   14   21     1    21    1.6645E+05 -1.2813E+03   1.6773E+05  0.000E+00  0.000E+00  0.000E+00  3.89127E+01  1.968E-01  2.000E+01  2.000E+04 -6.406E-02
   1   14   22     1    22    1.6773E+05  5.1631E+03   1.6257E+05  0.000E+00  0.000E+00  0.000E+00  3.84341E+01  1.955E-01  2.000E+01  2.000E+04  2.582E-01
   1    9   30     2     1    5.0000E+04 -2.6905E+03   5.2691E+04  0.000E+00  0.000E+00  0.000E+00  4.02427E+01  1.177E-01  2.000E+01  2.000E+04 -1.345E-01
   1    9   29     2     2    5.2691E+04 -3.0247E+03   5.5715E+04  0.000E+00  0.000E+00  0.000E+00  3.99966E+01  1.216E-01  2.000E+01  2.000E+04 -1.512E-01
   1    9   28     2     3    5.5715E+04 -3.4117E+03   5.9127E+04  0.000E+00  0.000E+00  0.000E+00  3.97509E+01  1.259E-01  2.000E+01  2.000E+04 -1.706E-01
   1    9   27     2     4    5.9127E+04 -6.1567E+03   6.5284E+04  0.000E+00  0.000E+00  0.000E+00  3.95071E+01  1.321E-01  2.000E+01  2.000E+04 -3.078E-01
   1   10   26     2     5    6.5284E+04 -3.7683E+03   6.9052E+04  0.000E+00  0.000E+00  0.000E+00  3.92633E+01  1.383E-01  2.000E+01  2.000E+04 -1.884E-01
   1   11   25     2     6    6.9052E+04 -2.7210E+03   7.1773E+04  0.000E+00  0.000E+00  0.000E+00  3.90173E+01  1.423E-01  2.000E+01  2.000E+04 -1.360E-01
   1   12   24     2     7    7.1773E+04 -1.8719E+03   7.3645E+04  0.000E+00  0.000E+00  0.000E+00  3.87701E+01  1.451E-01  2.000E+01  2.000E+04 -9.360E-02
   1   13   23     2     8    7.3645E+04 -1.0491E+03   7.4694E+04  0.000E+00  0.000E+00  0.000E+00  3.85218E+01  1.468E-01  2.000E+01  2.000E+04 -5.245E-02
   1   14   22     2     9    7.4694E+04  1.9069E+03   7.2787E+04  0.000E+00  0.000E+00  0.000E+00  3.82713E+01  1.463E-01  2.000E+01  2.000E+04  9.535E-02
   1   14   22     3     1    2.3535E+05 -8.3530E+03   2.4371E+05  0.000E+00  0.000E+00  0.000E+00  3.77583E+01  2.027E-01  2.000E+01  2.000E+04 -4.177E-01
   1   15   23     3     2    2.4371E+05 -1.8186E+03   2.4553E+05  0.000E+00  0.000E+00  0.000E+00  3.68720E+01  2.053E-01  2.000E+01  2.000E+04 -9.093E-02
   1   15   24     3     3    2.4553E+05 -1.4520E+03   2.4698E+05  0.000E+00  0.000E+00  0.000E+00  3.59839E+01  2.061E-01  2.000E+01  2.000E+04 -7.260E-02
   1   15   25     3     4    2.4698E+05 -1.4911E+03   2.4847E+05  0.000E+00  0.000E+00  0.000E+00  3.50958E+01  2.069E-01  2.000E+01  2.000E+04 -7.455E-02
   1   15   26     3     5    2.4847E+05 -1.9848E+03   2.5045E+05  0.000E+00  0.000E+00  0.000E+00  3.42077E+01  2.077E-01  2.000E+01  2.000E+04 -9.924E-02
   1   16   27     3     6    2.5045E+05 -2.6792E+03   2.5313E+05  0.000E+00  0.000E+00  0.000E+00  3.33200E+01  2.089E-01  2.000E+01  2.000E+04 -1.340E-01
   1   17   28     3     7    2.5313E+05 -3.4797E+03   2.5661E+05  0.000E+00  0.000E+00  0.000E+00  3.24326E+01  2.104E-01  2.000E+01  2.000E+04 -1.740E-01
   1   18   29     3     8    2.5661E+05 -5.1542E+03   2.6177E+05  0.000E+00  0.000E+00  0.000E+00  3.15459E+01  2.126E-01  2.000E+01  2.000E+04 -2.577E-01
   1   18   30     3     9    2.6177E+05 -4.5092E+03   2.6628E+05  0.000E+00  0.000E+00  0.000E+00  3.06594E+01  2.149E-01  2.000E+01  2.000E+04 -2.255E-01



1
              HEAD IN LAYER   1 AT END OF TIME STEP   1 IN STRESS PERIOD    3
  ---------------------------------------------------------------------------

          1      2      3      4      5      6      7      8      9     10
         11     12     13     14     15     16     17     18     19     20
         21     22     23     24     25     26     27     28     29     30
 .........................................................................
   1  ****** ****** ****** ****** ****** ****** ****** ****** ****** ******
      ****** ****** ****** ****** ****** ****** ****** ****** ****** ******
      ****** ****** ****** ****** ****** ****** ****** ****** ****** ******
   2  ****** ****** ****** ****** ****** ****** ****** ****** ****** ******
      ****** ****** ****** ****** ****** ****** ****** ****** ****** ******
      ****** ****** ****** ****** ****** ****** ****** ****** ****** ******
   3  ****** ****** ****** ****** ****** ****** ****** ****** ****** ******
      ****** ****** ****** ****** ****** ****** ****** ****** ****** ******
      ****** ****** ****** ****** ****** ****** ****** ****** ****** ******
   4  ****** ****** ****** ****** ****** ****** ****** ****** ****** ******
      ****** ****** ****** ****** ****** ****** ****** ****** ****** ******
      ****** ****** ****** ****** ****** ****** ****** ****** ****** ******
   5  ****** ****** ****** ****** ****** ****** ****** ****** ****** ******
      ****** ****** ****** ****** ****** ****** ****** ****** ****** ******
      ****** ****** ****** ****** ****** ****** ****** ****** ****** ******
   6  ****** ****** ****** ****** ****** ****** ****** ****** ****** ******
      ****** ****** ****** ****** ****** ****** ****** ****** ****** ******
      ****** ****** ****** ****** ****** ****** ****** ****** ****** ******
   7  ****** ****** ****** ****** ****** ****** ****** ****** ****** ******
      ****** ****** ****** ****** ****** ****** ****** ****** ****** ******
      ****** ****** ****** ****** ****** ****** ****** ****** ****** ******
   8  ****** ****** ****** ****** ****** ****** ****** ****** ****** ******
      ****** ****** ****** ****** ****** ****** ****** ****** ****** ******
      ****** ****** ****** ****** ****** ****** ****** ****** ****** ******
   9  ****** ****** ****** ****** ****** ****** ****** ****** ****** ******
      ****** ****** ****** ****** ****** ****** ****** ****** ****** ******
      ****** ****** ****** ****** ****** ****** ****** ****** ****** ******
  10  ****** ****** ****** ****** ****** ****** ****** ****** ****** ******
      ****** ****** ****** ****** ****** ****** ****** ****** ****** ******
      ****** ****** ****** ****** ****** ****** ****** ****** ****** ******
  11  ****** ****** ****** ****** ****** ****** ****** ****** ****** ******
      ****** ****** ****** ****** ****** ****** ****** ****** ****** ******
      ****** ****** ****** ****** ****** ****** ****** ****** ****** ******
  12  ****** ****** ****** ****** ****** ****** ****** ****** ****** ******
      ****** ****** ****** ****** ****** ****** ****** ****** ****** ******
      ****** ****** ****** ****** ****** ****** ****** ****** ****** ******
  13  ****** ****** ****** ****** ****** ****** ****** ****** ****** ******
      ****** ****** ****** ****** ****** ****** ****** ****** ****** ******
      ****** ****** ****** ****** ****** ****** ****** ****** ****** ******
  14  ****** ****** ****** ****** ****** ****** ****** ****** ****** ******
      ****** ****** ****** ****** ****** ****** ****** ****** ****** ******
      ****** ****** ****** ****** ****** ****** ****** ****** ****** ******
  15  ****** ****** ****** ****** ****** ****** ****** ****** ****** ******
      ****** ****** ****** ****** ****** ****** ****** ****** ****** ******
      ****** ****** ****** ****** ****** ****** ****** ****** ****** ******
  16  ****** ****** ****** ****** ****** ****** ****** ****** ****** ******
      ****** ****** ****** ****** ****** ****** ****** ****** ****** ******
      ****** ****** ****** ****** ****** ****** ****** ****** ****** ******
  17  ****** ****** ****** ****** ****** ****** ****** ****** ****** ******
      ****** ****** ****** ****** ****** ****** ****** ****** ****** ******
      ****** ****** ****** ****** ****** ****** ****** ****** ****** ******
  18  ****** ****** ****** ****** ****** ****** ****** ****** ****** ******
      ****** ****** ****** ****** ****** ****** ****** ****** ****** ******
      ****** ****** ****** ****** ****** ****** ****** ****** ****** ******
  19  ****** ****** ****** ****** ****** ****** ****** ****** ****** ******
      ****** ****** ****** ****** ****** ****** ****** ****** ****** ******
      ****** ****** ****** ****** ****** ****** ****** ****** ****** ******
  20  ****** ****** ****** ****** ****** ****** ****** ****** ****** ******
      ****** ****** ****** ****** ****** ****** ****** ****** ****** ******
      ****** ****** ****** ****** ****** ****** ****** ****** ****** ******
  21  ****** ****** ****** ****** ****** ****** ****** ****** ****** ******
      ****** ****** ****** ****** ****** ****** ****** ****** ****** ******
      ****** ****** ****** ****** ****** ****** ****** ****** ****** ******
  22  ****** ****** ****** ****** ****** ****** ****** ****** ****** ******
      ****** ****** ****** ****** ****** ****** ****** ****** ****** ******
      ****** ****** ****** ****** ****** ****** ****** ****** ****** ******
  23  ****** ****** ****** ****** ****** ****** ****** ****** ****** ******
      ****** ****** ****** ****** ****** ****** ****** ****** ****** ******
      ****** ****** ****** ****** ****** ****** ****** ****** ****** ******
  24  ****** ****** ****** ****** ****** ****** ****** ****** ****** ******
      ****** ****** ****** ****** ****** ****** ****** ****** ****** ******
      ****** ****** ****** ****** ****** ****** ****** ****** ****** ******
  25  ****** ****** ****** ****** ****** ****** ****** ****** ****** ******
      ****** ****** ****** ****** ****** ****** ****** ****** ****** ******
      ****** ****** ****** ****** ****** ****** ****** ****** ****** ******

 HEAD WILL BE SAVED ON UNIT   51 AT END OF TIME STEP    1, STRESS PERIOD    3
1
  VOLUMETRIC BUDGET FOR ENTIRE MODEL AT END OF TIME STEP    1, STRESS PERIOD   3
  ------------------------------------------------------------------------------

     CUMULATIVE VOLUMES      L**3       RATES FOR THIS TIME STEP      L**3/T
     ------------------                 ------------------------

           IN:                                      IN:
           ---                                      ---
             STORAGE =    22883074.6846               STORAGE =       26289.4953
       CONSTANT HEAD =    44380561.9071         CONSTANT HEAD =      184979.8786
               WELLS =           0.0000                 WELLS =           0.0000
            RECHARGE =     6292800.0000              RECHARGE =           0.0000
      STREAM LEAKAGE =     1715442.2191        STREAM LEAKAGE =        7070.0343

            TOTAL IN =    75271878.8108              TOTAL IN =      218339.4082

          OUT:                                     OUT:
          ----                                     ----
             STORAGE =           0.0000               STORAGE =           0.0000
       CONSTANT HEAD =           0.0000         CONSTANT HEAD =           0.0000
               WELLS =    26028202.0427                 WELLS =       94993.4381
            RECHARGE =           0.0000              RECHARGE =           0.0000
      STREAM LEAKAGE =    49243677.5911        STREAM LEAKAGE =      123345.9727

           TOTAL OUT =    75271879.6338             TOTAL OUT =      218339.4108

            IN - OUT =          -0.8229              IN - OUT =      -2.5911E-03

 PERCENT DISCREPANCY =          -0.00     PERCENT DISCREPANCY =          -0.00






         TIME SUMMARY AT END OF TIME STEP    1 IN STRESS PERIOD    3
                    SECONDS     MINUTES      HOURS       DAYS        YEARS
                    -----------------------------------------------------------
   TIME STEP LENGTH 7.86240E+06 1.31040E+05  2184.0      91.000     0.24914    
 STRESS PERIOD TIME 7.86240E+06 1.31040E+05  2184.0      91.000     0.24914    
         TOTAL TIME 2.36736E+07 3.94560E+05  6576.0      274.00     0.75017    
1
1
                            STRESS PERIOD NO.    4, LENGTH =   91.00000    
                            -----------------------------------------------

                              NUMBER OF TIME STEPS =     1

                               MULTIPLIER FOR DELT =     1.500

                            INITIAL TIME STEP SIZE =   91.00000    

 WELL NO.  LAYER   ROW   COL   STRESS RATE         
 --------------------------------------------------
      1      1     23     21     -0.3179E+05
      2      1     23     12     -0.3278E+05
      3      1     23     17     -0.3042E+05

      3 WELLS

                 RECHARGE =  1.000000E-03

 REUSING STREAM SEGMENT DATA FROM LAST STRESS PERIOD
 
 SOLVING FOR HEAD 


     6 CALLS TO PCG ROUTINE FOR TIME STEP   1 IN STRESS PERIOD    4
    21 TOTAL ITERATIONS

 OUTPUT CONTROL FOR STRESS PERIOD    4   TIME STEP    1
    SAVE BUDGET
    SAVE HEAD FOR ALL LAYERS
    PRINT HEAD FOR ALL LAYERS
 UBDSV2 SAVING "STREAMFLOW OUT  " ON UNIT  50 AT TIME STEP  1, STRESS PERIOD   4



 STREAM LISTING     PERIOD      4   STEP        1

 LAYER ROW COL. STREAM  RCH.  FLOW INTO     FLOW TO   FLOW OUT OF   OVRLND.     DIRECT     STREAM       STREAM     STREAM     STREAM   STREAMBED  STREAMBED
                SEG.NO.  NO.  STRM. RCH.    AQUIFER    STRM. RCH.    RUNOFF     PRECIP       ET          HEAD       DEPTH      WIDTH   CONDCTNC.   GRADIENT

   1   13    1     1     1    1.0000E+05 -2.9266E+03   1.0293E+05  0.000E+00  0.000E+00  0.000E+00  4.84073E+01  1.459E-01  2.000E+01  2.000E+04 -1.463E-01
   1   13    2     1     2    1.0293E+05 -4.9204E+03   1.0785E+05  0.000E+00  0.000E+00  0.000E+00  4.79334E+01  1.493E-01  2.000E+01  2.000E+04 -2.460E-01
   1   14    3     1     3    1.0785E+05 -3.8998E+03   1.1175E+05  0.000E+00  0.000E+00  0.000E+00  4.74598E+01  1.530E-01  2.000E+01  2.000E+04 -1.950E-01
   1   15    4     1     4    1.1175E+05 -3.7246E+03   1.1547E+05  0.000E+00  0.000E+00  0.000E+00  4.69857E+01  1.562E-01  2.000E+01  2.000E+04 -1.862E-01
   1   16    5     1     5    1.1547E+05 -3.8363E+03   1.1931E+05  0.000E+00  0.000E+00  0.000E+00  4.65115E+01  1.593E-01  2.000E+01  2.000E+04 -1.918E-01
   1   16    6     1     6    1.1931E+05 -2.9953E+03   1.2230E+05  0.000E+00  0.000E+00  0.000E+00  4.60370E+01  1.620E-01  2.000E+01  2.000E+04 -1.498E-01
   1   16    7     1     7    1.2230E+05 -2.9801E+03   1.2528E+05  0.000E+00  0.000E+00  0.000E+00  4.55621E+01  1.644E-01  2.000E+01  2.000E+04 -1.490E-01
   1   16    8     1     8    1.2528E+05 -2.9041E+03   1.2819E+05  0.000E+00  0.000E+00  0.000E+00  4.50872E+01  1.667E-01  2.000E+01  2.000E+04 -1.452E-01
   1   16    9     1     9    1.2819E+05 -2.7586E+03   1.3095E+05  0.000E+00  0.000E+00  0.000E+00  4.46122E+01  1.690E-01  2.000E+01  2.000E+04 -1.379E-01
   1   16   10     1    10    1.3095E+05 -2.5499E+03   1.3350E+05  0.000E+00  0.000E+00  0.000E+00  4.41370E+01  1.710E-01  2.000E+01  2.000E+04 -1.275E-01
   1   16   11     1    11    1.3350E+05 -2.2871E+03   1.3578E+05  0.000E+00  0.000E+00  0.000E+00  4.36615E+01  1.729E-01  2.000E+01  2.000E+04 -1.144E-01
   1   16   12     1    12    1.3578E+05 -2.4197E+03   1.3820E+05  0.000E+00  0.000E+00  0.000E+00  4.31861E+01  1.747E-01  2.000E+01  2.000E+04 -1.210E-01
   1   15   13     1    13    1.3820E+05 -2.8209E+03   1.4102E+05  0.000E+00  0.000E+00  0.000E+00  4.27108E+01  1.767E-01  2.000E+01  2.000E+04 -1.410E-01
   1   14   14     1    14    1.4102E+05 -3.2453E+03   1.4427E+05  0.000E+00  0.000E+00  0.000E+00  4.22358E+01  1.790E-01  2.000E+01  2.000E+04 -1.623E-01
   1   13   15     1    15    1.4427E+05 -3.8375E+03   1.4811E+05  0.000E+00  0.000E+00  0.000E+00  4.17612E+01  1.817E-01  2.000E+01  2.000E+04 -1.919E-01
   1   12   16     1    16    1.4811E+05 -5.3793E+03   1.5349E+05  0.000E+00  0.000E+00  0.000E+00  4.12874E+01  1.851E-01  2.000E+01  2.000E+04 -2.690E-01
   1   12   17     1    17    1.5349E+05 -3.3894E+03   1.5687E+05  0.000E+00  0.000E+00  0.000E+00  4.08133E+01  1.883E-01  2.000E+01  2.000E+04 -1.695E-01
   1   12   18     1    18    1.5687E+05 -3.2475E+03   1.6012E+05  0.000E+00  0.000E+00  0.000E+00  4.03384E+01  1.907E-01  2.000E+01  2.000E+04 -1.624E-01
   1   12   19     1    19    1.6012E+05 -4.3969E+03   1.6452E+05  0.000E+00  0.000E+00  0.000E+00  3.98639E+01  1.934E-01  2.000E+01  2.000E+04 -2.198E-01
   1   13   20     1    20    1.6452E+05 -2.4902E+03   1.6701E+05  0.000E+00  0.000E+00  0.000E+00  3.93891E+01  1.959E-01  2.000E+01  2.000E+04 -1.245E-01
   1   14   21     1    21    1.6701E+05 -1.3083E+03   1.6832E+05  0.000E+00  0.000E+00  0.000E+00  3.89131E+01  1.972E-01  2.000E+01  2.000E+04 -6.541E-02
   1   14   22     1    22    1.6832E+05  5.1340E+03   1.6318E+05  0.000E+00  0.000E+00  0.000E+00  3.84345E+01  1.959E-01  2.000E+01  2.000E+04  2.567E-01
   1    9   30     2     1    5.0000E+04 -2.8028E+03   5.2803E+04  0.000E+00  0.000E+00  0.000E+00  4.02428E+01  1.178E-01  2.000E+01  2.000E+04 -1.401E-01
   1    9   29     2     2    5.2803E+04 -3.1353E+03   5.5938E+04  0.000E+00  0.000E+00  0.000E+00  3.99968E+01  1.218E-01  2.000E+01  2.000E+04 -1.568E-01
   1    9   28     2     3    5.5938E+04 -3.5182E+03   5.9456E+04  0.000E+00  0.000E+00  0.000E+00  3.97513E+01  1.263E-01  2.000E+01  2.000E+04 -1.759E-01
   1    9   27     2     4    5.9456E+04 -6.2674E+03   6.5724E+04  0.000E+00  0.000E+00  0.000E+00  3.95076E+01  1.326E-01  2.000E+01  2.000E+04 -3.134E-01
   1   10   26     2     5    6.5724E+04 -3.8971E+03   6.9621E+04  0.000E+00  0.000E+00  0.000E+00  3.92639E+01  1.389E-01  2.000E+01  2.000E+04 -1.949E-01
   1   11   25     2     6    6.9621E+04 -2.8507E+03   7.2471E+04  0.000E+00  0.000E+00  0.000E+00  3.90181E+01  1.431E-01  2.000E+01  2.000E+04 -1.425E-01
   1   12   24     2     7    7.2471E+04 -1.9987E+03   7.4470E+04  0.000E+00  0.000E+00  0.000E+00  3.87710E+01  1.460E-01  2.000E+01  2.000E+04 -9.993E-02
   1   13   23     2     8    7.4470E+04 -1.1626E+03   7.5633E+04  0.000E+00  0.000E+00  0.000E+00  3.85228E+01  1.478E-01  2.000E+01  2.000E+04 -5.813E-02
   1   14   22     2     9    7.5633E+04  1.8918E+03   7.3741E+04  0.000E+00  0.000E+00  0.000E+00  3.82724E+01  1.474E-01  2.000E+01  2.000E+04  9.459E-02
   1   14   22     3     1    2.3692E+05 -8.3747E+03   2.4530E+05  0.000E+00  0.000E+00  0.000E+00  3.77591E+01  2.035E-01  2.000E+01  2.000E+04 -4.187E-01
   1   15   23     3     2    2.4530E+05 -1.8438E+03   2.4714E+05  0.000E+00  0.000E+00  0.000E+00  3.68728E+01  2.061E-01  2.000E+01  2.000E+04 -9.219E-02
   1   15   24     3     3    2.4714E+05 -1.5108E+03   2.4865E+05  0.000E+00  0.000E+00  0.000E+00  3.59847E+01  2.069E-01  2.000E+01  2.000E+04 -7.554E-02
   1   15   25     3     4    2.4865E+05 -1.5688E+03   2.5022E+05  0.000E+00  0.000E+00  0.000E+00  3.50966E+01  2.077E-01  2.000E+01  2.000E+04 -7.844E-02
   1   15   26     3     5    2.5022E+05 -2.1027E+03   2.5233E+05  0.000E+00  0.000E+00  0.000E+00  3.42086E+01  2.086E-01  2.000E+01  2.000E+04 -1.051E-01
   1   16   27     3     6    2.5233E+05 -2.7951E+03   2.5512E+05  0.000E+00  0.000E+00  0.000E+00  3.33210E+01  2.099E-01  2.000E+01  2.000E+04 -1.398E-01
   1   17   28     3     7    2.5512E+05 -3.5944E+03   2.5872E+05  0.000E+00  0.000E+00  0.000E+00  3.24337E+01  2.114E-01  2.000E+01  2.000E+04 -1.797E-01
   1   18   29     3     8    2.5872E+05 -5.2518E+03   2.6397E+05  0.000E+00  0.000E+00  0.000E+00  3.15469E+01  2.136E-01  2.000E+01  2.000E+04 -2.626E-01
   1   18   30     3     9    2.6397E+05 -4.6064E+03   2.6857E+05  0.000E+00  0.000E+00  0.000E+00  3.06605E+01  2.160E-01  2.000E+01  2.000E+04 -2.303E-01



1
              HEAD IN LAYER   1 AT END OF TIME STEP   1 IN STRESS PERIOD    4
  ---------------------------------------------------------------------------

          1      2      3      4      5      6      7      8      9     10
         11     12     13     14     15     16     17     18     19     20
         21     22     23     24     25     26     27     28     29     30
 .........................................................................
   1  ****** ****** ****** ****** ****** ****** ****** ****** ****** ******
      ****** ****** ****** ****** ****** ****** ****** ****** ****** ******
      ****** ****** ****** ****** ****** ****** ****** ****** ****** ******
   2  ****** ****** ****** ****** ****** ****** ****** ****** ****** ******
      ****** ****** ****** ****** ****** ****** ****** ****** ****** ******
      ****** ****** ****** ****** ****** ****** ****** ****** ****** ******
   3  ****** ****** ****** ****** ****** ****** ****** ****** ****** ******
      ****** ****** ****** ****** ****** ****** ****** ****** ****** ******
      ****** ****** ****** ****** ****** ****** ****** ****** ****** ******
   4  ****** ****** ****** ****** ****** ****** ****** ****** ****** ******
      ****** ****** ****** ****** ****** ****** ****** ****** ****** ******
      ****** ****** ****** ****** ****** ****** ****** ****** ****** ******
   5  ****** ****** ****** ****** ****** ****** ****** ****** ****** ******
      ****** ****** ****** ****** ****** ****** ****** ****** ****** ******
      ****** ****** ****** ****** ****** ****** ****** ****** ****** ******
   6  ****** ****** ****** ****** ****** ****** ****** ****** ****** ******
      ****** ****** ****** ****** ****** ****** ****** ****** ****** ******
      ****** ****** ****** ****** ****** ****** ****** ****** ****** ******
   7  ****** ****** ****** ****** ****** ****** ****** ****** ****** ******
      ****** ****** ****** ****** ****** ****** ****** ****** ****** ******
      ****** ****** ****** ****** ****** ****** ****** ****** ****** ******
   8  ****** ****** ****** ****** ****** ****** ****** ****** ****** ******
      ****** ****** ****** ****** ****** ****** ****** ****** ****** ******
      ****** ****** ****** ****** ****** ****** ****** ****** ****** ******
   9  ****** ****** ****** ****** ****** ****** ****** ****** ****** ******
      ****** ****** ****** ****** ****** ****** ****** ****** ****** ******
      ****** ****** ****** ****** ****** ****** ****** ****** ****** ******
  10  ****** ****** ****** ****** ****** ****** ****** ****** ****** ******
      ****** ****** ****** ****** ****** ****** ****** ****** ****** ******
      ****** ****** ****** ****** ****** ****** ****** ****** ****** ******
  11  ****** ****** ****** ****** ****** ****** ****** ****** ****** ******
      ****** ****** ****** ****** ****** ****** ****** ****** ****** ******
      ****** ****** ****** ****** ****** ****** ****** ****** ****** ******
  12  ****** ****** ****** ****** ****** ****** ****** ****** ****** ******
      ****** ****** ****** ****** ****** ****** ****** ****** ****** ******
      ****** ****** ****** ****** ****** ****** ****** ****** ****** ******
  13  ****** ****** ****** ****** ****** ****** ****** ****** ****** ******
      ****** ****** ****** ****** ****** ****** ****** ****** ****** ******
      ****** ****** ****** ****** ****** ****** ****** ****** ****** ******
  14  ****** ****** ****** ****** ****** ****** ****** ****** ****** ******
      ****** ****** ****** ****** ****** ****** ****** ****** ****** ******
      ****** ****** ****** ****** ****** ****** ****** ****** ****** ******
  15  ****** ****** ****** ****** ****** ****** ****** ****** ****** ******
      ****** ****** ****** ****** ****** ****** ****** ****** ****** ******
      ****** ****** ****** ****** ****** ****** ****** ****** ****** ******
  16  ****** ****** ****** ****** ****** ****** ****** ****** ****** ******
      ****** ****** ****** ****** ****** ****** ****** ****** ****** ******
      ****** ****** ****** ****** ****** ****** ****** ****** ****** ******
  17  ****** ****** ****** ****** ****** ****** ****** ****** ****** ******
      ****** ****** ****** ****** ****** ****** ****** ****** ****** ******
      ****** ****** ****** ****** ****** ****** ****** ****** ****** ******
  18  ****** ****** ****** ****** ****** ****** ****** ****** ****** ******
      ****** ****** ****** ****** ****** ****** ****** ****** ****** ******
      ****** ****** ****** ****** ****** ****** ****** ****** ****** ******
  19  ****** ****** ****** ****** ****** ****** ****** ****** ****** ******
      ****** ****** ****** ****** ****** ****** ****** ****** ****** ******
      ****** ****** ****** ****** ****** ****** ****** ****** ****** ******
  20  ****** ****** ****** ****** ****** ****** ****** ****** ****** ******
      ****** ****** ****** ****** ****** ****** ****** ****** ****** ******
      ****** ****** ****** ****** ****** ****** ****** ****** ****** ******
  21  ****** ****** ****** ****** ****** ****** ****** ****** ****** ******
      ****** ****** ****** ****** ****** ****** ****** ****** ****** ******
      ****** ****** ****** ****** ****** ****** ****** ****** ****** ******
  22  ****** ****** ****** ****** ****** ****** ****** ****** ****** ******
      ****** ****** ****** ****** ****** ****** ****** ****** ****** ******
      ****** ****** ****** ****** ****** ****** ****** ****** ****** ******
  23  ****** ****** ****** ****** ****** ****** ****** ****** ****** ******
      ****** ****** ****** ****** ****** ****** ****** ****** ****** ******
      ****** ****** ****** ****** ****** ****** ****** ****** ****** ******
  24  ****** ****** ****** ****** ****** ****** ****** ****** ****** ******
      ****** ****** ****** ****** ****** ****** ****** ****** ****** ******
      ****** ****** ****** ****** ****** ****** ****** ****** ****** ******
  25  ****** ****** ****** ****** ****** ****** ****** ****** ****** ******
      ****** ****** ****** ****** ****** ****** ****** ****** ****** ******
      ****** ****** ****** ****** ****** ****** ****** ****** ****** ******

 HEAD WILL BE SAVED ON UNIT   51 AT END OF TIME STEP    1, STRESS PERIOD    4
1
  VOLUMETRIC BUDGET FOR ENTIRE MODEL AT END OF TIME STEP    1, STRESS PERIOD   4
  ------------------------------------------------------------------------------

     CUMULATIVE VOLUMES      L**3       RATES FOR THIS TIME STEP      L**3/T
     ------------------                 ------------------------

           IN:                                      IN:
           ---                                      ---
             STORAGE =    23025630.9219               STORAGE =        1566.5521
       CONSTANT HEAD =    61183118.2178         CONSTANT HEAD =      184643.4759
               WELLS =           0.0000                 WELLS =           0.0000
            RECHARGE =     8804400.0000              RECHARGE =       27600.0000
      STREAM LEAKAGE =     2354785.5100        STREAM LEAKAGE =        7025.7504

            TOTAL IN =    95367934.6497              TOTAL IN =      220835.7784

          OUT:                                     OUT:
          ----                                     ----
             STORAGE =       22143.5254               STORAGE =         243.3354
       CONSTANT HEAD =           0.0000         CONSTANT HEAD =           0.0000
               WELLS =    34672604.9109                 WELLS =       94993.4381
            RECHARGE =           0.0000              RECHARGE =           0.0000
      STREAM LEAKAGE =    60673186.8831        STREAM LEAKAGE =      125599.0032

           TOTAL OUT =    95367935.3194             TOTAL OUT =      220835.7768

            IN - OUT =          -0.6698              IN - OUT =       1.6829E-03

 PERCENT DISCREPANCY =          -0.00     PERCENT DISCREPANCY =           0.00






         TIME SUMMARY AT END OF TIME STEP    1 IN STRESS PERIOD    4
                    SECONDS     MINUTES      HOURS       DAYS        YEARS
                    -----------------------------------------------------------
   TIME STEP LENGTH 7.86240E+06 1.31040E+05  2184.0      91.000     0.24914    
 STRESS PERIOD TIME 7.86240E+06 1.31040E+05  2184.0      91.000     0.24914    
         TOTAL TIME 3.15360E+07 5.25600E+05  8760.0      365.00     0.99932    
1
1
                            STRESS PERIOD NO.    5, LENGTH =   92.00000    
                            -----------------------------------------------

                              NUMBER OF TIME STEPS =     1

                               MULTIPLIER FOR DELT =     1.500

                            INITIAL TIME STEP SIZE =   92.00000    

 WELL NO.  LAYER   ROW   COL   STRESS RATE         
 --------------------------------------------------
      1      1     23     21     -0.3179E+05
      2      1     23     12     -0.3278E+05
      3      1     23     17     -0.3042E+05

      3 WELLS

                 RECHARGE =  5.000000E-04

 REUSING STREAM SEGMENT DATA FROM LAST STRESS PERIOD
 
 SOLVING FOR HEAD 


     6 CALLS TO PCG ROUTINE FOR TIME STEP   1 IN STRESS PERIOD    5
    23 TOTAL ITERATIONS

 OUTPUT CONTROL FOR STRESS PERIOD    5   TIME STEP    1
    SAVE BUDGET
    SAVE HEAD FOR ALL LAYERS
    PRINT HEAD FOR ALL LAYERS
 UBDSV2 SAVING "STREAMFLOW OUT  " ON UNIT  50 AT TIME STEP  1, STRESS PERIOD   5



 STREAM LISTING     PERIOD      5   STEP        1

 LAYER ROW COL. STREAM  RCH.  FLOW INTO     FLOW TO   FLOW OUT OF   OVRLND.     DIRECT     STREAM       STREAM     STREAM     STREAM   STREAMBED  STREAMBED
                SEG.NO.  NO.  STRM. RCH.    AQUIFER    STRM. RCH.    RUNOFF     PRECIP       ET          HEAD       DEPTH      WIDTH   CONDCTNC.   GRADIENT

   1   13    1     1     1    1.0000E+05 -2.7525E+03   1.0275E+05  0.000E+00  0.000E+00  0.000E+00  4.84072E+01  1.458E-01  2.000E+01  2.000E+04 -1.376E-01
   1   13    2     1     2    1.0275E+05 -4.6794E+03   1.0743E+05  0.000E+00  0.000E+00  0.000E+00  4.79331E+01  1.490E-01  2.000E+01  2.000E+04 -2.340E-01
   1   14    3     1     3    1.0743E+05 -3.6742E+03   1.1111E+05  0.000E+00  0.000E+00  0.000E+00  4.74594E+01  1.526E-01  2.000E+01  2.000E+04 -1.837E-01
   1   15    4     1     4    1.1111E+05 -3.5090E+03   1.1462E+05  0.000E+00  0.000E+00  0.000E+00  4.69851E+01  1.555E-01  2.000E+01  2.000E+04 -1.755E-01
   1   16    5     1     5    1.1462E+05 -3.6458E+03   1.1826E+05  0.000E+00  0.000E+00  0.000E+00  4.65108E+01  1.585E-01  2.000E+01  2.000E+04 -1.823E-01
   1   16    6     1     6    1.1826E+05 -2.8392E+03   1.2110E+05  0.000E+00  0.000E+00  0.000E+00  4.60361E+01  1.611E-01  2.000E+01  2.000E+04 -1.420E-01
   1   16    7     1     7    1.2110E+05 -2.8192E+03   1.2392E+05  0.000E+00  0.000E+00  0.000E+00  4.55611E+01  1.634E-01  2.000E+01  2.000E+04 -1.410E-01
   1   16    8     1     8    1.2392E+05 -2.7403E+03   1.2666E+05  0.000E+00  0.000E+00  0.000E+00  4.50861E+01  1.656E-01  2.000E+01  2.000E+04 -1.370E-01
   1   16    9     1     9    1.2666E+05 -2.5939E+03   1.2925E+05  0.000E+00  0.000E+00  0.000E+00  4.46109E+01  1.677E-01  2.000E+01  2.000E+04 -1.297E-01
   1   16   10     1    10    1.2925E+05 -2.3860E+03   1.3164E+05  0.000E+00  0.000E+00  0.000E+00  4.41356E+01  1.697E-01  2.000E+01  2.000E+04 -1.193E-01
   1   16   11     1    11    1.3164E+05 -2.1248E+03   1.3376E+05  0.000E+00  0.000E+00  0.000E+00  4.36601E+01  1.714E-01  2.000E+01  2.000E+04 -1.062E-01
   1   16   12     1    12    1.3376E+05 -2.2078E+03   1.3597E+05  0.000E+00  0.000E+00  0.000E+00  4.31845E+01  1.731E-01  2.000E+01  2.000E+04 -1.104E-01
   1   15   13     1    13    1.3597E+05 -2.5872E+03   1.3856E+05  0.000E+00  0.000E+00  0.000E+00  4.27090E+01  1.749E-01  2.000E+01  2.000E+04 -1.294E-01
   1   14   14     1    14    1.3856E+05 -3.0057E+03   1.4156E+05  0.000E+00  0.000E+00  0.000E+00  4.22339E+01  1.771E-01  2.000E+01  2.000E+04 -1.503E-01
   1   13   15     1    15    1.4156E+05 -3.6016E+03   1.4517E+05  0.000E+00  0.000E+00  0.000E+00  4.17591E+01  1.796E-01  2.000E+01  2.000E+04 -1.801E-01
   1   12   16     1    16    1.4517E+05 -5.1507E+03   1.5032E+05  0.000E+00  0.000E+00  0.000E+00  4.12851E+01  1.828E-01  2.000E+01  2.000E+04 -2.575E-01
   1   12   17     1    17    1.5032E+05 -3.2271E+03   1.5354E+05  0.000E+00  0.000E+00  0.000E+00  4.08109E+01  1.859E-01  2.000E+01  2.000E+04 -1.614E-01
   1   12   18     1    18    1.5354E+05 -3.0914E+03   1.5664E+05  0.000E+00  0.000E+00  0.000E+00  4.03360E+01  1.882E-01  2.000E+01  2.000E+04 -1.546E-01
   1   12   19     1    19    1.5664E+05 -4.2118E+03   1.6085E+05  0.000E+00  0.000E+00  0.000E+00  3.98613E+01  1.909E-01  2.000E+01  2.000E+04 -2.106E-01
   1   13   20     1    20    1.6085E+05 -2.3121E+03   1.6316E+05  0.000E+00  0.000E+00  0.000E+00  3.93864E+01  1.932E-01  2.000E+01  2.000E+04 -1.156E-01
   1   14   21     1    21    1.6316E+05 -1.1381E+03   1.6430E+05  0.000E+00  0.000E+00  0.000E+00  3.89104E+01  1.944E-01  2.000E+01  2.000E+04 -5.691E-02
   1   14   22     1    22    1.6430E+05  5.1605E+03   1.5914E+05  0.000E+00  0.000E+00  0.000E+00  3.84316E+01  1.930E-01  2.000E+01  2.000E+04  2.580E-01
   1    9   30     2     1    5.0000E+04 -2.6873E+03   5.2687E+04  0.000E+00  0.000E+00  0.000E+00  4.02427E+01  1.177E-01  2.000E+01  2.000E+04 -1.344E-01
   1    9   29     2     2    5.2687E+04 -3.0202E+03   5.5708E+04  0.000E+00  0.000E+00  0.000E+00  3.99966E+01  1.216E-01  2.000E+01  2.000E+04 -1.510E-01
   1    9   28     2     3    5.5708E+04 -3.4023E+03   5.9110E+04  0.000E+00  0.000E+00  0.000E+00  3.97509E+01  1.259E-01  2.000E+01  2.000E+04 -1.701E-01
   1    9   27     2     4    5.9110E+04 -6.1063E+03   6.5216E+04  0.000E+00  0.000E+00  0.000E+00  3.95070E+01  1.320E-01  2.000E+01  2.000E+04 -3.053E-01
   1   10   26     2     5    6.5216E+04 -3.7312E+03   6.8947E+04  0.000E+00  0.000E+00  0.000E+00  3.92632E+01  1.382E-01  2.000E+01  2.000E+04 -1.866E-01
   1   11   25     2     6    6.8947E+04 -2.6911E+03   7.1638E+04  0.000E+00  0.000E+00  0.000E+00  3.90171E+01  1.421E-01  2.000E+01  2.000E+04 -1.346E-01
   1   12   24     2     7    7.1638E+04 -1.8567E+03   7.3495E+04  0.000E+00  0.000E+00  0.000E+00  3.87699E+01  1.449E-01  2.000E+01  2.000E+04 -9.284E-02
   1   13   23     2     8    7.3495E+04 -1.0513E+03   7.4546E+04  0.000E+00  0.000E+00  0.000E+00  3.85216E+01  1.466E-01  2.000E+01  2.000E+04 -5.256E-02
   1   14   22     2     9    7.4546E+04  1.9492E+03   7.2597E+04  0.000E+00  0.000E+00  0.000E+00  3.82711E+01  1.461E-01  2.000E+01  2.000E+04  9.746E-02
   1   14   22     3     1    2.3173E+05 -8.3437E+03   2.4008E+05  0.000E+00  0.000E+00  0.000E+00  3.77564E+01  2.009E-01  2.000E+01  2.000E+04 -4.172E-01
   1   15   23     3     2    2.4008E+05 -1.6854E+03   2.4176E+05  0.000E+00  0.000E+00  0.000E+00  3.68701E+01  2.034E-01  2.000E+01  2.000E+04 -8.427E-02
   1   15   24     3     3    2.4176E+05 -1.4037E+03   2.4317E+05  0.000E+00  0.000E+00  0.000E+00  3.59820E+01  2.042E-01  2.000E+01  2.000E+04 -7.019E-02
   1   15   25     3     4    2.4317E+05 -1.4663E+03   2.4463E+05  0.000E+00  0.000E+00  0.000E+00  3.50938E+01  2.049E-01  2.000E+01  2.000E+04 -7.332E-02
   1   15   26     3     5    2.4463E+05 -1.9792E+03   2.4661E+05  0.000E+00  0.000E+00  0.000E+00  3.42058E+01  2.058E-01  2.000E+01  2.000E+04 -9.896E-02
   1   16   27     3     6    2.4661E+05 -2.6346E+03   2.4925E+05  0.000E+00  0.000E+00  0.000E+00  3.33181E+01  2.070E-01  2.000E+01  2.000E+04 -1.317E-01
   1   17   28     3     7    2.4925E+05 -3.4301E+03   2.5268E+05  0.000E+00  0.000E+00  0.000E+00  3.24307E+01  2.085E-01  2.000E+01  2.000E+04 -1.715E-01
   1   18   29     3     8    2.5268E+05 -5.0958E+03   2.5777E+05  0.000E+00  0.000E+00  0.000E+00  3.15439E+01  2.106E-01  2.000E+01  2.000E+04 -2.548E-01
   1   18   30     3     9    2.5777E+05 -4.4933E+03   2.6227E+05  0.000E+00  0.000E+00  0.000E+00  3.06574E+01  2.130E-01  2.000E+01  2.000E+04 -2.247E-01



1
              HEAD IN LAYER   1 AT END OF TIME STEP   1 IN STRESS PERIOD    5
  ---------------------------------------------------------------------------

          1      2      3      4      5      6      7      8      9     10
         11     12     13     14     15     16     17     18     19     20
         21     22     23     24     25     26     27     28     29     30
 .........................................................................
   1  ****** ****** ****** ****** ****** ****** ****** ****** ****** ******
      ****** ****** ****** ****** ****** ****** ****** ****** ****** ******
      ****** ****** ****** ****** ****** ****** ****** ****** ****** ******
   2  ****** ****** ****** ****** ****** ****** ****** ****** ****** ******
      ****** ****** ****** ****** ****** ****** ****** ****** ****** ******
      ****** ****** ****** ****** ****** ****** ****** ****** ****** ******
   3  ****** ****** ****** ****** ****** ****** ****** ****** ****** ******
      ****** ****** ****** ****** ****** ****** ****** ****** ****** ******
      ****** ****** ****** ****** ****** ****** ****** ****** ****** ******
   4  ****** ****** ****** ****** ****** ****** ****** ****** ****** ******
      ****** ****** ****** ****** ****** ****** ****** ****** ****** ******
      ****** ****** ****** ****** ****** ****** ****** ****** ****** ******
   5  ****** ****** ****** ****** ****** ****** ****** ****** ****** ******
      ****** ****** ****** ****** ****** ****** ****** ****** ****** ******
      ****** ****** ****** ****** ****** ****** ****** ****** ****** ******
   6  ****** ****** ****** ****** ****** ****** ****** ****** ****** ******
      ****** ****** ****** ****** ****** ****** ****** ****** ****** ******
      ****** ****** ****** ****** ****** ****** ****** ****** ****** ******
   7  ****** ****** ****** ****** ****** ****** ****** ****** ****** ******
      ****** ****** ****** ****** ****** ****** ****** ****** ****** ******
      ****** ****** ****** ****** ****** ****** ****** ****** ****** ******
   8  ****** ****** ****** ****** ****** ****** ****** ****** ****** ******
      ****** ****** ****** ****** ****** ****** ****** ****** ****** ******
      ****** ****** ****** ****** ****** ****** ****** ****** ****** ******
   9  ****** ****** ****** ****** ****** ****** ****** ****** ****** ******
      ****** ****** ****** ****** ****** ****** ****** ****** ****** ******
      ****** ****** ****** ****** ****** ****** ****** ****** ****** ******
  10  ****** ****** ****** ****** ****** ****** ****** ****** ****** ******
      ****** ****** ****** ****** ****** ****** ****** ****** ****** ******
      ****** ****** ****** ****** ****** ****** ****** ****** ****** ******
  11  ****** ****** ****** ****** ****** ****** ****** ****** ****** ******
      ****** ****** ****** ****** ****** ****** ****** ****** ****** ******
      ****** ****** ****** ****** ****** ****** ****** ****** ****** ******
  12  ****** ****** ****** ****** ****** ****** ****** ****** ****** ******
      ****** ****** ****** ****** ****** ****** ****** ****** ****** ******
      ****** ****** ****** ****** ****** ****** ****** ****** ****** ******
  13  ****** ****** ****** ****** ****** ****** ****** ****** ****** ******
      ****** ****** ****** ****** ****** ****** ****** ****** ****** ******
      ****** ****** ****** ****** ****** ****** ****** ****** ****** ******
  14  ****** ****** ****** ****** ****** ****** ****** ****** ****** ******
      ****** ****** ****** ****** ****** ****** ****** ****** ****** ******
      ****** ****** ****** ****** ****** ****** ****** ****** ****** ******
  15  ****** ****** ****** ****** ****** ****** ****** ****** ****** ******
      ****** ****** ****** ****** ****** ****** ****** ****** ****** ******
      ****** ****** ****** ****** ****** ****** ****** ****** ****** ******
  16  ****** ****** ****** ****** ****** ****** ****** ****** ****** ******
      ****** ****** ****** ****** ****** ****** ****** ****** ****** ******
      ****** ****** ****** ****** ****** ****** ****** ****** ****** ******
  17  ****** ****** ****** ****** ****** ****** ****** ****** ****** ******
      ****** ****** ****** ****** ****** ****** ****** ****** ****** ******
      ****** ****** ****** ****** ****** ****** ****** ****** ****** ******
  18  ****** ****** ****** ****** ****** ****** ****** ****** ****** ******
      ****** ****** ****** ****** ****** ****** ****** ****** ****** ******
      ****** ****** ****** ****** ****** ****** ****** ****** ****** ******
  19  ****** ****** ****** ****** ****** ****** ****** ****** ****** ******
      ****** ****** ****** ****** ****** ****** ****** ****** ****** ******
      ****** ****** ****** ****** ****** ****** ****** ****** ****** ******
  20  ****** ****** ****** ****** ****** ****** ****** ****** ****** ******
      ****** ****** ****** ****** ****** ****** ****** ****** ****** ******
      ****** ****** ****** ****** ****** ****** ****** ****** ****** ******
  21  ****** ****** ****** ****** ****** ****** ****** ****** ****** ******
      ****** ****** ****** ****** ****** ****** ****** ****** ****** ******
      ****** ****** ****** ****** ****** ****** ****** ****** ****** ******
  22  ****** ****** ****** ****** ****** ****** ****** ****** ****** ******
      ****** ****** ****** ****** ****** ****** ****** ****** ****** ******
      ****** ****** ****** ****** ****** ****** ****** ****** ****** ******
  23  ****** ****** ****** ****** ****** ****** ****** ****** ****** ******
      ****** ****** ****** ****** ****** ****** ****** ****** ****** ******
      ****** ****** ****** ****** ****** ****** ****** ****** ****** ******
  24  ****** ****** ****** ****** ****** ****** ****** ****** ****** ******
      ****** ****** ****** ****** ****** ****** ****** ****** ****** ******
      ****** ****** ****** ****** ****** ****** ****** ****** ****** ******
  25  ****** ****** ****** ****** ****** ****** ****** ****** ****** ******
      ****** ****** ****** ****** ****** ****** ****** ****** ****** ******
      ****** ****** ****** ****** ****** ****** ****** ****** ****** ******

 HEAD WILL BE SAVED ON UNIT   51 AT END OF TIME STEP    1, STRESS PERIOD    5
1
  VOLUMETRIC BUDGET FOR ENTIRE MODEL AT END OF TIME STEP    1, STRESS PERIOD   5
  ------------------------------------------------------------------------------

     CUMULATIVE VOLUMES      L**3       RATES FOR THIS TIME STEP      L**3/T
     ------------------                 ------------------------

           IN:                                      IN:
           ---                                      ---
             STORAGE =    23436957.2310               STORAGE =        4470.9381
       CONSTANT HEAD =    78570111.9572         CONSTANT HEAD =      188989.0624
               WELLS =           0.0000                 WELLS =           0.0000
            RECHARGE =    10074000.0000              RECHARGE =       13800.0000
      STREAM LEAKAGE =     3008879.4104        STREAM LEAKAGE =        7109.7163

            TOTAL IN =   115089948.5986              TOTAL IN =      214369.7168

          OUT:                                     OUT:
          ----                                     ----
             STORAGE =       22143.5254               STORAGE =           0.0000
       CONSTANT HEAD =           0.0000         CONSTANT HEAD =           0.0000
               WELLS =    43412001.2172                 WELLS =       94993.4381
            RECHARGE =           0.0000              RECHARGE =           0.0000
      STREAM LEAKAGE =    71655804.5956        STREAM LEAKAGE =      119376.2795

           TOTAL OUT =   115089949.3382             TOTAL OUT =      214369.7176

            IN - OUT =          -0.7397              IN - OUT =      -7.5981E-04

 PERCENT DISCREPANCY =          -0.00     PERCENT DISCREPANCY =          -0.00






         TIME SUMMARY AT END OF TIME STEP    1 IN STRESS PERIOD    5
                    SECONDS     MINUTES      HOURS       DAYS        YEARS
                    -----------------------------------------------------------
   TIME STEP LENGTH 7.94880E+06 1.32480E+05  2208.0      92.000     0.25188    
 STRESS PERIOD TIME 7.94880E+06 1.32480E+05  2208.0      92.000     0.25188    
         TOTAL TIME 3.94848E+07 6.58080E+05  10968.      457.00      1.2512    
1
1
                            STRESS PERIOD NO.    6, LENGTH =   91.00000    
                            -----------------------------------------------

                              NUMBER OF TIME STEPS =     1

                               MULTIPLIER FOR DELT =     1.500

                            INITIAL TIME STEP SIZE =   91.00000    

 WELL NO.  LAYER   ROW   COL   STRESS RATE         
 --------------------------------------------------
      1      1     23     21     -0.3179E+05
      2      1     23     12     -0.3278E+05
      3      1     23     17     -0.3042E+05

      3 WELLS

                 RECHARGE =  2.000000E-03

 REUSING STREAM SEGMENT DATA FROM LAST STRESS PERIOD
 
 SOLVING FOR HEAD 


     7 CALLS TO PCG ROUTINE FOR TIME STEP   1 IN STRESS PERIOD    6
    26 TOTAL ITERATIONS

 OUTPUT CONTROL FOR STRESS PERIOD    6   TIME STEP    1
    SAVE BUDGET
    SAVE HEAD FOR ALL LAYERS
    PRINT HEAD FOR ALL LAYERS
 UBDSV2 SAVING "STREAMFLOW OUT  " ON UNIT  50 AT TIME STEP  1, STRESS PERIOD   6



 STREAM LISTING     PERIOD      6   STEP        1

 LAYER ROW COL. STREAM  RCH.  FLOW INTO     FLOW TO   FLOW OUT OF   OVRLND.     DIRECT     STREAM       STREAM     STREAM     STREAM   STREAMBED  STREAMBED
                SEG.NO.  NO.  STRM. RCH.    AQUIFER    STRM. RCH.    RUNOFF     PRECIP       ET          HEAD       DEPTH      WIDTH   CONDCTNC.   GRADIENT

   1   13    1     1     1    1.0000E+05 -3.1518E+03   1.0315E+05  0.000E+00  0.000E+00  0.000E+00  4.84074E+01  1.460E-01  2.000E+01  2.000E+04 -1.576E-01
   1   13    2     1     2    1.0315E+05 -5.2048E+03   1.0836E+05  0.000E+00  0.000E+00  0.000E+00  4.79337E+01  1.496E-01  2.000E+01  2.000E+04 -2.602E-01
   1   14    3     1     3    1.0836E+05 -4.2131E+03   1.1257E+05  0.000E+00  0.000E+00  0.000E+00  4.74604E+01  1.536E-01  2.000E+01  2.000E+04 -2.107E-01
   1   15    4     1     4    1.1257E+05 -4.0449E+03   1.1661E+05  0.000E+00  0.000E+00  0.000E+00  4.69865E+01  1.570E-01  2.000E+01  2.000E+04 -2.022E-01
   1   16    5     1     5    1.1661E+05 -4.1428E+03   1.2076E+05  0.000E+00  0.000E+00  0.000E+00  4.65126E+01  1.603E-01  2.000E+01  2.000E+04 -2.071E-01
   1   16    6     1     6    1.2076E+05 -3.2301E+03   1.2399E+05  0.000E+00  0.000E+00  0.000E+00  4.60383E+01  1.633E-01  2.000E+01  2.000E+04 -1.615E-01
   1   16    7     1     7    1.2399E+05 -3.2156E+03   1.2720E+05  0.000E+00  0.000E+00  0.000E+00  4.55636E+01  1.658E-01  2.000E+01  2.000E+04 -1.608E-01
   1   16    8     1     8    1.2720E+05 -3.1399E+03   1.3034E+05  0.000E+00  0.000E+00  0.000E+00  4.50888E+01  1.684E-01  2.000E+01  2.000E+04 -1.570E-01
   1   16    9     1     9    1.3034E+05 -2.9931E+03   1.3334E+05  0.000E+00  0.000E+00  0.000E+00  4.46139E+01  1.707E-01  2.000E+01  2.000E+04 -1.497E-01
   1   16   10     1    10    1.3334E+05 -2.7814E+03   1.3612E+05  0.000E+00  0.000E+00  0.000E+00  4.41389E+01  1.730E-01  2.000E+01  2.000E+04 -1.391E-01
   1   16   11     1    11    1.3612E+05 -2.5148E+03   1.3863E+05  0.000E+00  0.000E+00  0.000E+00  4.36636E+01  1.750E-01  2.000E+01  2.000E+04 -1.257E-01
   1   16   12     1    12    1.3863E+05 -2.7087E+03   1.4134E+05  0.000E+00  0.000E+00  0.000E+00  4.31884E+01  1.770E-01  2.000E+01  2.000E+04 -1.354E-01
   1   15   13     1    13    1.4134E+05 -3.1312E+03   1.4447E+05  0.000E+00  0.000E+00  0.000E+00  4.27133E+01  1.792E-01  2.000E+01  2.000E+04 -1.566E-01
   1   14   14     1    14    1.4447E+05 -3.5596E+03   1.4803E+05  0.000E+00  0.000E+00  0.000E+00  4.22385E+01  1.817E-01  2.000E+01  2.000E+04 -1.780E-01
   1   13   15     1    15    1.4803E+05 -4.1466E+03   1.5218E+05  0.000E+00  0.000E+00  0.000E+00  4.17641E+01  1.846E-01  2.000E+01  2.000E+04 -2.073E-01
   1   12   16     1    16    1.5218E+05 -5.6721E+03   1.5785E+05  0.000E+00  0.000E+00  0.000E+00  4.12904E+01  1.882E-01  2.000E+01  2.000E+04 -2.836E-01
   1   12   17     1    17    1.5785E+05 -3.6167E+03   1.6147E+05  0.000E+00  0.000E+00  0.000E+00  4.08165E+01  1.915E-01  2.000E+01  2.000E+04 -1.808E-01
   1   12   18     1    18    1.6147E+05 -3.4749E+03   1.6494E+05  0.000E+00  0.000E+00  0.000E+00  4.03418E+01  1.941E-01  2.000E+01  2.000E+04 -1.737E-01
   1   12   19     1    19    1.6494E+05 -4.6806E+03   1.6962E+05  0.000E+00  0.000E+00  0.000E+00  3.98674E+01  1.970E-01  2.000E+01  2.000E+04 -2.340E-01
   1   13   20     1    20    1.6962E+05 -2.7691E+03   1.7239E+05  0.000E+00  0.000E+00  0.000E+00  3.93928E+01  1.996E-01  2.000E+01  2.000E+04 -1.385E-01
   1   14   21     1    21    1.7239E+05 -1.5572E+03   1.7395E+05  0.000E+00  0.000E+00  0.000E+00  3.89170E+01  2.011E-01  2.000E+01  2.000E+04 -7.786E-02
   1   14   22     1    22    1.7395E+05  5.0812E+03   1.6887E+05  0.000E+00  0.000E+00  0.000E+00  3.84385E+01  1.999E-01  2.000E+01  2.000E+04  2.541E-01
   1    9   30     2     1    5.0000E+04 -3.0444E+03   5.3044E+04  0.000E+00  0.000E+00  0.000E+00  4.02430E+01  1.180E-01  2.000E+01  2.000E+04 -1.522E-01
   1    9   29     2     2    5.3044E+04 -3.3745E+03   5.6419E+04  0.000E+00  0.000E+00  0.000E+00  3.99973E+01  1.223E-01  2.000E+01  2.000E+04 -1.687E-01
   1    9   28     2     3    5.6419E+04 -3.7543E+03   6.0173E+04  0.000E+00  0.000E+00  0.000E+00  3.97520E+01  1.270E-01  2.000E+01  2.000E+04 -1.877E-01
   1    9   27     2     4    6.0173E+04 -6.5758E+03   6.6749E+04  0.000E+00  0.000E+00  0.000E+00  3.95087E+01  1.337E-01  2.000E+01  2.000E+04 -3.288E-01
   1   10   26     2     5    6.6749E+04 -4.2171E+03   7.0966E+04  0.000E+00  0.000E+00  0.000E+00  3.92654E+01  1.404E-01  2.000E+01  2.000E+04 -2.109E-01
   1   11   25     2     6    7.0966E+04 -3.1560E+03   7.4122E+04  0.000E+00  0.000E+00  0.000E+00  3.90199E+01  1.449E-01  2.000E+01  2.000E+04 -1.578E-01
   1   12   24     2     7    7.4122E+04 -2.2677E+03   7.6390E+04  0.000E+00  0.000E+00  0.000E+00  3.87731E+01  1.481E-01  2.000E+01  2.000E+04 -1.134E-01
   1   13   23     2     8    7.6390E+04 -1.3719E+03   7.7762E+04  0.000E+00  0.000E+00  0.000E+00  3.85252E+01  1.502E-01  2.000E+01  2.000E+04 -6.859E-02
   1   14   22     2     9    7.7762E+04  1.8103E+03   7.5952E+04  0.000E+00  0.000E+00  0.000E+00  3.82750E+01  1.500E-01  2.000E+01  2.000E+04  9.052E-02
   1   14   22     3     1    2.4482E+05 -8.4275E+03   2.5325E+05  0.000E+00  0.000E+00  0.000E+00  3.77631E+01  2.075E-01  2.000E+01  2.000E+04 -4.214E-01
   1   15   23     3     2    2.5325E+05 -2.0767E+03   2.5532E+05  0.000E+00  0.000E+00  0.000E+00  3.68768E+01  2.101E-01  2.000E+01  2.000E+04 -1.038E-01
   1   15   24     3     3    2.5532E+05 -1.6882E+03   2.5701E+05  0.000E+00  0.000E+00  0.000E+00  3.59888E+01  2.111E-01  2.000E+01  2.000E+04 -8.441E-02
   1   15   25     3     4    2.5701E+05 -1.7524E+03   2.5876E+05  0.000E+00  0.000E+00  0.000E+00  3.51008E+01  2.119E-01  2.000E+01  2.000E+04 -8.762E-02
   1   15   26     3     5    2.5876E+05 -2.3493E+03   2.6111E+05  0.000E+00  0.000E+00  0.000E+00  3.42129E+01  2.129E-01  2.000E+01  2.000E+04 -1.175E-01
   1   16   27     3     6    2.6111E+05 -3.0979E+03   2.6421E+05  0.000E+00  0.000E+00  0.000E+00  3.33254E+01  2.143E-01  2.000E+01  2.000E+04 -1.549E-01
   1   17   28     3     7    2.6421E+05 -3.9030E+03   2.6811E+05  0.000E+00  0.000E+00  0.000E+00  3.24382E+01  2.160E-01  2.000E+01  2.000E+04 -1.952E-01
   1   18   29     3     8    2.6811E+05 -5.5392E+03   2.7365E+05  0.000E+00  0.000E+00  0.000E+00  3.15516E+01  2.183E-01  2.000E+01  2.000E+04 -2.770E-01
   1   18   30     3     9    2.7365E+05 -4.8286E+03   2.7848E+05  0.000E+00  0.000E+00  0.000E+00  3.06652E+01  2.208E-01  2.000E+01  2.000E+04 -2.414E-01



1
              HEAD IN LAYER   1 AT END OF TIME STEP   1 IN STRESS PERIOD    6
  ---------------------------------------------------------------------------

          1      2      3      4      5      6      7      8      9     10
         11     12     13     14     15     16     17     18     19     20
         21     22     23     24     25     26     27     28     29     30
 .........................................................................
   1  ****** ****** ****** ****** ****** ****** ****** ****** ****** ******
      ****** ****** ****** ****** ****** ****** ****** ****** ****** ******
      ****** ****** ****** ****** ****** ****** ****** ****** ****** ******
   2  ****** ****** ****** ****** ****** ****** ****** ****** ****** ******
      ****** ****** ****** ****** ****** ****** ****** ****** ****** ******
      ****** ****** ****** ****** ****** ****** ****** ****** ****** ******
   3  ****** ****** ****** ****** ****** ****** ****** ****** ****** ******
      ****** ****** ****** ****** ****** ****** ****** ****** ****** ******
      ****** ****** ****** ****** ****** ****** ****** ****** ****** ******
   4  ****** ****** ****** ****** ****** ****** ****** ****** ****** ******
      ****** ****** ****** ****** ****** ****** ****** ****** ****** ******
      ****** ****** ****** ****** ****** ****** ****** ****** ****** ******
   5  ****** ****** ****** ****** ****** ****** ****** ****** ****** ******
      ****** ****** ****** ****** ****** ****** ****** ****** ****** ******
      ****** ****** ****** ****** ****** ****** ****** ****** ****** ******
   6  ****** ****** ****** ****** ****** ****** ****** ****** ****** ******
      ****** ****** ****** ****** ****** ****** ****** ****** ****** ******
      ****** ****** ****** ****** ****** ****** ****** ****** ****** ******
   7  ****** ****** ****** ****** ****** ****** ****** ****** ****** ******
      ****** ****** ****** ****** ****** ****** ****** ****** ****** ******
      ****** ****** ****** ****** ****** ****** ****** ****** ****** ******
   8  ****** ****** ****** ****** ****** ****** ****** ****** ****** ******
      ****** ****** ****** ****** ****** ****** ****** ****** ****** ******
      ****** ****** ****** ****** ****** ****** ****** ****** ****** ******
   9  ****** ****** ****** ****** ****** ****** ****** ****** ****** ******
      ****** ****** ****** ****** ****** ****** ****** ****** ****** ******
      ****** ****** ****** ****** ****** ****** ****** ****** ****** ******
  10  ****** ****** ****** ****** ****** ****** ****** ****** ****** ******
      ****** ****** ****** ****** ****** ****** ****** ****** ****** ******
      ****** ****** ****** ****** ****** ****** ****** ****** ****** ******
  11  ****** ****** ****** ****** ****** ****** ****** ****** ****** ******
      ****** ****** ****** ****** ****** ****** ****** ****** ****** ******
      ****** ****** ****** ****** ****** ****** ****** ****** ****** ******
  12  ****** ****** ****** ****** ****** ****** ****** ****** ****** ******
      ****** ****** ****** ****** ****** ****** ****** ****** ****** ******
      ****** ****** ****** ****** ****** ****** ****** ****** ****** ******
  13  ****** ****** ****** ****** ****** ****** ****** ****** ****** ******
      ****** ****** ****** ****** ****** ****** ****** ****** ****** ******
      ****** ****** ****** ****** ****** ****** ****** ****** ****** ******
  14  ****** ****** ****** ****** ****** ****** ****** ****** ****** ******
      ****** ****** ****** ****** ****** ****** ****** ****** ****** ******
      ****** ****** ****** ****** ****** ****** ****** ****** ****** ******
  15  ****** ****** ****** ****** ****** ****** ****** ****** ****** ******
      ****** ****** ****** ****** ****** ****** ****** ****** ****** ******
      ****** ****** ****** ****** ****** ****** ****** ****** ****** ******
  16  ****** ****** ****** ****** ****** ****** ****** ****** ****** ******
      ****** ****** ****** ****** ****** ****** ****** ****** ****** ******
      ****** ****** ****** ****** ****** ****** ****** ****** ****** ******
  17  ****** ****** ****** ****** ****** ****** ****** ****** ****** ******
      ****** ****** ****** ****** ****** ****** ****** ****** ****** ******
      ****** ****** ****** ****** ****** ****** ****** ****** ****** ******
  18  ****** ****** ****** ****** ****** ****** ****** ****** ****** ******
      ****** ****** ****** ****** ****** ****** ****** ****** ****** ******
      ****** ****** ****** ****** ****** ****** ****** ****** ****** ******
  19  ****** ****** ****** ****** ****** ****** ****** ****** ****** ******
      ****** ****** ****** ****** ****** ****** ****** ****** ****** ******
      ****** ****** ****** ****** ****** ****** ****** ****** ****** ******
  20  ****** ****** ****** ****** ****** ****** ****** ****** ****** ******
      ****** ****** ****** ****** ****** ****** ****** ****** ****** ******
      ****** ****** ****** ****** ****** ****** ****** ****** ****** ******
  21  ****** ****** ****** ****** ****** ****** ****** ****** ****** ******
      ****** ****** ****** ****** ****** ****** ****** ****** ****** ******
      ****** ****** ****** ****** ****** ****** ****** ****** ****** ******
  22  ****** ****** ****** ****** ****** ****** ****** ****** ****** ******
      ****** ****** ****** ****** ****** ****** ****** ****** ****** ******
      ****** ****** ****** ****** ****** ****** ****** ****** ****** ******
  23  ****** ****** ****** ****** ****** ****** ****** ****** ****** ******
      ****** ****** ****** ****** ****** ****** ****** ****** ****** ******
      ****** ****** ****** ****** ****** ****** ****** ****** ****** ******
  24  ****** ****** ****** ****** ****** ****** ****** ****** ****** ******
      ****** ****** ****** ****** ****** ****** ****** ****** ****** ******
      ****** ****** ****** ****** ****** ****** ****** ****** ****** ******
  25  ****** ****** ****** ****** ****** ****** ****** ****** ****** ******
      ****** ****** ****** ****** ****** ****** ****** ****** ****** ******
      ****** ****** ****** ****** ****** ****** ****** ****** ****** ******

 HEAD WILL BE SAVED ON UNIT   51 AT END OF TIME STEP    1, STRESS PERIOD    6
1
  VOLUMETRIC BUDGET FOR ENTIRE MODEL AT END OF TIME STEP    1, STRESS PERIOD   6
  ------------------------------------------------------------------------------

     CUMULATIVE VOLUMES      L**3       RATES FOR THIS TIME STEP      L**3/T
     ------------------                 ------------------------

           IN:                                      IN:
           ---                                      ---
             STORAGE =    23436957.2310               STORAGE =           0.0000
       CONSTANT HEAD =    94801170.9219         CONSTANT HEAD =      178363.2853
               WELLS =           0.0000                 WELLS =           0.0000
            RECHARGE =    15097200.0000              RECHARGE =       55200.0000
      STREAM LEAKAGE =     3636001.5916        STREAM LEAKAGE =        6891.4525

            TOTAL IN =   136971329.7445              TOTAL IN =      240454.7379

          OUT:                                     OUT:
          ----                                     ----
             STORAGE =      940119.8880               STORAGE =       10087.6523
       CONSTANT HEAD =           0.0000         CONSTANT HEAD =           0.0000
               WELLS =    52056404.0854                 WELLS =       94993.4381
            RECHARGE =           0.0000              RECHARGE =           0.0000
      STREAM LEAKAGE =    83974806.3610        STREAM LEAKAGE =      135373.6458

           TOTAL OUT =   136971330.3344             TOTAL OUT =      240454.7362

            IN - OUT =          -0.5899              IN - OUT =       1.6461E-03

 PERCENT DISCREPANCY =          -0.00     PERCENT DISCREPANCY =           0.00






         TIME SUMMARY AT END OF TIME STEP    1 IN STRESS PERIOD    6
                    SECONDS     MINUTES      HOURS       DAYS        YEARS
                    -----------------------------------------------------------
   TIME STEP LENGTH 7.86240E+06 1.31040E+05  2184.0      91.000     0.24914    
 STRESS PERIOD TIME 7.86240E+06 1.31040E+05  2184.0      91.000     0.24914    
         TOTAL TIME 4.73472E+07 7.89120E+05  13152.      548.00      1.5003    
1
1
                            STRESS PERIOD NO.    7, LENGTH =   91.00000    
                            -----------------------------------------------

                              NUMBER OF TIME STEPS =     1

                               MULTIPLIER FOR DELT =     1.500

                            INITIAL TIME STEP SIZE =   91.00000    

 WELL NO.  LAYER   ROW   COL   STRESS RATE         
 --------------------------------------------------
      1      1     23     21     -0.2847E+05
      2      1     23     12     -0.2965E+05
      3      1     23     17     -0.3172E+05

      3 WELLS

                 RECHARGE =   0.00000    

 REUSING STREAM SEGMENT DATA FROM LAST STRESS PERIOD
 
 SOLVING FOR HEAD 


     7 CALLS TO PCG ROUTINE FOR TIME STEP   1 IN STRESS PERIOD    7
    26 TOTAL ITERATIONS

 OUTPUT CONTROL FOR STRESS PERIOD    7   TIME STEP    1
    SAVE BUDGET
    SAVE HEAD FOR ALL LAYERS
    PRINT HEAD FOR ALL LAYERS
 UBDSV2 SAVING "STREAMFLOW OUT  " ON UNIT  50 AT TIME STEP  1, STRESS PERIOD   7



 STREAM LISTING     PERIOD      7   STEP        1

 LAYER ROW COL. STREAM  RCH.  FLOW INTO     FLOW TO   FLOW OUT OF   OVRLND.     DIRECT     STREAM       STREAM     STREAM     STREAM   STREAMBED  STREAMBED
                SEG.NO.  NO.  STRM. RCH.    AQUIFER    STRM. RCH.    RUNOFF     PRECIP       ET          HEAD       DEPTH      WIDTH   CONDCTNC.   GRADIENT

   1   13    1     1     1    1.0000E+05 -2.6589E+03   1.0266E+05  0.000E+00  0.000E+00  0.000E+00  4.84072E+01  1.458E-01  2.000E+01  2.000E+04 -1.329E-01
   1   13    2     1     2    1.0266E+05 -4.5573E+03   1.0722E+05  0.000E+00  0.000E+00  0.000E+00  4.79330E+01  1.489E-01  2.000E+01  2.000E+04 -2.279E-01
   1   14    3     1     3    1.0722E+05 -3.5496E+03   1.1077E+05  0.000E+00  0.000E+00  0.000E+00  4.74591E+01  1.523E-01  2.000E+01  2.000E+04 -1.775E-01
   1   15    4     1     4    1.1077E+05 -3.3891E+03   1.1415E+05  0.000E+00  0.000E+00  0.000E+00  4.69848E+01  1.552E-01  2.000E+01  2.000E+04 -1.695E-01
   1   16    5     1     5    1.1415E+05 -3.5477E+03   1.1770E+05  0.000E+00  0.000E+00  0.000E+00  4.65103E+01  1.581E-01  2.000E+01  2.000E+04 -1.774E-01
   1   16    6     1     6    1.1770E+05 -2.7611E+03   1.2046E+05  0.000E+00  0.000E+00  0.000E+00  4.60356E+01  1.606E-01  2.000E+01  2.000E+04 -1.381E-01
   1   16    7     1     7    1.2046E+05 -2.7435E+03   1.2321E+05  0.000E+00  0.000E+00  0.000E+00  4.55606E+01  1.629E-01  2.000E+01  2.000E+04 -1.372E-01
   1   16    8     1     8    1.2321E+05 -2.6689E+03   1.2588E+05  0.000E+00  0.000E+00  0.000E+00  4.50855E+01  1.650E-01  2.000E+01  2.000E+04 -1.334E-01
   1   16    9     1     9    1.2588E+05 -2.5285E+03   1.2840E+05  0.000E+00  0.000E+00  0.000E+00  4.46103E+01  1.671E-01  2.000E+01  2.000E+04 -1.264E-01
   1   16   10     1    10    1.2840E+05 -2.3275E+03   1.3073E+05  0.000E+00  0.000E+00  0.000E+00  4.41349E+01  1.690E-01  2.000E+01  2.000E+04 -1.164E-01
   1   16   11     1    11    1.3073E+05 -2.0734E+03   1.3281E+05  0.000E+00  0.000E+00  0.000E+00  4.36593E+01  1.707E-01  2.000E+01  2.000E+04 -1.037E-01
   1   16   12     1    12    1.3281E+05 -2.1550E+03   1.3496E+05  0.000E+00  0.000E+00  0.000E+00  4.31837E+01  1.723E-01  2.000E+01  2.000E+04 -1.078E-01
   1   15   13     1    13    1.3496E+05 -2.4900E+03   1.3745E+05  0.000E+00  0.000E+00  0.000E+00  4.27082E+01  1.741E-01  2.000E+01  2.000E+04 -1.245E-01
   1   14   14     1    14    1.3745E+05 -2.8940E+03   1.4034E+05  0.000E+00  0.000E+00  0.000E+00  4.22330E+01  1.762E-01  2.000E+01  2.000E+04 -1.447E-01
   1   13   15     1    15    1.4034E+05 -3.4853E+03   1.4383E+05  0.000E+00  0.000E+00  0.000E+00  4.17581E+01  1.786E-01  2.000E+01  2.000E+04 -1.743E-01
   1   12   16     1    16    1.4383E+05 -5.0375E+03   1.4887E+05  0.000E+00  0.000E+00  0.000E+00  4.12841E+01  1.818E-01  2.000E+01  2.000E+04 -2.519E-01
   1   12   17     1    17    1.4887E+05 -3.1431E+03   1.5201E+05  0.000E+00  0.000E+00  0.000E+00  4.08098E+01  1.848E-01  2.000E+01  2.000E+04 -1.572E-01
   1   12   18     1    18    1.5201E+05 -3.0089E+03   1.5502E+05  0.000E+00  0.000E+00  0.000E+00  4.03348E+01  1.871E-01  2.000E+01  2.000E+04 -1.504E-01
   1   12   19     1    19    1.5502E+05 -4.1101E+03   1.5913E+05  0.000E+00  0.000E+00  0.000E+00  3.98601E+01  1.897E-01  2.000E+01  2.000E+04 -2.055E-01
   1   13   20     1    20    1.5913E+05 -2.2160E+03   1.6135E+05  0.000E+00  0.000E+00  0.000E+00  3.93851E+01  1.919E-01  2.000E+01  2.000E+04 -1.108E-01
   1   14   21     1    21    1.6135E+05 -1.0662E+03   1.6241E+05  0.000E+00  0.000E+00  0.000E+00  3.89090E+01  1.931E-01  2.000E+01  2.000E+04 -5.331E-02
   1   14   22     1    22    1.6241E+05  5.1786E+03   1.5723E+05  0.000E+00  0.000E+00  0.000E+00  3.84303E+01  1.916E-01  2.000E+01  2.000E+04  2.589E-01
   1    9   30     2     1    5.0000E+04 -2.6018E+03   5.2602E+04  0.000E+00  0.000E+00  0.000E+00  4.02427E+01  1.177E-01  2.000E+01  2.000E+04 -1.301E-01
   1    9   29     2     2    5.2602E+04 -2.9354E+03   5.5537E+04  0.000E+00  0.000E+00  0.000E+00  3.99964E+01  1.214E-01  2.000E+01  2.000E+04 -1.468E-01
   1    9   28     2     3    5.5537E+04 -3.3186E+03   5.8856E+04  0.000E+00  0.000E+00  0.000E+00  3.97506E+01  1.256E-01  2.000E+01  2.000E+04 -1.659E-01
   1    9   27     2     4    5.8856E+04 -6.0007E+03   6.4857E+04  0.000E+00  0.000E+00  0.000E+00  3.95066E+01  1.316E-01  2.000E+01  2.000E+04 -3.000E-01
   1   10   26     2     5    6.4857E+04 -3.6164E+03   6.8473E+04  0.000E+00  0.000E+00  0.000E+00  3.92627E+01  1.377E-01  2.000E+01  2.000E+04 -1.808E-01
   1   11   25     2     6    6.8473E+04 -2.5787E+03   7.1052E+04  0.000E+00  0.000E+00  0.000E+00  3.90165E+01  1.415E-01  2.000E+01  2.000E+04 -1.289E-01
   1   12   24     2     7    7.1052E+04 -1.7540E+03   7.2806E+04  0.000E+00  0.000E+00  0.000E+00  3.87691E+01  1.441E-01  2.000E+01  2.000E+04 -8.770E-02
   1   13   23     2     8    7.2806E+04 -9.6772E+02   7.3773E+04  0.000E+00  0.000E+00  0.000E+00  3.85207E+01  1.457E-01  2.000E+01  2.000E+04 -4.839E-02
   1   14   22     2     9    7.3773E+04  1.9758E+03   7.1798E+04  0.000E+00  0.000E+00  0.000E+00  3.82701E+01  1.451E-01  2.000E+01  2.000E+04  9.879E-02
   1   14   22     3     1    2.2903E+05 -8.3261E+03   2.3736E+05  0.000E+00  0.000E+00  0.000E+00  3.77550E+01  1.995E-01  2.000E+01  2.000E+04 -4.163E-01
   1   15   23     3     2    2.3736E+05 -1.6325E+03   2.3899E+05  0.000E+00  0.000E+00  0.000E+00  3.68687E+01  2.020E-01  2.000E+01  2.000E+04 -8.162E-02
   1   15   24     3     3    2.3899E+05 -1.3539E+03   2.4034E+05  0.000E+00  0.000E+00  0.000E+00  3.59806E+01  2.028E-01  2.000E+01  2.000E+04 -6.769E-02
   1   15   25     3     4    2.4034E+05 -1.4087E+03   2.4175E+05  0.000E+00  0.000E+00  0.000E+00  3.50924E+01  2.035E-01  2.000E+01  2.000E+04 -7.043E-02
   1   15   26     3     5    2.4175E+05 -1.8941E+03   2.4365E+05  0.000E+00  0.000E+00  0.000E+00  3.42043E+01  2.043E-01  2.000E+01  2.000E+04 -9.471E-02
   1   16   27     3     6    2.4365E+05 -2.5409E+03   2.4619E+05  0.000E+00  0.000E+00  0.000E+00  3.33166E+01  2.055E-01  2.000E+01  2.000E+04 -1.270E-01
   1   17   28     3     7    2.4619E+05 -3.3371E+03   2.4952E+05  0.000E+00  0.000E+00  0.000E+00  3.24292E+01  2.069E-01  2.000E+01  2.000E+04 -1.669E-01
   1   18   29     3     8    2.4952E+05 -5.0138E+03   2.5454E+05  0.000E+00  0.000E+00  0.000E+00  3.15423E+01  2.090E-01  2.000E+01  2.000E+04 -2.507E-01
   1   18   30     3     9    2.5454E+05 -4.4204E+03   2.5896E+05  0.000E+00  0.000E+00  0.000E+00  3.06558E+01  2.114E-01  2.000E+01  2.000E+04 -2.210E-01



1
              HEAD IN LAYER   1 AT END OF TIME STEP   1 IN STRESS PERIOD    7
  ---------------------------------------------------------------------------

          1      2      3      4      5      6      7      8      9     10
         11     12     13     14     15     16     17     18     19     20
         21     22     23     24     25     26     27     28     29     30
 .........................................................................
   1  ****** ****** ****** ****** ****** ****** ****** ****** ****** ******
      ****** ****** ****** ****** ****** ****** ****** ****** ****** ******
      ****** ****** ****** ****** ****** ****** ****** ****** ****** ******
   2  ****** ****** ****** ****** ****** ****** ****** ****** ****** ******
      ****** ****** ****** ****** ****** ****** ****** ****** ****** ******
      ****** ****** ****** ****** ****** ****** ****** ****** ****** ******
   3  ****** ****** ****** ****** ****** ****** ****** ****** ****** ******
      ****** ****** ****** ****** ****** ****** ****** ****** ****** ******
      ****** ****** ****** ****** ****** ****** ****** ****** ****** ******
   4  ****** ****** ****** ****** ****** ****** ****** ****** ****** ******
      ****** ****** ****** ****** ****** ****** ****** ****** ****** ******
      ****** ****** ****** ****** ****** ****** ****** ****** ****** ******
   5  ****** ****** ****** ****** ****** ****** ****** ****** ****** ******
      ****** ****** ****** ****** ****** ****** ****** ****** ****** ******
      ****** ****** ****** ****** ****** ****** ****** ****** ****** ******
   6  ****** ****** ****** ****** ****** ****** ****** ****** ****** ******
      ****** ****** ****** ****** ****** ****** ****** ****** ****** ******
      ****** ****** ****** ****** ****** ****** ****** ****** ****** ******
   7  ****** ****** ****** ****** ****** ****** ****** ****** ****** ******
      ****** ****** ****** ****** ****** ****** ****** ****** ****** ******
      ****** ****** ****** ****** ****** ****** ****** ****** ****** ******
   8  ****** ****** ****** ****** ****** ****** ****** ****** ****** ******
      ****** ****** ****** ****** ****** ****** ****** ****** ****** ******
      ****** ****** ****** ****** ****** ****** ****** ****** ****** ******
   9  ****** ****** ****** ****** ****** ****** ****** ****** ****** ******
      ****** ****** ****** ****** ****** ****** ****** ****** ****** ******
      ****** ****** ****** ****** ****** ****** ****** ****** ****** ******
  10  ****** ****** ****** ****** ****** ****** ****** ****** ****** ******
      ****** ****** ****** ****** ****** ****** ****** ****** ****** ******
      ****** ****** ****** ****** ****** ****** ****** ****** ****** ******
  11  ****** ****** ****** ****** ****** ****** ****** ****** ****** ******
      ****** ****** ****** ****** ****** ****** ****** ****** ****** ******
      ****** ****** ****** ****** ****** ****** ****** ****** ****** ******
  12  ****** ****** ****** ****** ****** ****** ****** ****** ****** ******
      ****** ****** ****** ****** ****** ****** ****** ****** ****** ******
      ****** ****** ****** ****** ****** ****** ****** ****** ****** ******
  13  ****** ****** ****** ****** ****** ****** ****** ****** ****** ******
      ****** ****** ****** ****** ****** ****** ****** ****** ****** ******
      ****** ****** ****** ****** ****** ****** ****** ****** ****** ******
  14  ****** ****** ****** ****** ****** ****** ****** ****** ****** ******
      ****** ****** ****** ****** ****** ****** ****** ****** ****** ******
      ****** ****** ****** ****** ****** ****** ****** ****** ****** ******
  15  ****** ****** ****** ****** ****** ****** ****** ****** ****** ******
      ****** ****** ****** ****** ****** ****** ****** ****** ****** ******
      ****** ****** ****** ****** ****** ****** ****** ****** ****** ******
  16  ****** ****** ****** ****** ****** ****** ****** ****** ****** ******
      ****** ****** ****** ****** ****** ****** ****** ****** ****** ******
      ****** ****** ****** ****** ****** ****** ****** ****** ****** ******
  17  ****** ****** ****** ****** ****** ****** ****** ****** ****** ******
      ****** ****** ****** ****** ****** ****** ****** ****** ****** ******
      ****** ****** ****** ****** ****** ****** ****** ****** ****** ******
  18  ****** ****** ****** ****** ****** ****** ****** ****** ****** ******
      ****** ****** ****** ****** ****** ****** ****** ****** ****** ******
      ****** ****** ****** ****** ****** ****** ****** ****** ****** ******
  19  ****** ****** ****** ****** ****** ****** ****** ****** ****** ******
      ****** ****** ****** ****** ****** ****** ****** ****** ****** ******
      ****** ****** ****** ****** ****** ****** ****** ****** ****** ******
  20  ****** ****** ****** ****** ****** ****** ****** ****** ****** ******
      ****** ****** ****** ****** ****** ****** ****** ****** ****** ******
      ****** ****** ****** ****** ****** ****** ****** ****** ****** ******
  21  ****** ****** ****** ****** ****** ****** ****** ****** ****** ******
      ****** ****** ****** ****** ****** ****** ****** ****** ****** ******
      ****** ****** ****** ****** ****** ****** ****** ****** ****** ******
  22  ****** ****** ****** ****** ****** ****** ****** ****** ****** ******
      ****** ****** ****** ****** ****** ****** ****** ****** ****** ******
      ****** ****** ****** ****** ****** ****** ****** ****** ****** ******
  23  ****** ****** ****** ****** ****** ****** ****** ****** ****** ******
      ****** ****** ****** ****** ****** ****** ****** ****** ****** ******
      ****** ****** ****** ****** ****** ****** ****** ****** ****** ******
  24  ****** ****** ****** ****** ****** ****** ****** ****** ****** ******
      ****** ****** ****** ****** ****** ****** ****** ****** ****** ******
      ****** ****** ****** ****** ****** ****** ****** ****** ****** ******
  25  ****** ****** ****** ****** ****** ****** ****** ****** ****** ******
      ****** ****** ****** ****** ****** ****** ****** ****** ****** ******
      ****** ****** ****** ****** ****** ****** ****** ****** ****** ******

 HEAD WILL BE SAVED ON UNIT   51 AT END OF TIME STEP    1, STRESS PERIOD    7
1
  VOLUMETRIC BUDGET FOR ENTIRE MODEL AT END OF TIME STEP    1, STRESS PERIOD   7
  ------------------------------------------------------------------------------

     CUMULATIVE VOLUMES      L**3       RATES FOR THIS TIME STEP      L**3/T
     ------------------                 ------------------------

           IN:                                      IN:
           ---                                      ---
             STORAGE =    24440483.8938               STORAGE =       11027.7655
       CONSTANT HEAD =   111905278.4497         CONSTANT HEAD =      187957.2256
               WELLS =           0.0000                 WELLS =           0.0000
            RECHARGE =    15097200.0000              RECHARGE =           0.0000
      STREAM LEAKAGE =     4287047.8614        STREAM LEAKAGE =        7154.3546

            TOTAL IN =   155730010.2049              TOTAL IN =      206139.3457

          OUT:                                     OUT:
          ----                                     ----
             STORAGE =      957531.4981               STORAGE =         191.3364
       CONSTANT HEAD =           0.0000         CONSTANT HEAD =           0.0000
               WELLS =    60231424.8061                 WELLS =       89835.3925
            RECHARGE =           0.0000              RECHARGE =           0.0000
      STREAM LEAKAGE =    94541054.6846        STREAM LEAKAGE =      116112.6189

           TOTAL OUT =   155730010.9889             TOTAL OUT =      206139.3479

            IN - OUT =          -0.7840              IN - OUT =      -2.1325E-03

 PERCENT DISCREPANCY =          -0.00     PERCENT DISCREPANCY =          -0.00






         TIME SUMMARY AT END OF TIME STEP    1 IN STRESS PERIOD    7
                    SECONDS     MINUTES      HOURS       DAYS        YEARS
                    -----------------------------------------------------------
   TIME STEP LENGTH 7.86240E+06 1.31040E+05  2184.0      91.000     0.24914    
 STRESS PERIOD TIME 7.86240E+06 1.31040E+05  2184.0      91.000     0.24914    
         TOTAL TIME 5.52096E+07 9.20160E+05  15336.      639.00      1.7495    
1
1
                            STRESS PERIOD NO.    8, LENGTH =   91.00000    
                            -----------------------------------------------

                              NUMBER OF TIME STEPS =     1

                               MULTIPLIER FOR DELT =     1.500

                            INITIAL TIME STEP SIZE =   91.00000    

 WELL NO.  LAYER   ROW   COL   STRESS RATE         
 --------------------------------------------------
      1      1     23     21     -0.2847E+05
      2      1     23     12     -0.2965E+05
      3      1     23     17     -0.3172E+05

      3 WELLS

                 RECHARGE =  1.000000E-03

 REUSING STREAM SEGMENT DATA FROM LAST STRESS PERIOD
 
 SOLVING FOR HEAD 


     6 CALLS TO PCG ROUTINE FOR TIME STEP   1 IN STRESS PERIOD    8
    23 TOTAL ITERATIONS

 OUTPUT CONTROL FOR STRESS PERIOD    8   TIME STEP    1
    SAVE BUDGET
    SAVE HEAD FOR ALL LAYERS
    PRINT HEAD FOR ALL LAYERS
 UBDSV2 SAVING "STREAMFLOW OUT  " ON UNIT  50 AT TIME STEP  1, STRESS PERIOD   8



 STREAM LISTING     PERIOD      8   STEP        1

 LAYER ROW COL. STREAM  RCH.  FLOW INTO     FLOW TO   FLOW OUT OF   OVRLND.     DIRECT     STREAM       STREAM     STREAM     STREAM   STREAMBED  STREAMBED
                SEG.NO.  NO.  STRM. RCH.    AQUIFER    STRM. RCH.    RUNOFF     PRECIP       ET          HEAD       DEPTH      WIDTH   CONDCTNC.   GRADIENT

   1   13    1     1     1    1.0000E+05 -2.8293E+03   1.0283E+05  0.000E+00  0.000E+00  0.000E+00  4.84072E+01  1.459E-01  2.000E+01  2.000E+04 -1.415E-01
   1   13    2     1     2    1.0283E+05 -4.7697E+03   1.0760E+05  0.000E+00  0.000E+00  0.000E+00  4.79332E+01  1.491E-01  2.000E+01  2.000E+04 -2.385E-01
   1   14    3     1     3    1.0760E+05 -3.7863E+03   1.1139E+05  0.000E+00  0.000E+00  0.000E+00  4.74596E+01  1.527E-01  2.000E+01  2.000E+04 -1.893E-01
   1   15    4     1     4    1.1139E+05 -3.6303E+03   1.1502E+05  0.000E+00  0.000E+00  0.000E+00  4.69854E+01  1.558E-01  2.000E+01  2.000E+04 -1.815E-01
   1   16    5     1     5    1.1502E+05 -3.7763E+03   1.1879E+05  0.000E+00  0.000E+00  0.000E+00  4.65111E+01  1.589E-01  2.000E+01  2.000E+04 -1.888E-01
   1   16    6     1     6    1.1879E+05 -2.9432E+03   1.2174E+05  0.000E+00  0.000E+00  0.000E+00  4.60366E+01  1.616E-01  2.000E+01  2.000E+04 -1.472E-01
   1   16    7     1     7    1.2174E+05 -2.9288E+03   1.2466E+05  0.000E+00  0.000E+00  0.000E+00  4.55617E+01  1.639E-01  2.000E+01  2.000E+04 -1.464E-01
   1   16    8     1     8    1.2466E+05 -2.8572E+03   1.2752E+05  0.000E+00  0.000E+00  0.000E+00  4.50867E+01  1.662E-01  2.000E+01  2.000E+04 -1.429E-01
   1   16    9     1     9    1.2752E+05 -2.7189E+03   1.3024E+05  0.000E+00  0.000E+00  0.000E+00  4.46116E+01  1.684E-01  2.000E+01  2.000E+04 -1.359E-01
   1   16   10     1    10    1.3024E+05 -2.5190E+03   1.3276E+05  0.000E+00  0.000E+00  0.000E+00  4.41364E+01  1.705E-01  2.000E+01  2.000E+04 -1.260E-01
   1   16   11     1    11    1.3276E+05 -2.2656E+03   1.3502E+05  0.000E+00  0.000E+00  0.000E+00  4.36610E+01  1.723E-01  2.000E+01  2.000E+04 -1.133E-01
   1   16   12     1    12    1.3502E+05 -2.4050E+03   1.3743E+05  0.000E+00  0.000E+00  0.000E+00  4.31855E+01  1.741E-01  2.000E+01  2.000E+04 -1.203E-01
   1   15   13     1    13    1.3743E+05 -2.7479E+03   1.4018E+05  0.000E+00  0.000E+00  0.000E+00  4.27102E+01  1.761E-01  2.000E+01  2.000E+04 -1.374E-01
   1   14   14     1    14    1.4018E+05 -3.1489E+03   1.4333E+05  0.000E+00  0.000E+00  0.000E+00  4.22352E+01  1.783E-01  2.000E+01  2.000E+04 -1.574E-01
   1   13   15     1    15    1.4333E+05 -3.7306E+03   1.4706E+05  0.000E+00  0.000E+00  0.000E+00  4.17605E+01  1.809E-01  2.000E+01  2.000E+04 -1.865E-01
   1   12   16     1    16    1.4706E+05 -5.2559E+03   1.5231E+05  0.000E+00  0.000E+00  0.000E+00  4.12865E+01  1.843E-01  2.000E+01  2.000E+04 -2.628E-01
   1   12   17     1    17    1.5231E+05 -3.3190E+03   1.5563E+05  0.000E+00  0.000E+00  0.000E+00  4.08124E+01  1.874E-01  2.000E+01  2.000E+04 -1.660E-01
   1   12   18     1    18    1.5563E+05 -3.1849E+03   1.5882E+05  0.000E+00  0.000E+00  0.000E+00  4.03375E+01  1.898E-01  2.000E+01  2.000E+04 -1.592E-01
   1   12   19     1    19    1.5882E+05 -4.3228E+03   1.6314E+05  0.000E+00  0.000E+00  0.000E+00  3.98629E+01  1.925E-01  2.000E+01  2.000E+04 -2.161E-01
   1   13   20     1    20    1.6314E+05 -2.4433E+03   1.6558E+05  0.000E+00  0.000E+00  0.000E+00  3.93881E+01  1.949E-01  2.000E+01  2.000E+04 -1.222E-01
   1   14   21     1    21    1.6558E+05 -1.2792E+03   1.6686E+05  0.000E+00  0.000E+00  0.000E+00  3.89121E+01  1.962E-01  2.000E+01  2.000E+04 -6.396E-02
   1   14   22     1    22    1.6686E+05  5.1332E+03   1.6173E+05  0.000E+00  0.000E+00  0.000E+00  3.84335E+01  1.948E-01  2.000E+01  2.000E+04  2.567E-01
   1    9   30     2     1    5.0000E+04 -2.7808E+03   5.2781E+04  0.000E+00  0.000E+00  0.000E+00  4.02428E+01  1.178E-01  2.000E+01  2.000E+04 -1.390E-01
   1    9   29     2     2    5.2781E+04 -3.1127E+03   5.5894E+04  0.000E+00  0.000E+00  0.000E+00  3.99968E+01  1.218E-01  2.000E+01  2.000E+04 -1.556E-01
   1    9   28     2     3    5.5894E+04 -3.4932E+03   5.9387E+04  0.000E+00  0.000E+00  0.000E+00  3.97512E+01  1.262E-01  2.000E+01  2.000E+04 -1.747E-01
   1    9   27     2     4    5.9387E+04 -6.2202E+03   6.5607E+04  0.000E+00  0.000E+00  0.000E+00  3.95075E+01  1.325E-01  2.000E+01  2.000E+04 -3.110E-01
   1   10   26     2     5    6.5607E+04 -3.8528E+03   6.9460E+04  0.000E+00  0.000E+00  0.000E+00  3.92638E+01  1.388E-01  2.000E+01  2.000E+04 -1.926E-01
   1   11   25     2     6    6.9460E+04 -2.8087E+03   7.2268E+04  0.000E+00  0.000E+00  0.000E+00  3.90178E+01  1.428E-01  2.000E+01  2.000E+04 -1.404E-01
   1   12   24     2     7    7.2268E+04 -1.9630E+03   7.4231E+04  0.000E+00  0.000E+00  0.000E+00  3.87707E+01  1.457E-01  2.000E+01  2.000E+04 -9.815E-02
   1   13   23     2     8    7.4231E+04 -1.1379E+03   7.5369E+04  0.000E+00  0.000E+00  0.000E+00  3.85225E+01  1.475E-01  2.000E+01  2.000E+04 -5.689E-02
   1   14   22     2     9    7.5369E+04  1.9052E+03   7.3464E+04  0.000E+00  0.000E+00  0.000E+00  3.82721E+01  1.471E-01  2.000E+01  2.000E+04  9.526E-02
   1   14   22     3     1    2.3519E+05 -8.3724E+03   2.4357E+05  0.000E+00  0.000E+00  0.000E+00  3.77582E+01  2.027E-01  2.000E+01  2.000E+04 -4.186E-01
   1   15   23     3     2    2.4357E+05 -1.8381E+03   2.4540E+05  0.000E+00  0.000E+00  0.000E+00  3.68719E+01  2.052E-01  2.000E+01  2.000E+04 -9.190E-02
   1   15   24     3     3    2.4540E+05 -1.5096E+03   2.4691E+05  0.000E+00  0.000E+00  0.000E+00  3.59839E+01  2.061E-01  2.000E+01  2.000E+04 -7.548E-02
   1   15   25     3     4    2.4691E+05 -1.5663E+03   2.4848E+05  0.000E+00  0.000E+00  0.000E+00  3.50957E+01  2.068E-01  2.000E+01  2.000E+04 -7.831E-02
   1   15   26     3     5    2.4848E+05 -2.0945E+03   2.5057E+05  0.000E+00  0.000E+00  0.000E+00  3.42078E+01  2.078E-01  2.000E+01  2.000E+04 -1.047E-01
   1   16   27     3     6    2.5057E+05 -2.7865E+03   2.5336E+05  0.000E+00  0.000E+00  0.000E+00  3.33201E+01  2.090E-01  2.000E+01  2.000E+04 -1.393E-01
   1   17   28     3     7    2.5336E+05 -3.5861E+03   2.5695E+05  0.000E+00  0.000E+00  0.000E+00  3.24328E+01  2.106E-01  2.000E+01  2.000E+04 -1.793E-01
   1   18   29     3     8    2.5695E+05 -5.2435E+03   2.6219E+05  0.000E+00  0.000E+00  0.000E+00  3.15461E+01  2.127E-01  2.000E+01  2.000E+04 -2.622E-01
   1   18   30     3     9    2.6219E+05 -4.5971E+03   2.6679E+05  0.000E+00  0.000E+00  0.000E+00  3.06596E+01  2.152E-01  2.000E+01  2.000E+04 -2.299E-01



1
              HEAD IN LAYER   1 AT END OF TIME STEP   1 IN STRESS PERIOD    8
  ---------------------------------------------------------------------------

          1      2      3      4      5      6      7      8      9     10
         11     12     13     14     15     16     17     18     19     20
         21     22     23     24     25     26     27     28     29     30
 .........................................................................
   1  ****** ****** ****** ****** ****** ****** ****** ****** ****** ******
      ****** ****** ****** ****** ****** ****** ****** ****** ****** ******
      ****** ****** ****** ****** ****** ****** ****** ****** ****** ******
   2  ****** ****** ****** ****** ****** ****** ****** ****** ****** ******
      ****** ****** ****** ****** ****** ****** ****** ****** ****** ******
      ****** ****** ****** ****** ****** ****** ****** ****** ****** ******
   3  ****** ****** ****** ****** ****** ****** ****** ****** ****** ******
      ****** ****** ****** ****** ****** ****** ****** ****** ****** ******
      ****** ****** ****** ****** ****** ****** ****** ****** ****** ******
   4  ****** ****** ****** ****** ****** ****** ****** ****** ****** ******
      ****** ****** ****** ****** ****** ****** ****** ****** ****** ******
      ****** ****** ****** ****** ****** ****** ****** ****** ****** ******
   5  ****** ****** ****** ****** ****** ****** ****** ****** ****** ******
      ****** ****** ****** ****** ****** ****** ****** ****** ****** ******
      ****** ****** ****** ****** ****** ****** ****** ****** ****** ******
   6  ****** ****** ****** ****** ****** ****** ****** ****** ****** ******
      ****** ****** ****** ****** ****** ****** ****** ****** ****** ******
      ****** ****** ****** ****** ****** ****** ****** ****** ****** ******
   7  ****** ****** ****** ****** ****** ****** ****** ****** ****** ******
      ****** ****** ****** ****** ****** ****** ****** ****** ****** ******
      ****** ****** ****** ****** ****** ****** ****** ****** ****** ******
   8  ****** ****** ****** ****** ****** ****** ****** ****** ****** ******
      ****** ****** ****** ****** ****** ****** ****** ****** ****** ******
      ****** ****** ****** ****** ****** ****** ****** ****** ****** ******
   9  ****** ****** ****** ****** ****** ****** ****** ****** ****** ******
      ****** ****** ****** ****** ****** ****** ****** ****** ****** ******
      ****** ****** ****** ****** ****** ****** ****** ****** ****** ******
  10  ****** ****** ****** ****** ****** ****** ****** ****** ****** ******
      ****** ****** ****** ****** ****** ****** ****** ****** ****** ******
      ****** ****** ****** ****** ****** ****** ****** ****** ****** ******
  11  ****** ****** ****** ****** ****** ****** ****** ****** ****** ******
      ****** ****** ****** ****** ****** ****** ****** ****** ****** ******
      ****** ****** ****** ****** ****** ****** ****** ****** ****** ******
  12  ****** ****** ****** ****** ****** ****** ****** ****** ****** ******
      ****** ****** ****** ****** ****** ****** ****** ****** ****** ******
      ****** ****** ****** ****** ****** ****** ****** ****** ****** ******
  13  ****** ****** ****** ****** ****** ****** ****** ****** ****** ******
      ****** ****** ****** ****** ****** ****** ****** ****** ****** ******
      ****** ****** ****** ****** ****** ****** ****** ****** ****** ******
  14  ****** ****** ****** ****** ****** ****** ****** ****** ****** ******
      ****** ****** ****** ****** ****** ****** ****** ****** ****** ******
      ****** ****** ****** ****** ****** ****** ****** ****** ****** ******
  15  ****** ****** ****** ****** ****** ****** ****** ****** ****** ******
      ****** ****** ****** ****** ****** ****** ****** ****** ****** ******
      ****** ****** ****** ****** ****** ****** ****** ****** ****** ******
  16  ****** ****** ****** ****** ****** ****** ****** ****** ****** ******
      ****** ****** ****** ****** ****** ****** ****** ****** ****** ******
      ****** ****** ****** ****** ****** ****** ****** ****** ****** ******
  17  ****** ****** ****** ****** ****** ****** ****** ****** ****** ******
      ****** ****** ****** ****** ****** ****** ****** ****** ****** ******
      ****** ****** ****** ****** ****** ****** ****** ****** ****** ******
  18  ****** ****** ****** ****** ****** ****** ****** ****** ****** ******
      ****** ****** ****** ****** ****** ****** ****** ****** ****** ******
      ****** ****** ****** ****** ****** ****** ****** ****** ****** ******
  19  ****** ****** ****** ****** ****** ****** ****** ****** ****** ******
      ****** ****** ****** ****** ****** ****** ****** ****** ****** ******
      ****** ****** ****** ****** ****** ****** ****** ****** ****** ******
  20  ****** ****** ****** ****** ****** ****** ****** ****** ****** ******
      ****** ****** ****** ****** ****** ****** ****** ****** ****** ******
      ****** ****** ****** ****** ****** ****** ****** ****** ****** ******
  21  ****** ****** ****** ****** ****** ****** ****** ****** ****** ******
      ****** ****** ****** ****** ****** ****** ****** ****** ****** ******
      ****** ****** ****** ****** ****** ****** ****** ****** ****** ******
  22  ****** ****** ****** ****** ****** ****** ****** ****** ****** ******
      ****** ****** ****** ****** ****** ****** ****** ****** ****** ******
      ****** ****** ****** ****** ****** ****** ****** ****** ****** ******
  23  ****** ****** ****** ****** ****** ****** ****** ****** ****** ******
      ****** ****** ****** ****** ****** ****** ****** ****** ****** ******
      ****** ****** ****** ****** ****** ****** ****** ****** ****** ******
  24  ****** ****** ****** ****** ****** ****** ****** ****** ****** ******
      ****** ****** ****** ****** ****** ****** ****** ****** ****** ******
      ****** ****** ****** ****** ****** ****** ****** ****** ****** ******
  25  ****** ****** ****** ****** ****** ****** ****** ****** ****** ******
      ****** ****** ****** ****** ****** ****** ****** ****** ****** ******
      ****** ****** ****** ****** ****** ****** ****** ****** ****** ******

 HEAD WILL BE SAVED ON UNIT   51 AT END OF TIME STEP    1, STRESS PERIOD    8
1
  VOLUMETRIC BUDGET FOR ENTIRE MODEL AT END OF TIME STEP    1, STRESS PERIOD   8
  ------------------------------------------------------------------------------

     CUMULATIVE VOLUMES      L**3       RATES FOR THIS TIME STEP      L**3/T
     ------------------                 ------------------------

           IN:                                      IN:
           ---                                      ---
             STORAGE =    24440483.8938               STORAGE =           0.0000
       CONSTANT HEAD =   128560622.8060         CONSTANT HEAD =      183025.7622
               WELLS =           0.0000                 WELLS =           0.0000
            RECHARGE =    17608800.0000              RECHARGE =       27600.0000
      STREAM LEAKAGE =     4927538.6589        STREAM LEAKAGE =        7038.3604

            TOTAL IN =   175537445.3588              TOTAL IN =      217664.1226

          OUT:                                     OUT:
          ----                                     ----
             STORAGE =     1321822.0515               STORAGE =        4003.1929
       CONSTANT HEAD =           0.0000         CONSTANT HEAD =           0.0000
               WELLS =    68406445.5269                 WELLS =       89835.3925
            RECHARGE =           0.0000              RECHARGE =           0.0000
      STREAM LEAKAGE =   105809178.4876        STREAM LEAKAGE =      123825.5363

           TOTAL OUT =   175537446.0661             TOTAL OUT =      217664.1217

            IN - OUT =          -0.7073              IN - OUT =       8.4245E-04

 PERCENT DISCREPANCY =          -0.00     PERCENT DISCREPANCY =           0.00






         TIME SUMMARY AT END OF TIME STEP    1 IN STRESS PERIOD    8
                    SECONDS     MINUTES      HOURS       DAYS        YEARS
                    -----------------------------------------------------------
   TIME STEP LENGTH 7.86240E+06 1.31040E+05  2184.0      91.000     0.24914    
 STRESS PERIOD TIME 7.86240E+06 1.31040E+05  2184.0      91.000     0.24914    
         TOTAL TIME 6.30720E+07 1.05120E+06  17520.      730.00      1.9986    
1
1
                            STRESS PERIOD NO.    9, LENGTH =   92.00000    
                            -----------------------------------------------

                              NUMBER OF TIME STEPS =     1

                               MULTIPLIER FOR DELT =     1.500

                            INITIAL TIME STEP SIZE =   92.00000    

 WELL NO.  LAYER   ROW   COL   STRESS RATE         
 --------------------------------------------------
      1      1     23     21     -0.2847E+05
      2      1     23     12     -0.2965E+05
      3      1     23     17     -0.3172E+05

      3 WELLS

                 RECHARGE =  5.000000E-04

 REUSING STREAM SEGMENT DATA FROM LAST STRESS PERIOD
 
 SOLVING FOR HEAD 


     6 CALLS TO PCG ROUTINE FOR TIME STEP   1 IN STRESS PERIOD    9
    22 TOTAL ITERATIONS

 OUTPUT CONTROL FOR STRESS PERIOD    9   TIME STEP    1
    SAVE BUDGET
    SAVE HEAD FOR ALL LAYERS
    PRINT HEAD FOR ALL LAYERS
 UBDSV2 SAVING "STREAMFLOW OUT  " ON UNIT  50 AT TIME STEP  1, STRESS PERIOD   9



 STREAM LISTING     PERIOD      9   STEP        1

 LAYER ROW COL. STREAM  RCH.  FLOW INTO     FLOW TO   FLOW OUT OF   OVRLND.     DIRECT     STREAM       STREAM     STREAM     STREAM   STREAMBED  STREAMBED
                SEG.NO.  NO.  STRM. RCH.    AQUIFER    STRM. RCH.    RUNOFF     PRECIP       ET          HEAD       DEPTH      WIDTH   CONDCTNC.   GRADIENT

   1   13    1     1     1    1.0000E+05 -2.7144E+03   1.0271E+05  0.000E+00  0.000E+00  0.000E+00  4.84072E+01  1.458E-01  2.000E+01  2.000E+04 -1.357E-01
   1   13    2     1     2    1.0271E+05 -4.6181E+03   1.0733E+05  0.000E+00  0.000E+00  0.000E+00  4.79331E+01  1.490E-01  2.000E+01  2.000E+04 -2.309E-01
   1   14    3     1     3    1.0733E+05 -3.6332E+03   1.1097E+05  0.000E+00  0.000E+00  0.000E+00  4.74593E+01  1.525E-01  2.000E+01  2.000E+04 -1.817E-01
   1   15    4     1     4    1.1097E+05 -3.4804E+03   1.1445E+05  0.000E+00  0.000E+00  0.000E+00  4.69850E+01  1.554E-01  2.000E+01  2.000E+04 -1.740E-01
   1   16    5     1     5    1.1445E+05 -3.6424E+03   1.1809E+05  0.000E+00  0.000E+00  0.000E+00  4.65106E+01  1.583E-01  2.000E+01  2.000E+04 -1.821E-01
   1   16    6     1     6    1.1809E+05 -2.8357E+03   1.2092E+05  0.000E+00  0.000E+00  0.000E+00  4.60360E+01  1.610E-01  2.000E+01  2.000E+04 -1.418E-01
   1   16    7     1     7    1.2092E+05 -2.8197E+03   1.2374E+05  0.000E+00  0.000E+00  0.000E+00  4.55610E+01  1.632E-01  2.000E+01  2.000E+04 -1.410E-01
   1   16    8     1     8    1.2374E+05 -2.7476E+03   1.2649E+05  0.000E+00  0.000E+00  0.000E+00  4.50859E+01  1.655E-01  2.000E+01  2.000E+04 -1.374E-01
   1   16    9     1     9    1.2649E+05 -2.6099E+03   1.2910E+05  0.000E+00  0.000E+00  0.000E+00  4.46108E+01  1.676E-01  2.000E+01  2.000E+04 -1.305E-01
   1   16   10     1    10    1.2910E+05 -2.4118E+03   1.3151E+05  0.000E+00  0.000E+00  0.000E+00  4.41355E+01  1.696E-01  2.000E+01  2.000E+04 -1.206E-01
   1   16   11     1    11    1.3151E+05 -2.1609E+03   1.3367E+05  0.000E+00  0.000E+00  0.000E+00  4.36600E+01  1.713E-01  2.000E+01  2.000E+04 -1.080E-01
   1   16   12     1    12    1.3367E+05 -2.2758E+03   1.3595E+05  0.000E+00  0.000E+00  0.000E+00  4.31844E+01  1.730E-01  2.000E+01  2.000E+04 -1.138E-01
   1   15   13     1    13    1.3595E+05 -2.6009E+03   1.3855E+05  0.000E+00  0.000E+00  0.000E+00  4.27090E+01  1.749E-01  2.000E+01  2.000E+04 -1.300E-01
   1   14   14     1    14    1.3855E+05 -2.9971E+03   1.4155E+05  0.000E+00  0.000E+00  0.000E+00  4.22339E+01  1.770E-01  2.000E+01  2.000E+04 -1.499E-01
   1   13   15     1    15    1.4155E+05 -3.5793E+03   1.4513E+05  0.000E+00  0.000E+00  0.000E+00  4.17591E+01  1.795E-01  2.000E+01  2.000E+04 -1.790E-01
   1   12   16     1    16    1.4513E+05 -5.1099E+03   1.5024E+05  0.000E+00  0.000E+00  0.000E+00  4.12850E+01  1.828E-01  2.000E+01  2.000E+04 -2.555E-01
   1   12   17     1    17    1.5024E+05 -3.2108E+03   1.5345E+05  0.000E+00  0.000E+00  0.000E+00  4.08108E+01  1.858E-01  2.000E+01  2.000E+04 -1.605E-01
   1   12   18     1    18    1.5345E+05 -3.0787E+03   1.5653E+05  0.000E+00  0.000E+00  0.000E+00  4.03359E+01  1.881E-01  2.000E+01  2.000E+04 -1.539E-01
   1   12   19     1    19    1.5653E+05 -4.1930E+03   1.6072E+05  0.000E+00  0.000E+00  0.000E+00  3.98612E+01  1.908E-01  2.000E+01  2.000E+04 -2.097E-01
   1   13   20     1    20    1.6072E+05 -2.3180E+03   1.6304E+05  0.000E+00  0.000E+00  0.000E+00  3.93863E+01  1.931E-01  2.000E+01  2.000E+04 -1.159E-01
   1   14   21     1    21    1.6304E+05 -1.1686E+03   1.6421E+05  0.000E+00  0.000E+00  0.000E+00  3.89103E+01  1.944E-01  2.000E+01  2.000E+04 -5.843E-02
   1   14   22     1    22    1.6421E+05  5.1556E+03   1.5905E+05  0.000E+00  0.000E+00  0.000E+00  3.84316E+01  1.929E-01  2.000E+01  2.000E+04  2.578E-01
   1    9   30     2     1    5.0000E+04 -2.6813E+03   5.2681E+04  0.000E+00  0.000E+00  0.000E+00  4.02427E+01  1.177E-01  2.000E+01  2.000E+04 -1.341E-01
   1    9   29     2     2    5.2681E+04 -3.0138E+03   5.5695E+04  0.000E+00  0.000E+00  0.000E+00  3.99966E+01  1.216E-01  2.000E+01  2.000E+04 -1.507E-01
   1    9   28     2     3    5.5695E+04 -3.3949E+03   5.9090E+04  0.000E+00  0.000E+00  0.000E+00  3.97509E+01  1.259E-01  2.000E+01  2.000E+04 -1.697E-01
   1    9   27     2     4    5.9090E+04 -6.0909E+03   6.5181E+04  0.000E+00  0.000E+00  0.000E+00  3.95070E+01  1.320E-01  2.000E+01  2.000E+04 -3.045E-01
   1   10   26     2     5    6.5181E+04 -3.7170E+03   6.8898E+04  0.000E+00  0.000E+00  0.000E+00  3.92632E+01  1.382E-01  2.000E+01  2.000E+04 -1.858E-01
   1   11   25     2     6    6.8898E+04 -2.6775E+03   7.1575E+04  0.000E+00  0.000E+00  0.000E+00  3.90171E+01  1.421E-01  2.000E+01  2.000E+04 -1.339E-01
   1   12   24     2     7    7.1575E+04 -1.8451E+03   7.3420E+04  0.000E+00  0.000E+00  0.000E+00  3.87698E+01  1.448E-01  2.000E+01  2.000E+04 -9.225E-02
   1   13   23     2     8    7.3420E+04 -1.0438E+03   7.4464E+04  0.000E+00  0.000E+00  0.000E+00  3.85215E+01  1.465E-01  2.000E+01  2.000E+04 -5.219E-02
   1   14   22     2     9    7.4464E+04  1.9437E+03   7.2520E+04  0.000E+00  0.000E+00  0.000E+00  3.82710E+01  1.460E-01  2.000E+01  2.000E+04  9.719E-02
   1   14   22     3     1    2.3157E+05 -8.3489E+03   2.3992E+05  0.000E+00  0.000E+00  0.000E+00  3.77564E+01  2.008E-01  2.000E+01  2.000E+04 -4.174E-01
   1   15   23     3     2    2.3992E+05 -1.7365E+03   2.4166E+05  0.000E+00  0.000E+00  0.000E+00  3.68700E+01  2.034E-01  2.000E+01  2.000E+04 -8.682E-02
   1   15   24     3     3    2.4166E+05 -1.4322E+03   2.4309E+05  0.000E+00  0.000E+00  0.000E+00  3.59819E+01  2.042E-01  2.000E+01  2.000E+04 -7.161E-02
   1   15   25     3     4    2.4309E+05 -1.4870E+03   2.4458E+05  0.000E+00  0.000E+00  0.000E+00  3.50938E+01  2.049E-01  2.000E+01  2.000E+04 -7.435E-02
   1   15   26     3     5    2.4458E+05 -1.9910E+03   2.4657E+05  0.000E+00  0.000E+00  0.000E+00  3.42058E+01  2.058E-01  2.000E+01  2.000E+04 -9.955E-02
   1   16   27     3     6    2.4657E+05 -2.6607E+03   2.4923E+05  0.000E+00  0.000E+00  0.000E+00  3.33181E+01  2.069E-01  2.000E+01  2.000E+04 -1.330E-01
   1   17   28     3     7    2.4923E+05 -3.4585E+03   2.5269E+05  0.000E+00  0.000E+00  0.000E+00  3.24307E+01  2.085E-01  2.000E+01  2.000E+04 -1.729E-01
   1   18   29     3     8    2.5269E+05 -5.1258E+03   2.5781E+05  0.000E+00  0.000E+00  0.000E+00  3.15439E+01  2.106E-01  2.000E+01  2.000E+04 -2.563E-01
   1   18   30     3     9    2.5781E+05 -4.5054E+03   2.6232E+05  0.000E+00  0.000E+00  0.000E+00  3.06574E+01  2.130E-01  2.000E+01  2.000E+04 -2.253E-01



1
              HEAD IN LAYER   1 AT END OF TIME STEP   1 IN STRESS PERIOD    9
  ---------------------------------------------------------------------------

          1      2      3      4      5      6      7      8      9     10
         11     12     13     14     15     16     17     18     19     20
         21     22     23     24     25     26     27     28     29     30
 .........................................................................
   1  ****** ****** ****** ****** ****** ****** ****** ****** ****** ******
      ****** ****** ****** ****** ****** ****** ****** ****** ****** ******
      ****** ****** ****** ****** ****** ****** ****** ****** ****** ******
   2  ****** ****** ****** ****** ****** ****** ****** ****** ****** ******
      ****** ****** ****** ****** ****** ****** ****** ****** ****** ******
      ****** ****** ****** ****** ****** ****** ****** ****** ****** ******
   3  ****** ****** ****** ****** ****** ****** ****** ****** ****** ******
      ****** ****** ****** ****** ****** ****** ****** ****** ****** ******
      ****** ****** ****** ****** ****** ****** ****** ****** ****** ******
   4  ****** ****** ****** ****** ****** ****** ****** ****** ****** ******
      ****** ****** ****** ****** ****** ****** ****** ****** ****** ******
      ****** ****** ****** ****** ****** ****** ****** ****** ****** ******
   5  ****** ****** ****** ****** ****** ****** ****** ****** ****** ******
      ****** ****** ****** ****** ****** ****** ****** ****** ****** ******
      ****** ****** ****** ****** ****** ****** ****** ****** ****** ******
   6  ****** ****** ****** ****** ****** ****** ****** ****** ****** ******
      ****** ****** ****** ****** ****** ****** ****** ****** ****** ******
      ****** ****** ****** ****** ****** ****** ****** ****** ****** ******
   7  ****** ****** ****** ****** ****** ****** ****** ****** ****** ******
      ****** ****** ****** ****** ****** ****** ****** ****** ****** ******
      ****** ****** ****** ****** ****** ****** ****** ****** ****** ******
   8  ****** ****** ****** ****** ****** ****** ****** ****** ****** ******
      ****** ****** ****** ****** ****** ****** ****** ****** ****** ******
      ****** ****** ****** ****** ****** ****** ****** ****** ****** ******
   9  ****** ****** ****** ****** ****** ****** ****** ****** ****** ******
      ****** ****** ****** ****** ****** ****** ****** ****** ****** ******
      ****** ****** ****** ****** ****** ****** ****** ****** ****** ******
  10  ****** ****** ****** ****** ****** ****** ****** ****** ****** ******
      ****** ****** ****** ****** ****** ****** ****** ****** ****** ******
      ****** ****** ****** ****** ****** ****** ****** ****** ****** ******
  11  ****** ****** ****** ****** ****** ****** ****** ****** ****** ******
      ****** ****** ****** ****** ****** ****** ****** ****** ****** ******
      ****** ****** ****** ****** ****** ****** ****** ****** ****** ******
  12  ****** ****** ****** ****** ****** ****** ****** ****** ****** ******
      ****** ****** ****** ****** ****** ****** ****** ****** ****** ******
      ****** ****** ****** ****** ****** ****** ****** ****** ****** ******
  13  ****** ****** ****** ****** ****** ****** ****** ****** ****** ******
      ****** ****** ****** ****** ****** ****** ****** ****** ****** ******
      ****** ****** ****** ****** ****** ****** ****** ****** ****** ******
  14  ****** ****** ****** ****** ****** ****** ****** ****** ****** ******
      ****** ****** ****** ****** ****** ****** ****** ****** ****** ******
      ****** ****** ****** ****** ****** ****** ****** ****** ****** ******
  15  ****** ****** ****** ****** ****** ****** ****** ****** ****** ******
      ****** ****** ****** ****** ****** ****** ****** ****** ****** ******
      ****** ****** ****** ****** ****** ****** ****** ****** ****** ******
  16  ****** ****** ****** ****** ****** ****** ****** ****** ****** ******
      ****** ****** ****** ****** ****** ****** ****** ****** ****** ******
      ****** ****** ****** ****** ****** ****** ****** ****** ****** ******
  17  ****** ****** ****** ****** ****** ****** ****** ****** ****** ******
      ****** ****** ****** ****** ****** ****** ****** ****** ****** ******
      ****** ****** ****** ****** ****** ****** ****** ****** ****** ******
  18  ****** ****** ****** ****** ****** ****** ****** ****** ****** ******
      ****** ****** ****** ****** ****** ****** ****** ****** ****** ******
      ****** ****** ****** ****** ****** ****** ****** ****** ****** ******
  19  ****** ****** ****** ****** ****** ****** ****** ****** ****** ******
      ****** ****** ****** ****** ****** ****** ****** ****** ****** ******
      ****** ****** ****** ****** ****** ****** ****** ****** ****** ******
  20  ****** ****** ****** ****** ****** ****** ****** ****** ****** ******
      ****** ****** ****** ****** ****** ****** ****** ****** ****** ******
      ****** ****** ****** ****** ****** ****** ****** ****** ****** ******
  21  ****** ****** ****** ****** ****** ****** ****** ****** ****** ******
      ****** ****** ****** ****** ****** ****** ****** ****** ****** ******
      ****** ****** ****** ****** ****** ****** ****** ****** ****** ******
  22  ****** ****** ****** ****** ****** ****** ****** ****** ****** ******
      ****** ****** ****** ****** ****** ****** ****** ****** ****** ******
      ****** ****** ****** ****** ****** ****** ****** ****** ****** ******
  23  ****** ****** ****** ****** ****** ****** ****** ****** ****** ******
      ****** ****** ****** ****** ****** ****** ****** ****** ****** ******
      ****** ****** ****** ****** ****** ****** ****** ****** ****** ******
  24  ****** ****** ****** ****** ****** ****** ****** ****** ****** ******
      ****** ****** ****** ****** ****** ****** ****** ****** ****** ******
      ****** ****** ****** ****** ****** ****** ****** ****** ****** ******
  25  ****** ****** ****** ****** ****** ****** ****** ****** ****** ******
      ****** ****** ****** ****** ****** ****** ****** ****** ****** ******
      ****** ****** ****** ****** ****** ****** ****** ****** ****** ******

 HEAD WILL BE SAVED ON UNIT   51 AT END OF TIME STEP    1, STRESS PERIOD    9
1
  VOLUMETRIC BUDGET FOR ENTIRE MODEL AT END OF TIME STEP    1, STRESS PERIOD   9
  ------------------------------------------------------------------------------

     CUMULATIVE VOLUMES      L**3       RATES FOR THIS TIME STEP      L**3/T
     ------------------                 ------------------------

           IN:                                      IN:
           ---                                      ---
             STORAGE =    24676713.7583               STORAGE =        2567.7159
       CONSTANT HEAD =   145652802.2003         CONSTANT HEAD =      185784.5586
               WELLS =           0.0000                 WELLS =           0.0000
            RECHARGE =    18878400.0000              RECHARGE =       13800.0000
      STREAM LEAKAGE =     5580674.0948        STREAM LEAKAGE =        7099.2982

            TOTAL IN =   194788590.0535              TOTAL IN =      209251.5728

          OUT:                                     OUT:
          ----                                     ----
             STORAGE =     1321822.0515               STORAGE =           0.0000
       CONSTANT HEAD =           0.0000         CONSTANT HEAD =           0.0000
               WELLS =    76671301.6402                 WELLS =       89835.3925
            RECHARGE =           0.0000              RECHARGE =           0.0000
      STREAM LEAKAGE =   116795467.3440        STREAM LEAKAGE =      119416.1832

           TOTAL OUT =   194788591.0358             TOTAL OUT =      209251.5758

            IN - OUT =          -0.9823              IN - OUT =      -2.9897E-03

 PERCENT DISCREPANCY =          -0.00     PERCENT DISCREPANCY =          -0.00






         TIME SUMMARY AT END OF TIME STEP    1 IN STRESS PERIOD    9
                    SECONDS     MINUTES      HOURS       DAYS        YEARS
                    -----------------------------------------------------------
   TIME STEP LENGTH 7.94880E+06 1.32480E+05  2208.0      92.000     0.25188    
 STRESS PERIOD TIME 7.94880E+06 1.32480E+05  2208.0      92.000     0.25188    
         TOTAL TIME 7.10208E+07 1.18368E+06  19728.      822.00      2.2505    
1
1
                            STRESS PERIOD NO.   10, LENGTH =   91.00000    
                            -----------------------------------------------

                              NUMBER OF TIME STEPS =     1

                               MULTIPLIER FOR DELT =     1.500

                            INITIAL TIME STEP SIZE =   91.00000    

 WELL NO.  LAYER   ROW   COL   STRESS RATE         
 --------------------------------------------------
      1      1     23     21     -0.2847E+05
      2      1     23     12     -0.2965E+05
      3      1     23     17     -0.3172E+05

      3 WELLS

                 RECHARGE =  2.000000E-03

 REUSING STREAM SEGMENT DATA FROM LAST STRESS PERIOD
 
 SOLVING FOR HEAD 


     7 CALLS TO PCG ROUTINE FOR TIME STEP   1 IN STRESS PERIOD   10
    26 TOTAL ITERATIONS

 OUTPUT CONTROL FOR STRESS PERIOD   10   TIME STEP    1
    SAVE BUDGET
    SAVE HEAD FOR ALL LAYERS
    PRINT HEAD FOR ALL LAYERS
 UBDSV2 SAVING "STREAMFLOW OUT  " ON UNIT  50 AT TIME STEP  1, STRESS PERIOD  10



 STREAM LISTING     PERIOD     10   STEP        1

 LAYER ROW COL. STREAM  RCH.  FLOW INTO     FLOW TO   FLOW OUT OF   OVRLND.     DIRECT     STREAM       STREAM     STREAM     STREAM   STREAMBED  STREAMBED
                SEG.NO.  NO.  STRM. RCH.    AQUIFER    STRM. RCH.    RUNOFF     PRECIP       ET          HEAD       DEPTH      WIDTH   CONDCTNC.   GRADIENT

   1   13    1     1     1    1.0000E+05 -3.1378E+03   1.0314E+05  0.000E+00  0.000E+00  0.000E+00  4.84074E+01  1.460E-01  2.000E+01  2.000E+04 -1.569E-01
   1   13    2     1     2    1.0314E+05 -5.1805E+03   1.0832E+05  0.000E+00  0.000E+00  0.000E+00  4.79337E+01  1.496E-01  2.000E+01  2.000E+04 -2.590E-01
   1   14    3     1     3    1.0832E+05 -4.2004E+03   1.1252E+05  0.000E+00  0.000E+00  0.000E+00  4.74603E+01  1.535E-01  2.000E+01  2.000E+04 -2.100E-01
   1   15    4     1     4    1.1252E+05 -4.0409E+03   1.1656E+05  0.000E+00  0.000E+00  0.000E+00  4.69865E+01  1.569E-01  2.000E+01  2.000E+04 -2.020E-01
   1   16    5     1     5    1.1656E+05 -4.1587E+03   1.2072E+05  0.000E+00  0.000E+00  0.000E+00  4.65125E+01  1.603E-01  2.000E+01  2.000E+04 -2.079E-01
   1   16    6     1     6    1.2072E+05 -3.2440E+03   1.2396E+05  0.000E+00  0.000E+00  0.000E+00  4.60383E+01  1.633E-01  2.000E+01  2.000E+04 -1.622E-01
   1   16    7     1     7    1.2396E+05 -3.2349E+03   1.2720E+05  0.000E+00  0.000E+00  0.000E+00  4.55636E+01  1.658E-01  2.000E+01  2.000E+04 -1.617E-01
   1   16    8     1     8    1.2720E+05 -3.1668E+03   1.3036E+05  0.000E+00  0.000E+00  0.000E+00  4.50888E+01  1.684E-01  2.000E+01  2.000E+04 -1.583E-01
   1   16    9     1     9    1.3036E+05 -3.0291E+03   1.3339E+05  0.000E+00  0.000E+00  0.000E+00  4.46140E+01  1.708E-01  2.000E+01  2.000E+04 -1.515E-01
   1   16   10     1    10    1.3339E+05 -2.8272E+03   1.3622E+05  0.000E+00  0.000E+00  0.000E+00  4.41390E+01  1.730E-01  2.000E+01  2.000E+04 -1.414E-01
   1   16   11     1    11    1.3622E+05 -2.5708E+03   1.3879E+05  0.000E+00  0.000E+00  0.000E+00  4.36637E+01  1.751E-01  2.000E+01  2.000E+04 -1.285E-01
   1   16   12     1    12    1.3879E+05 -2.8037E+03   1.4159E+05  0.000E+00  0.000E+00  0.000E+00  4.31885E+01  1.772E-01  2.000E+01  2.000E+04 -1.402E-01
   1   15   13     1    13    1.4159E+05 -3.1753E+03   1.4477E+05  0.000E+00  0.000E+00  0.000E+00  4.27135E+01  1.794E-01  2.000E+01  2.000E+04 -1.588E-01
   1   14   14     1    14    1.4477E+05 -3.5825E+03   1.4835E+05  0.000E+00  0.000E+00  0.000E+00  4.22388E+01  1.819E-01  2.000E+01  2.000E+04 -1.791E-01
   1   13   15     1    15    1.4835E+05 -4.1554E+03   1.5251E+05  0.000E+00  0.000E+00  0.000E+00  4.17644E+01  1.848E-01  2.000E+01  2.000E+04 -2.078E-01
   1   12   16     1    16    1.5251E+05 -5.6629E+03   1.5817E+05  0.000E+00  0.000E+00  0.000E+00  4.12907E+01  1.884E-01  2.000E+01  2.000E+04 -2.831E-01
   1   12   17     1    17    1.5817E+05 -3.6200E+03   1.6179E+05  0.000E+00  0.000E+00  0.000E+00  4.08168E+01  1.918E-01  2.000E+01  2.000E+04 -1.810E-01
   1   12   18     1    18    1.6179E+05 -3.4800E+03   1.6527E+05  0.000E+00  0.000E+00  0.000E+00  4.03420E+01  1.943E-01  2.000E+01  2.000E+04 -1.740E-01
   1   12   19     1    19    1.6527E+05 -4.6813E+03   1.6995E+05  0.000E+00  0.000E+00  0.000E+00  3.98677E+01  1.972E-01  2.000E+01  2.000E+04 -2.341E-01
   1   13   20     1    20    1.6995E+05 -2.7923E+03   1.7274E+05  0.000E+00  0.000E+00  0.000E+00  3.93930E+01  1.998E-01  2.000E+01  2.000E+04 -1.396E-01
   1   14   21     1    21    1.7274E+05 -1.6064E+03   1.7435E+05  0.000E+00  0.000E+00  0.000E+00  3.89173E+01  2.014E-01  2.000E+01  2.000E+04 -8.032E-02
   1   14   22     1    22    1.7435E+05  5.0753E+03   1.6928E+05  0.000E+00  0.000E+00  0.000E+00  3.84388E+01  2.002E-01  2.000E+01  2.000E+04  2.538E-01
   1    9   30     2     1    5.0000E+04 -3.0426E+03   5.3043E+04  0.000E+00  0.000E+00  0.000E+00  4.02430E+01  1.180E-01  2.000E+01  2.000E+04 -1.521E-01
   1    9   29     2     2    5.3043E+04 -3.3725E+03   5.6415E+04  0.000E+00  0.000E+00  0.000E+00  3.99973E+01  1.223E-01  2.000E+01  2.000E+04 -1.686E-01
   1    9   28     2     3    5.6415E+04 -3.7519E+03   6.0167E+04  0.000E+00  0.000E+00  0.000E+00  3.97520E+01  1.270E-01  2.000E+01  2.000E+04 -1.876E-01
   1    9   27     2     4    6.0167E+04 -6.5705E+03   6.6738E+04  0.000E+00  0.000E+00  0.000E+00  3.95087E+01  1.337E-01  2.000E+01  2.000E+04 -3.285E-01
   1   10   26     2     5    6.6738E+04 -4.2123E+03   7.0950E+04  0.000E+00  0.000E+00  0.000E+00  3.92654E+01  1.404E-01  2.000E+01  2.000E+04 -2.106E-01
   1   11   25     2     6    7.0950E+04 -3.1514E+03   7.4101E+04  0.000E+00  0.000E+00  0.000E+00  3.90198E+01  1.448E-01  2.000E+01  2.000E+04 -1.576E-01
   1   12   24     2     7    7.4101E+04 -2.2639E+03   7.6365E+04  0.000E+00  0.000E+00  0.000E+00  3.87731E+01  1.481E-01  2.000E+01  2.000E+04 -1.132E-01
   1   13   23     2     8    7.6365E+04 -1.3701E+03   7.7735E+04  0.000E+00  0.000E+00  0.000E+00  3.85252E+01  1.502E-01  2.000E+01  2.000E+04 -6.851E-02
   1   14   22     2     9    7.7735E+04  1.7983E+03   7.5937E+04  0.000E+00  0.000E+00  0.000E+00  3.82749E+01  1.499E-01  2.000E+01  2.000E+04  8.992E-02
   1   14   22     3     1    2.4521E+05 -8.4350E+03   2.5365E+05  0.000E+00  0.000E+00  0.000E+00  3.77633E+01  2.077E-01  2.000E+01  2.000E+04 -4.218E-01
   1   15   23     3     2    2.5365E+05 -2.1454E+03   2.5579E+05  0.000E+00  0.000E+00  0.000E+00  3.68770E+01  2.103E-01  2.000E+01  2.000E+04 -1.073E-01
   1   15   24     3     3    2.5579E+05 -1.7257E+03   2.5752E+05  0.000E+00  0.000E+00  0.000E+00  3.59891E+01  2.113E-01  2.000E+01  2.000E+04 -8.629E-02
   1   15   25     3     4    2.5752E+05 -1.7799E+03   2.5930E+05  0.000E+00  0.000E+00  0.000E+00  3.51011E+01  2.122E-01  2.000E+01  2.000E+04 -8.900E-02
   1   15   26     3     5    2.5930E+05 -2.3664E+03   2.6167E+05  0.000E+00  0.000E+00  0.000E+00  3.42132E+01  2.132E-01  2.000E+01  2.000E+04 -1.183E-01
   1   16   27     3     6    2.6167E+05 -3.1337E+03   2.6480E+05  0.000E+00  0.000E+00  0.000E+00  3.33256E+01  2.145E-01  2.000E+01  2.000E+04 -1.567E-01
   1   17   28     3     7    2.6480E+05 -3.9419E+03   2.6874E+05  0.000E+00  0.000E+00  0.000E+00  3.24385E+01  2.163E-01  2.000E+01  2.000E+04 -1.971E-01
   1   18   29     3     8    2.6874E+05 -5.5804E+03   2.7432E+05  0.000E+00  0.000E+00  0.000E+00  3.15519E+01  2.186E-01  2.000E+01  2.000E+04 -2.790E-01
   1   18   30     3     9    2.7432E+05 -4.8466E+03   2.7917E+05  0.000E+00  0.000E+00  0.000E+00  3.06655E+01  2.211E-01  2.000E+01  2.000E+04 -2.423E-01



1
              HEAD IN LAYER   1 AT END OF TIME STEP   1 IN STRESS PERIOD   10
  ---------------------------------------------------------------------------

          1      2      3      4      5      6      7      8      9     10
         11     12     13     14     15     16     17     18     19     20
         21     22     23     24     25     26     27     28     29     30
 .........................................................................
   1  ****** ****** ****** ****** ****** ****** ****** ****** ****** ******
      ****** ****** ****** ****** ****** ****** ****** ****** ****** ******
      ****** ****** ****** ****** ****** ****** ****** ****** ****** ******
   2  ****** ****** ****** ****** ****** ****** ****** ****** ****** ******
      ****** ****** ****** ****** ****** ****** ****** ****** ****** ******
      ****** ****** ****** ****** ****** ****** ****** ****** ****** ******
   3  ****** ****** ****** ****** ****** ****** ****** ****** ****** ******
      ****** ****** ****** ****** ****** ****** ****** ****** ****** ******
      ****** ****** ****** ****** ****** ****** ****** ****** ****** ******
   4  ****** ****** ****** ****** ****** ****** ****** ****** ****** ******
      ****** ****** ****** ****** ****** ****** ****** ****** ****** ******
      ****** ****** ****** ****** ****** ****** ****** ****** ****** ******
   5  ****** ****** ****** ****** ****** ****** ****** ****** ****** ******
      ****** ****** ****** ****** ****** ****** ****** ****** ****** ******
      ****** ****** ****** ****** ****** ****** ****** ****** ****** ******
   6  ****** ****** ****** ****** ****** ****** ****** ****** ****** ******
      ****** ****** ****** ****** ****** ****** ****** ****** ****** ******
      ****** ****** ****** ****** ****** ****** ****** ****** ****** ******
   7  ****** ****** ****** ****** ****** ****** ****** ****** ****** ******
      ****** ****** ****** ****** ****** ****** ****** ****** ****** ******
      ****** ****** ****** ****** ****** ****** ****** ****** ****** ******
   8  ****** ****** ****** ****** ****** ****** ****** ****** ****** ******
      ****** ****** ****** ****** ****** ****** ****** ****** ****** ******
      ****** ****** ****** ****** ****** ****** ****** ****** ****** ******
   9  ****** ****** ****** ****** ****** ****** ****** ****** ****** ******
      ****** ****** ****** ****** ****** ****** ****** ****** ****** ******
      ****** ****** ****** ****** ****** ****** ****** ****** ****** ******
  10  ****** ****** ****** ****** ****** ****** ****** ****** ****** ******
      ****** ****** ****** ****** ****** ****** ****** ****** ****** ******
      ****** ****** ****** ****** ****** ****** ****** ****** ****** ******
  11  ****** ****** ****** ****** ****** ****** ****** ****** ****** ******
      ****** ****** ****** ****** ****** ****** ****** ****** ****** ******
      ****** ****** ****** ****** ****** ****** ****** ****** ****** ******
  12  ****** ****** ****** ****** ****** ****** ****** ****** ****** ******
      ****** ****** ****** ****** ****** ****** ****** ****** ****** ******
      ****** ****** ****** ****** ****** ****** ****** ****** ****** ******
  13  ****** ****** ****** ****** ****** ****** ****** ****** ****** ******
      ****** ****** ****** ****** ****** ****** ****** ****** ****** ******
      ****** ****** ****** ****** ****** ****** ****** ****** ****** ******
  14  ****** ****** ****** ****** ****** ****** ****** ****** ****** ******
      ****** ****** ****** ****** ****** ****** ****** ****** ****** ******
      ****** ****** ****** ****** ****** ****** ****** ****** ****** ******
  15  ****** ****** ****** ****** ****** ****** ****** ****** ****** ******
      ****** ****** ****** ****** ****** ****** ****** ****** ****** ******
      ****** ****** ****** ****** ****** ****** ****** ****** ****** ******
  16  ****** ****** ****** ****** ****** ****** ****** ****** ****** ******
      ****** ****** ****** ****** ****** ****** ****** ****** ****** ******
      ****** ****** ****** ****** ****** ****** ****** ****** ****** ******
  17  ****** ****** ****** ****** ****** ****** ****** ****** ****** ******
      ****** ****** ****** ****** ****** ****** ****** ****** ****** ******
      ****** ****** ****** ****** ****** ****** ****** ****** ****** ******
  18  ****** ****** ****** ****** ****** ****** ****** ****** ****** ******
      ****** ****** ****** ****** ****** ****** ****** ****** ****** ******
      ****** ****** ****** ****** ****** ****** ****** ****** ****** ******
  19  ****** ****** ****** ****** ****** ****** ****** ****** ****** ******
      ****** ****** ****** ****** ****** ****** ****** ****** ****** ******
      ****** ****** ****** ****** ****** ****** ****** ****** ****** ******
  20  ****** ****** ****** ****** ****** ****** ****** ****** ****** ******
      ****** ****** ****** ****** ****** ****** ****** ****** ****** ******
      ****** ****** ****** ****** ****** ****** ****** ****** ****** ******
  21  ****** ****** ****** ****** ****** ****** ****** ****** ****** ******
      ****** ****** ****** ****** ****** ****** ****** ****** ****** ******
      ****** ****** ****** ****** ****** ****** ****** ****** ****** ******
  22  ****** ****** ****** ****** ****** ****** ****** ****** ****** ******
      ****** ****** ****** ****** ****** ****** ****** ****** ****** ******
      ****** ****** ****** ****** ****** ****** ****** ****** ****** ******
  23  ****** ****** ****** ****** ****** ****** ****** ****** ****** ******
      ****** ****** ****** ****** ****** ****** ****** ****** ****** ******
      ****** ****** ****** ****** ****** ****** ****** ****** ****** ******
  24  ****** ****** ****** ****** ****** ****** ****** ****** ****** ******
      ****** ****** ****** ****** ****** ****** ****** ****** ****** ******
      ****** ****** ****** ****** ****** ****** ****** ****** ****** ******
  25  ****** ****** ****** ****** ****** ****** ****** ****** ****** ******
      ****** ****** ****** ****** ****** ****** ****** ****** ****** ******
      ****** ****** ****** ****** ****** ****** ****** ****** ****** ******

 HEAD WILL BE SAVED ON UNIT   51 AT END OF TIME STEP    1, STRESS PERIOD   10
1
  VOLUMETRIC BUDGET FOR ENTIRE MODEL AT END OF TIME STEP    1, STRESS PERIOD  10
  ------------------------------------------------------------------------------

     CUMULATIVE VOLUMES      L**3       RATES FOR THIS TIME STEP      L**3/T
     ------------------                 ------------------------

           IN:                                      IN:
           ---                                      ---
             STORAGE =    24676713.7583               STORAGE =           0.0000
       CONSTANT HEAD =   161541119.5552         CONSTANT HEAD =      174596.8940
               WELLS =           0.0000                 WELLS =           0.0000
            RECHARGE =    23901600.0000              RECHARGE =       55200.0000
      STREAM LEAKAGE =     6206171.5965        STREAM LEAKAGE =        6873.5989

            TOTAL IN =   216325604.9100              TOTAL IN =      236670.4929

          OUT:                                     OUT:
          ----                                     ----
             STORAGE =     2304046.8487               STORAGE =       10793.6791
       CONSTANT HEAD =           0.0000         CONSTANT HEAD =           0.0000
               WELLS =    84846322.3610                 WELLS =       89835.3925
            RECHARGE =           0.0000              RECHARGE =           0.0000
      STREAM LEAKAGE =   129175236.5260        STREAM LEAKAGE =      136041.4196

           TOTAL OUT =   216325605.7357             TOTAL OUT =      236670.4912

            IN - OUT =          -0.8257              IN - OUT =       1.7213E-03

 PERCENT DISCREPANCY =          -0.00     PERCENT DISCREPANCY =           0.00






         TIME SUMMARY AT END OF TIME STEP    1 IN STRESS PERIOD   10
                    SECONDS     MINUTES      HOURS       DAYS        YEARS
                    -----------------------------------------------------------
   TIME STEP LENGTH 7.86240E+06 1.31040E+05  2184.0      91.000     0.24914    
 STRESS PERIOD TIME 7.86240E+06 1.31040E+05  2184.0      91.000     0.24914    
         TOTAL TIME 7.88832E+07 1.31472E+06  21912.      913.00      2.4997    
1
1
                            STRESS PERIOD NO.   11, LENGTH =   91.00000    
                            -----------------------------------------------

                              NUMBER OF TIME STEPS =     1

                               MULTIPLIER FOR DELT =     1.500

                            INITIAL TIME STEP SIZE =   91.00000    

 WELL NO.  LAYER   ROW   COL   STRESS RATE         
 --------------------------------------------------
      1      1     23     21     -0.2847E+05
      2      1     23     12     -0.2965E+05
      3      1     23     17     -0.3172E+05

      3 WELLS

                 RECHARGE =   0.00000    

 REUSING STREAM SEGMENT DATA FROM LAST STRESS PERIOD
 
 SOLVING FOR HEAD 


     7 CALLS TO PCG ROUTINE FOR TIME STEP   1 IN STRESS PERIOD   11
    26 TOTAL ITERATIONS

 OUTPUT CONTROL FOR STRESS PERIOD   11   TIME STEP    1
    SAVE BUDGET
    SAVE HEAD FOR ALL LAYERS
    PRINT HEAD FOR ALL LAYERS
 UBDSV2 SAVING "STREAMFLOW OUT  " ON UNIT  50 AT TIME STEP  1, STRESS PERIOD  11



 STREAM LISTING     PERIOD     11   STEP        1

 LAYER ROW COL. STREAM  RCH.  FLOW INTO     FLOW TO   FLOW OUT OF   OVRLND.     DIRECT     STREAM       STREAM     STREAM     STREAM   STREAMBED  STREAMBED
                SEG.NO.  NO.  STRM. RCH.    AQUIFER    STRM. RCH.    RUNOFF     PRECIP       ET          HEAD       DEPTH      WIDTH   CONDCTNC.   GRADIENT

   1   13    1     1     1    1.0000E+05 -2.6537E+03   1.0265E+05  0.000E+00  0.000E+00  0.000E+00  4.84072E+01  1.458E-01  2.000E+01  2.000E+04 -1.327E-01
   1   13    2     1     2    1.0265E+05 -4.5476E+03   1.0720E+05  0.000E+00  0.000E+00  0.000E+00  4.79330E+01  1.489E-01  2.000E+01  2.000E+04 -2.274E-01
   1   14    3     1     3    1.0720E+05 -3.5458E+03   1.1075E+05  0.000E+00  0.000E+00  0.000E+00  4.74591E+01  1.523E-01  2.000E+01  2.000E+04 -1.773E-01
   1   15    4     1     4    1.1075E+05 -3.3895E+03   1.1414E+05  0.000E+00  0.000E+00  0.000E+00  4.69847E+01  1.552E-01  2.000E+01  2.000E+04 -1.695E-01
   1   16    5     1     5    1.1414E+05 -3.5576E+03   1.1769E+05  0.000E+00  0.000E+00  0.000E+00  4.65103E+01  1.581E-01  2.000E+01  2.000E+04 -1.779E-01
   1   16    6     1     6    1.1769E+05 -2.7685E+03   1.2046E+05  0.000E+00  0.000E+00  0.000E+00  4.60356E+01  1.606E-01  2.000E+01  2.000E+04 -1.384E-01
   1   16    7     1     7    1.2046E+05 -2.7525E+03   1.2322E+05  0.000E+00  0.000E+00  0.000E+00  4.55606E+01  1.629E-01  2.000E+01  2.000E+04 -1.376E-01
   1   16    8     1     8    1.2322E+05 -2.6804E+03   1.2590E+05  0.000E+00  0.000E+00  0.000E+00  4.50855E+01  1.650E-01  2.000E+01  2.000E+04 -1.340E-01
   1   16    9     1     9    1.2590E+05 -2.5429E+03   1.2844E+05  0.000E+00  0.000E+00  0.000E+00  4.46103E+01  1.671E-01  2.000E+01  2.000E+04 -1.271E-01
   1   16   10     1    10    1.2844E+05 -2.3452E+03   1.3078E+05  0.000E+00  0.000E+00  0.000E+00  4.41349E+01  1.690E-01  2.000E+01  2.000E+04 -1.173E-01
   1   16   11     1    11    1.3078E+05 -2.0951E+03   1.3288E+05  0.000E+00  0.000E+00  0.000E+00  4.36594E+01  1.707E-01  2.000E+01  2.000E+04 -1.048E-01
   1   16   12     1    12    1.3288E+05 -2.1951E+03   1.3507E+05  0.000E+00  0.000E+00  0.000E+00  4.31838E+01  1.724E-01  2.000E+01  2.000E+04 -1.098E-01
   1   15   13     1    13    1.3507E+05 -2.5123E+03   1.3759E+05  0.000E+00  0.000E+00  0.000E+00  4.27083E+01  1.742E-01  2.000E+01  2.000E+04 -1.256E-01
   1   14   14     1    14    1.3759E+05 -2.9083E+03   1.4049E+05  0.000E+00  0.000E+00  0.000E+00  4.22331E+01  1.763E-01  2.000E+01  2.000E+04 -1.454E-01
   1   13   15     1    15    1.4049E+05 -3.4930E+03   1.4399E+05  0.000E+00  0.000E+00  0.000E+00  4.17583E+01  1.787E-01  2.000E+01  2.000E+04 -1.747E-01
   1   12   16     1    16    1.4399E+05 -5.0356E+03   1.4902E+05  0.000E+00  0.000E+00  0.000E+00  4.12842E+01  1.819E-01  2.000E+01  2.000E+04 -2.518E-01
   1   12   17     1    17    1.4902E+05 -3.1468E+03   1.5217E+05  0.000E+00  0.000E+00  0.000E+00  4.08099E+01  1.849E-01  2.000E+01  2.000E+04 -1.573E-01
   1   12   18     1    18    1.5217E+05 -3.0135E+03   1.5518E+05  0.000E+00  0.000E+00  0.000E+00  4.03349E+01  1.872E-01  2.000E+01  2.000E+04 -1.507E-01
   1   12   19     1    19    1.5518E+05 -4.1124E+03   1.5930E+05  0.000E+00  0.000E+00  0.000E+00  3.98602E+01  1.898E-01  2.000E+01  2.000E+04 -2.056E-01
   1   13   20     1    20    1.5930E+05 -2.2298E+03   1.6153E+05  0.000E+00  0.000E+00  0.000E+00  3.93853E+01  1.921E-01  2.000E+01  2.000E+04 -1.115E-01
   1   14   21     1    21    1.6153E+05 -1.0920E+03   1.6262E+05  0.000E+00  0.000E+00  0.000E+00  3.89092E+01  1.933E-01  2.000E+01  2.000E+04 -5.460E-02
   1   14   22     1    22    1.6262E+05  5.1757E+03   1.5744E+05  0.000E+00  0.000E+00  0.000E+00  3.84304E+01  1.918E-01  2.000E+01  2.000E+04  2.588E-01
   1    9   30     2     1    5.0000E+04 -2.6012E+03   5.2601E+04  0.000E+00  0.000E+00  0.000E+00  4.02427E+01  1.177E-01  2.000E+01  2.000E+04 -1.301E-01
   1    9   29     2     2    5.2601E+04 -2.9348E+03   5.5536E+04  0.000E+00  0.000E+00  0.000E+00  3.99964E+01  1.214E-01  2.000E+01  2.000E+04 -1.467E-01
   1    9   28     2     3    5.5536E+04 -3.3178E+03   5.8854E+04  0.000E+00  0.000E+00  0.000E+00  3.97506E+01  1.256E-01  2.000E+01  2.000E+04 -1.659E-01
   1    9   27     2     4    5.8854E+04 -5.9988E+03   6.4853E+04  0.000E+00  0.000E+00  0.000E+00  3.95066E+01  1.316E-01  2.000E+01  2.000E+04 -2.999E-01
   1   10   26     2     5    6.4853E+04 -3.6147E+03   6.8467E+04  0.000E+00  0.000E+00  0.000E+00  3.92627E+01  1.377E-01  2.000E+01  2.000E+04 -1.807E-01
   1   11   25     2     6    6.8467E+04 -2.5770E+03   7.1044E+04  0.000E+00  0.000E+00  0.000E+00  3.90165E+01  1.415E-01  2.000E+01  2.000E+04 -1.289E-01
   1   12   24     2     7    7.1044E+04 -1.7527E+03   7.2797E+04  0.000E+00  0.000E+00  0.000E+00  3.87691E+01  1.441E-01  2.000E+01  2.000E+04 -8.763E-02
   1   13   23     2     8    7.2797E+04 -9.6722E+02   7.3764E+04  0.000E+00  0.000E+00  0.000E+00  3.85207E+01  1.457E-01  2.000E+01  2.000E+04 -4.836E-02
   1   14   22     2     9    7.3764E+04  1.9698E+03   7.1794E+04  0.000E+00  0.000E+00  0.000E+00  3.82701E+01  1.451E-01  2.000E+01  2.000E+04  9.849E-02
   1   14   22     3     1    2.2924E+05 -8.3298E+03   2.3757E+05  0.000E+00  0.000E+00  0.000E+00  3.77552E+01  1.996E-01  2.000E+01  2.000E+04 -4.165E-01
   1   15   23     3     2    2.3757E+05 -1.6646E+03   2.3923E+05  0.000E+00  0.000E+00  0.000E+00  3.68688E+01  2.022E-01  2.000E+01  2.000E+04 -8.323E-02
   1   15   24     3     3    2.3923E+05 -1.3710E+03   2.4060E+05  0.000E+00  0.000E+00  0.000E+00  3.59807E+01  2.029E-01  2.000E+01  2.000E+04 -6.855E-02
   1   15   25     3     4    2.4060E+05 -1.4214E+03   2.4202E+05  0.000E+00  0.000E+00  0.000E+00  3.50925E+01  2.036E-01  2.000E+01  2.000E+04 -7.107E-02
   1   15   26     3     5    2.4202E+05 -1.9023E+03   2.4393E+05  0.000E+00  0.000E+00  0.000E+00  3.42045E+01  2.045E-01  2.000E+01  2.000E+04 -9.511E-02
   1   16   27     3     6    2.4393E+05 -2.5578E+03   2.4648E+05  0.000E+00  0.000E+00  0.000E+00  3.33167E+01  2.056E-01  2.000E+01  2.000E+04 -1.279E-01
   1   17   28     3     7    2.4648E+05 -3.3555E+03   2.4984E+05  0.000E+00  0.000E+00  0.000E+00  3.24293E+01  2.071E-01  2.000E+01  2.000E+04 -1.678E-01
   1   18   29     3     8    2.4984E+05 -5.0340E+03   2.5487E+05  0.000E+00  0.000E+00  0.000E+00  3.15425E+01  2.092E-01  2.000E+01  2.000E+04 -2.517E-01
   1   18   30     3     9    2.5487E+05 -4.4298E+03   2.5930E+05  0.000E+00  0.000E+00  0.000E+00  3.06560E+01  2.115E-01  2.000E+01  2.000E+04 -2.215E-01



1
              HEAD IN LAYER   1 AT END OF TIME STEP   1 IN STRESS PERIOD   11
  ---------------------------------------------------------------------------

          1      2      3      4      5      6      7      8      9     10
         11     12     13     14     15     16     17     18     19     20
         21     22     23     24     25     26     27     28     29     30
 .........................................................................
   1  ****** ****** ****** ****** ****** ****** ****** ****** ****** ******
      ****** ****** ****** ****** ****** ****** ****** ****** ****** ******
      ****** ****** ****** ****** ****** ****** ****** ****** ****** ******
   2  ****** ****** ****** ****** ****** ****** ****** ****** ****** ******
      ****** ****** ****** ****** ****** ****** ****** ****** ****** ******
      ****** ****** ****** ****** ****** ****** ****** ****** ****** ******
   3  ****** ****** ****** ****** ****** ****** ****** ****** ****** ******
      ****** ****** ****** ****** ****** ****** ****** ****** ****** ******
      ****** ****** ****** ****** ****** ****** ****** ****** ****** ******
   4  ****** ****** ****** ****** ****** ****** ****** ****** ****** ******
      ****** ****** ****** ****** ****** ****** ****** ****** ****** ******
      ****** ****** ****** ****** ****** ****** ****** ****** ****** ******
   5  ****** ****** ****** ****** ****** ****** ****** ****** ****** ******
      ****** ****** ****** ****** ****** ****** ****** ****** ****** ******
      ****** ****** ****** ****** ****** ****** ****** ****** ****** ******
   6  ****** ****** ****** ****** ****** ****** ****** ****** ****** ******
      ****** ****** ****** ****** ****** ****** ****** ****** ****** ******
      ****** ****** ****** ****** ****** ****** ****** ****** ****** ******
   7  ****** ****** ****** ****** ****** ****** ****** ****** ****** ******
      ****** ****** ****** ****** ****** ****** ****** ****** ****** ******
      ****** ****** ****** ****** ****** ****** ****** ****** ****** ******
   8  ****** ****** ****** ****** ****** ****** ****** ****** ****** ******
      ****** ****** ****** ****** ****** ****** ****** ****** ****** ******
      ****** ****** ****** ****** ****** ****** ****** ****** ****** ******
   9  ****** ****** ****** ****** ****** ****** ****** ****** ****** ******
      ****** ****** ****** ****** ****** ****** ****** ****** ****** ******
      ****** ****** ****** ****** ****** ****** ****** ****** ****** ******
  10  ****** ****** ****** ****** ****** ****** ****** ****** ****** ******
      ****** ****** ****** ****** ****** ****** ****** ****** ****** ******
      ****** ****** ****** ****** ****** ****** ****** ****** ****** ******
  11  ****** ****** ****** ****** ****** ****** ****** ****** ****** ******
      ****** ****** ****** ****** ****** ****** ****** ****** ****** ******
      ****** ****** ****** ****** ****** ****** ****** ****** ****** ******
  12  ****** ****** ****** ****** ****** ****** ****** ****** ****** ******
      ****** ****** ****** ****** ****** ****** ****** ****** ****** ******
      ****** ****** ****** ****** ****** ****** ****** ****** ****** ******
  13  ****** ****** ****** ****** ****** ****** ****** ****** ****** ******
      ****** ****** ****** ****** ****** ****** ****** ****** ****** ******
      ****** ****** ****** ****** ****** ****** ****** ****** ****** ******
  14  ****** ****** ****** ****** ****** ****** ****** ****** ****** ******
      ****** ****** ****** ****** ****** ****** ****** ****** ****** ******
      ****** ****** ****** ****** ****** ****** ****** ****** ****** ******
  15  ****** ****** ****** ****** ****** ****** ****** ****** ****** ******
      ****** ****** ****** ****** ****** ****** ****** ****** ****** ******
      ****** ****** ****** ****** ****** ****** ****** ****** ****** ******
  16  ****** ****** ****** ****** ****** ****** ****** ****** ****** ******
      ****** ****** ****** ****** ****** ****** ****** ****** ****** ******
      ****** ****** ****** ****** ****** ****** ****** ****** ****** ******
  17  ****** ****** ****** ****** ****** ****** ****** ****** ****** ******
      ****** ****** ****** ****** ****** ****** ****** ****** ****** ******
      ****** ****** ****** ****** ****** ****** ****** ****** ****** ******
  18  ****** ****** ****** ****** ****** ****** ****** ****** ****** ******
      ****** ****** ****** ****** ****** ****** ****** ****** ****** ******
      ****** ****** ****** ****** ****** ****** ****** ****** ****** ******
  19  ****** ****** ****** ****** ****** ****** ****** ****** ****** ******
      ****** ****** ****** ****** ****** ****** ****** ****** ****** ******
      ****** ****** ****** ****** ****** ****** ****** ****** ****** ******
  20  ****** ****** ****** ****** ****** ****** ****** ****** ****** ******
      ****** ****** ****** ****** ****** ****** ****** ****** ****** ******
      ****** ****** ****** ****** ****** ****** ****** ****** ****** ******
  21  ****** ****** ****** ****** ****** ****** ****** ****** ****** ******
      ****** ****** ****** ****** ****** ****** ****** ****** ****** ******
      ****** ****** ****** ****** ****** ****** ****** ****** ****** ******
  22  ****** ****** ****** ****** ****** ****** ****** ****** ****** ******
      ****** ****** ****** ****** ****** ****** ****** ****** ****** ******
      ****** ****** ****** ****** ****** ****** ****** ****** ****** ******
  23  ****** ****** ****** ****** ****** ****** ****** ****** ****** ******
      ****** ****** ****** ****** ****** ****** ****** ****** ****** ******
      ****** ****** ****** ****** ****** ****** ****** ****** ****** ******
  24  ****** ****** ****** ****** ****** ****** ****** ****** ****** ******
      ****** ****** ****** ****** ****** ****** ****** ****** ****** ******
      ****** ****** ****** ****** ****** ****** ****** ****** ****** ******
  25  ****** ****** ****** ****** ****** ****** ****** ****** ****** ******
      ****** ****** ****** ****** ****** ****** ****** ****** ****** ******
      ****** ****** ****** ****** ****** ****** ****** ****** ****** ******

 HEAD WILL BE SAVED ON UNIT   51 AT END OF TIME STEP    1, STRESS PERIOD   11
1
  VOLUMETRIC BUDGET FOR ENTIRE MODEL AT END OF TIME STEP    1, STRESS PERIOD  11
  ------------------------------------------------------------------------------

     CUMULATIVE VOLUMES      L**3       RATES FOR THIS TIME STEP      L**3/T
     ------------------                 ------------------------

           IN:                                      IN:
           ---                                      ---
             STORAGE =    25754011.7247               STORAGE =       11838.4392
       CONSTANT HEAD =   178585372.9911         CONSTANT HEAD =      187299.4883
               WELLS =           0.0000                 WELLS =           0.0000
            RECHARGE =    23901600.0000              RECHARGE =           0.0000
      STREAM LEAKAGE =     6856414.6583        STREAM LEAKAGE =        7145.5282

            TOTAL IN =   235097399.3741              TOTAL IN =      206283.4556

          OUT:                                     OUT:
          ----                                     ----
             STORAGE =     2304046.8487               STORAGE =           0.0000
       CONSTANT HEAD =           0.0000         CONSTANT HEAD =           0.0000
               WELLS =    93021343.0818                 WELLS =       89835.3925
            RECHARGE =           0.0000              RECHARGE =           0.0000
      STREAM LEAKAGE =   139772010.4617        STREAM LEAKAGE =      116448.0652

           TOTAL OUT =   235097400.3922             TOTAL OUT =      206283.4578

            IN - OUT =          -1.0181              IN - OUT =      -2.1145E-03

 PERCENT DISCREPANCY =          -0.00     PERCENT DISCREPANCY =          -0.00






         TIME SUMMARY AT END OF TIME STEP    1 IN STRESS PERIOD   11
                    SECONDS     MINUTES      HOURS       DAYS        YEARS
                    -----------------------------------------------------------
   TIME STEP LENGTH 7.86240E+06 1.31040E+05  2184.0      91.000     0.24914    
 STRESS PERIOD TIME 7.86240E+06 1.31040E+05  2184.0      91.000     0.24914    
         TOTAL TIME 8.67456E+07 1.44576E+06  24096.      1004.0      2.7488    
1
1
                            STRESS PERIOD NO.   12, LENGTH =   91.00000    
                            -----------------------------------------------

                              NUMBER OF TIME STEPS =     1

                               MULTIPLIER FOR DELT =     1.500

                            INITIAL TIME STEP SIZE =   91.00000    

 WELL NO.  LAYER   ROW   COL   STRESS RATE         
 --------------------------------------------------
      1      1     23     21     -0.2847E+05
      2      1     23     12     -0.2965E+05
      3      1     23     17     -0.3172E+05

      3 WELLS

                 RECHARGE =  1.000000E-03

 REUSING STREAM SEGMENT DATA FROM LAST STRESS PERIOD
 
 SOLVING FOR HEAD 


     6 CALLS TO PCG ROUTINE FOR TIME STEP   1 IN STRESS PERIOD   12
    23 TOTAL ITERATIONS

 OUTPUT CONTROL FOR STRESS PERIOD   12   TIME STEP    1
    SAVE BUDGET
    SAVE HEAD FOR ALL LAYERS
    PRINT HEAD FOR ALL LAYERS
 UBDSV2 SAVING "STREAMFLOW OUT  " ON UNIT  50 AT TIME STEP  1, STRESS PERIOD  12



 STREAM LISTING     PERIOD     12   STEP        1

 LAYER ROW COL. STREAM  RCH.  FLOW INTO     FLOW TO   FLOW OUT OF   OVRLND.     DIRECT     STREAM       STREAM     STREAM     STREAM   STREAMBED  STREAMBED
                SEG.NO.  NO.  STRM. RCH.    AQUIFER    STRM. RCH.    RUNOFF     PRECIP       ET          HEAD       DEPTH      WIDTH   CONDCTNC.   GRADIENT

   1   13    1     1     1    1.0000E+05 -2.8273E+03   1.0283E+05  0.000E+00  0.000E+00  0.000E+00  4.84072E+01  1.459E-01  2.000E+01  2.000E+04 -1.414E-01
   1   13    2     1     2    1.0283E+05 -4.7656E+03   1.0759E+05  0.000E+00  0.000E+00  0.000E+00  4.79332E+01  1.491E-01  2.000E+01  2.000E+04 -2.383E-01
   1   14    3     1     3    1.0759E+05 -3.7849E+03   1.1138E+05  0.000E+00  0.000E+00  0.000E+00  4.74596E+01  1.527E-01  2.000E+01  2.000E+04 -1.892E-01
   1   15    4     1     4    1.1138E+05 -3.6307E+03   1.1501E+05  0.000E+00  0.000E+00  0.000E+00  4.69854E+01  1.558E-01  2.000E+01  2.000E+04 -1.815E-01
   1   16    5     1     5    1.1501E+05 -3.7803E+03   1.1879E+05  0.000E+00  0.000E+00  0.000E+00  4.65111E+01  1.589E-01  2.000E+01  2.000E+04 -1.890E-01
   1   16    6     1     6    1.1879E+05 -2.9458E+03   1.2173E+05  0.000E+00  0.000E+00  0.000E+00  4.60366E+01  1.616E-01  2.000E+01  2.000E+04 -1.473E-01
   1   16    7     1     7    1.2173E+05 -2.9316E+03   1.2467E+05  0.000E+00  0.000E+00  0.000E+00  4.55617E+01  1.639E-01  2.000E+01  2.000E+04 -1.466E-01
   1   16    8     1     8    1.2467E+05 -2.8606E+03   1.2753E+05  0.000E+00  0.000E+00  0.000E+00  4.50867E+01  1.662E-01  2.000E+01  2.000E+04 -1.430E-01
   1   16    9     1     9    1.2753E+05 -2.7231E+03   1.3025E+05  0.000E+00  0.000E+00  0.000E+00  4.46116E+01  1.684E-01  2.000E+01  2.000E+04 -1.362E-01
   1   16   10     1    10    1.3025E+05 -2.5242E+03   1.3277E+05  0.000E+00  0.000E+00  0.000E+00  4.41364E+01  1.705E-01  2.000E+01  2.000E+04 -1.262E-01
   1   16   11     1    11    1.3277E+05 -2.2722E+03   1.3505E+05  0.000E+00  0.000E+00  0.000E+00  4.36610E+01  1.724E-01  2.000E+01  2.000E+04 -1.136E-01
   1   16   12     1    12    1.3505E+05 -2.4183E+03   1.3746E+05  0.000E+00  0.000E+00  0.000E+00  4.31855E+01  1.742E-01  2.000E+01  2.000E+04 -1.209E-01
   1   15   13     1    13    1.3746E+05 -2.7559E+03   1.4022E+05  0.000E+00  0.000E+00  0.000E+00  4.27102E+01  1.761E-01  2.000E+01  2.000E+04 -1.378E-01
   1   14   14     1    14    1.4022E+05 -3.1545E+03   1.4337E+05  0.000E+00  0.000E+00  0.000E+00  4.22352E+01  1.784E-01  2.000E+01  2.000E+04 -1.577E-01
   1   13   15     1    15    1.4337E+05 -3.7337E+03   1.4711E+05  0.000E+00  0.000E+00  0.000E+00  4.17605E+01  1.810E-01  2.000E+01  2.000E+04 -1.867E-01
   1   12   16     1    16    1.4711E+05 -5.2552E+03   1.5236E+05  0.000E+00  0.000E+00  0.000E+00  4.12866E+01  1.843E-01  2.000E+01  2.000E+04 -2.628E-01
   1   12   17     1    17    1.5236E+05 -3.3206E+03   1.5568E+05  0.000E+00  0.000E+00  0.000E+00  4.08124E+01  1.874E-01  2.000E+01  2.000E+04 -1.660E-01
   1   12   18     1    18    1.5568E+05 -3.1868E+03   1.5887E+05  0.000E+00  0.000E+00  0.000E+00  4.03375E+01  1.898E-01  2.000E+01  2.000E+04 -1.593E-01
   1   12   19     1    19    1.5887E+05 -4.3238E+03   1.6320E+05  0.000E+00  0.000E+00  0.000E+00  3.98630E+01  1.925E-01  2.000E+01  2.000E+04 -2.162E-01
   1   13   20     1    20    1.6320E+05 -2.4488E+03   1.6564E+05  0.000E+00  0.000E+00  0.000E+00  3.93881E+01  1.949E-01  2.000E+01  2.000E+04 -1.224E-01
   1   14   21     1    21    1.6564E+05 -1.2891E+03   1.6693E+05  0.000E+00  0.000E+00  0.000E+00  3.89122E+01  1.963E-01  2.000E+01  2.000E+04 -6.446E-02
   1   14   22     1    22    1.6693E+05  5.1321E+03   1.6180E+05  0.000E+00  0.000E+00  0.000E+00  3.84335E+01  1.949E-01  2.000E+01  2.000E+04  2.566E-01
   1    9   30     2     1    5.0000E+04 -2.7806E+03   5.2781E+04  0.000E+00  0.000E+00  0.000E+00  4.02428E+01  1.178E-01  2.000E+01  2.000E+04 -1.390E-01
   1    9   29     2     2    5.2781E+04 -3.1124E+03   5.5893E+04  0.000E+00  0.000E+00  0.000E+00  3.99968E+01  1.218E-01  2.000E+01  2.000E+04 -1.556E-01
   1    9   28     2     3    5.5893E+04 -3.4929E+03   5.9386E+04  0.000E+00  0.000E+00  0.000E+00  3.97512E+01  1.262E-01  2.000E+01  2.000E+04 -1.746E-01
   1    9   27     2     4    5.9386E+04 -6.2195E+03   6.5605E+04  0.000E+00  0.000E+00  0.000E+00  3.95075E+01  1.325E-01  2.000E+01  2.000E+04 -3.110E-01
   1   10   26     2     5    6.5605E+04 -3.8522E+03   6.9458E+04  0.000E+00  0.000E+00  0.000E+00  3.92638E+01  1.388E-01  2.000E+01  2.000E+04 -1.926E-01
   1   11   25     2     6    6.9458E+04 -2.8081E+03   7.2266E+04  0.000E+00  0.000E+00  0.000E+00  3.90178E+01  1.428E-01  2.000E+01  2.000E+04 -1.404E-01
   1   12   24     2     7    7.2266E+04 -1.9625E+03   7.4228E+04  0.000E+00  0.000E+00  0.000E+00  3.87707E+01  1.457E-01  2.000E+01  2.000E+04 -9.812E-02
   1   13   23     2     8    7.4228E+04 -1.1377E+03   7.5366E+04  0.000E+00  0.000E+00  0.000E+00  3.85225E+01  1.475E-01  2.000E+01  2.000E+04 -5.688E-02
   1   14   22     2     9    7.5366E+04  1.9030E+03   7.3463E+04  0.000E+00  0.000E+00  0.000E+00  3.82721E+01  1.471E-01  2.000E+01  2.000E+04  9.515E-02
   1   14   22     3     1    2.3526E+05 -8.3738E+03   2.4364E+05  0.000E+00  0.000E+00  0.000E+00  3.77582E+01  2.027E-01  2.000E+01  2.000E+04 -4.187E-01
   1   15   23     3     2    2.4364E+05 -1.8495E+03   2.4549E+05  0.000E+00  0.000E+00  0.000E+00  3.68719E+01  2.053E-01  2.000E+01  2.000E+04 -9.248E-02
   1   15   24     3     3    2.4549E+05 -1.5156E+03   2.4700E+05  0.000E+00  0.000E+00  0.000E+00  3.59839E+01  2.061E-01  2.000E+01  2.000E+04 -7.578E-02
   1   15   25     3     4    2.4700E+05 -1.5707E+03   2.4857E+05  0.000E+00  0.000E+00  0.000E+00  3.50958E+01  2.069E-01  2.000E+01  2.000E+04 -7.854E-02
   1   15   26     3     5    2.4857E+05 -2.0973E+03   2.5067E+05  0.000E+00  0.000E+00  0.000E+00  3.42078E+01  2.078E-01  2.000E+01  2.000E+04 -1.049E-01
   1   16   27     3     6    2.5067E+05 -2.7925E+03   2.5346E+05  0.000E+00  0.000E+00  0.000E+00  3.33201E+01  2.090E-01  2.000E+01  2.000E+04 -1.396E-01
   1   17   28     3     7    2.5346E+05 -3.5927E+03   2.5706E+05  0.000E+00  0.000E+00  0.000E+00  3.24328E+01  2.106E-01  2.000E+01  2.000E+04 -1.796E-01
   1   18   29     3     8    2.5706E+05 -5.2508E+03   2.6231E+05  0.000E+00  0.000E+00  0.000E+00  3.15461E+01  2.128E-01  2.000E+01  2.000E+04 -2.625E-01
   1   18   30     3     9    2.6231E+05 -4.6006E+03   2.6691E+05  0.000E+00  0.000E+00  0.000E+00  3.06597E+01  2.152E-01  2.000E+01  2.000E+04 -2.300E-01



1
              HEAD IN LAYER   1 AT END OF TIME STEP   1 IN STRESS PERIOD   12
  ---------------------------------------------------------------------------

          1      2      3      4      5      6      7      8      9     10
         11     12     13     14     15     16     17     18     19     20
         21     22     23     24     25     26     27     28     29     30
 .........................................................................
   1  ****** ****** ****** ****** ****** ****** ****** ****** ****** ******
      ****** ****** ****** ****** ****** ****** ****** ****** ****** ******
      ****** ****** ****** ****** ****** ****** ****** ****** ****** ******
   2  ****** ****** ****** ****** ****** ****** ****** ****** ****** ******
      ****** ****** ****** ****** ****** ****** ****** ****** ****** ******
      ****** ****** ****** ****** ****** ****** ****** ****** ****** ******
   3  ****** ****** ****** ****** ****** ****** ****** ****** ****** ******
      ****** ****** ****** ****** ****** ****** ****** ****** ****** ******
      ****** ****** ****** ****** ****** ****** ****** ****** ****** ******
   4  ****** ****** ****** ****** ****** ****** ****** ****** ****** ******
      ****** ****** ****** ****** ****** ****** ****** ****** ****** ******
      ****** ****** ****** ****** ****** ****** ****** ****** ****** ******
   5  ****** ****** ****** ****** ****** ****** ****** ****** ****** ******
      ****** ****** ****** ****** ****** ****** ****** ****** ****** ******
      ****** ****** ****** ****** ****** ****** ****** ****** ****** ******
   6  ****** ****** ****** ****** ****** ****** ****** ****** ****** ******
      ****** ****** ****** ****** ****** ****** ****** ****** ****** ******
      ****** ****** ****** ****** ****** ****** ****** ****** ****** ******
   7  ****** ****** ****** ****** ****** ****** ****** ****** ****** ******
      ****** ****** ****** ****** ****** ****** ****** ****** ****** ******
      ****** ****** ****** ****** ****** ****** ****** ****** ****** ******
   8  ****** ****** ****** ****** ****** ****** ****** ****** ****** ******
      ****** ****** ****** ****** ****** ****** ****** ****** ****** ******
      ****** ****** ****** ****** ****** ****** ****** ****** ****** ******
   9  ****** ****** ****** ****** ****** ****** ****** ****** ****** ******
      ****** ****** ****** ****** ****** ****** ****** ****** ****** ******
      ****** ****** ****** ****** ****** ****** ****** ****** ****** ******
  10  ****** ****** ****** ****** ****** ****** ****** ****** ****** ******
      ****** ****** ****** ****** ****** ****** ****** ****** ****** ******
      ****** ****** ****** ****** ****** ****** ****** ****** ****** ******
  11  ****** ****** ****** ****** ****** ****** ****** ****** ****** ******
      ****** ****** ****** ****** ****** ****** ****** ****** ****** ******
      ****** ****** ****** ****** ****** ****** ****** ****** ****** ******
  12  ****** ****** ****** ****** ****** ****** ****** ****** ****** ******
      ****** ****** ****** ****** ****** ****** ****** ****** ****** ******
      ****** ****** ****** ****** ****** ****** ****** ****** ****** ******
  13  ****** ****** ****** ****** ****** ****** ****** ****** ****** ******
      ****** ****** ****** ****** ****** ****** ****** ****** ****** ******
      ****** ****** ****** ****** ****** ****** ****** ****** ****** ******
  14  ****** ****** ****** ****** ****** ****** ****** ****** ****** ******
      ****** ****** ****** ****** ****** ****** ****** ****** ****** ******
      ****** ****** ****** ****** ****** ****** ****** ****** ****** ******
  15  ****** ****** ****** ****** ****** ****** ****** ****** ****** ******
      ****** ****** ****** ****** ****** ****** ****** ****** ****** ******
      ****** ****** ****** ****** ****** ****** ****** ****** ****** ******
  16  ****** ****** ****** ****** ****** ****** ****** ****** ****** ******
      ****** ****** ****** ****** ****** ****** ****** ****** ****** ******
      ****** ****** ****** ****** ****** ****** ****** ****** ****** ******
  17  ****** ****** ****** ****** ****** ****** ****** ****** ****** ******
      ****** ****** ****** ****** ****** ****** ****** ****** ****** ******
      ****** ****** ****** ****** ****** ****** ****** ****** ****** ******
  18  ****** ****** ****** ****** ****** ****** ****** ****** ****** ******
      ****** ****** ****** ****** ****** ****** ****** ****** ****** ******
      ****** ****** ****** ****** ****** ****** ****** ****** ****** ******
  19  ****** ****** ****** ****** ****** ****** ****** ****** ****** ******
      ****** ****** ****** ****** ****** ****** ****** ****** ****** ******
      ****** ****** ****** ****** ****** ****** ****** ****** ****** ******
  20  ****** ****** ****** ****** ****** ****** ****** ****** ****** ******
      ****** ****** ****** ****** ****** ****** ****** ****** ****** ******
      ****** ****** ****** ****** ****** ****** ****** ****** ****** ******
  21  ****** ****** ****** ****** ****** ****** ****** ****** ****** ******
      ****** ****** ****** ****** ****** ****** ****** ****** ****** ******
      ****** ****** ****** ****** ****** ****** ****** ****** ****** ******
  22  ****** ****** ****** ****** ****** ****** ****** ****** ****** ******
      ****** ****** ****** ****** ****** ****** ****** ****** ****** ******
      ****** ****** ****** ****** ****** ****** ****** ****** ****** ******
  23  ****** ****** ****** ****** ****** ****** ****** ****** ****** ******
      ****** ****** ****** ****** ****** ****** ****** ****** ****** ******
      ****** ****** ****** ****** ****** ****** ****** ****** ****** ******
  24  ****** ****** ****** ****** ****** ****** ****** ****** ****** ******
      ****** ****** ****** ****** ****** ****** ****** ****** ****** ******
      ****** ****** ****** ****** ****** ****** ****** ****** ****** ******
  25  ****** ****** ****** ****** ****** ****** ****** ****** ****** ******
      ****** ****** ****** ****** ****** ****** ****** ****** ****** ******
      ****** ****** ****** ****** ****** ****** ****** ****** ****** ******

 HEAD WILL BE SAVED ON UNIT   51 AT END OF TIME STEP    1, STRESS PERIOD   12
1
  VOLUMETRIC BUDGET FOR ENTIRE MODEL AT END OF TIME STEP    1, STRESS PERIOD  12
  ------------------------------------------------------------------------------

     CUMULATIVE VOLUMES      L**3       RATES FOR THIS TIME STEP      L**3/T
     ------------------                 ------------------------

           IN:                                      IN:
           ---                                      ---
             STORAGE =    25754011.7247               STORAGE =           0.0000
       CONSTANT HEAD =   195227435.5396         CONSTANT HEAD =      182879.8082
               WELLS =           0.0000                 WELLS =           0.0000
            RECHARGE =    26413200.0000              RECHARGE =       27600.0000
      STREAM LEAKAGE =     7496610.9401        STREAM LEAKAGE =        7035.1240

            TOTAL IN =   254891258.2044              TOTAL IN =      217514.9322

          OUT:                                     OUT:
          ----                                     ----
             STORAGE =     2644120.3083               STORAGE =        3737.0710
       CONSTANT HEAD =           0.0000         CONSTANT HEAD =           0.0000
               WELLS =   101196363.8026                 WELLS =       89835.3925
            RECHARGE =           0.0000              RECHARGE =           0.0000
      STREAM LEAKAGE =   151050775.0361        STREAM LEAKAGE =      123942.4679

           TOTAL OUT =   254891259.1470             TOTAL OUT =      217514.9314

            IN - OUT =          -0.9426              IN - OUT =       8.2972E-04

 PERCENT DISCREPANCY =          -0.00     PERCENT DISCREPANCY =           0.00






         TIME SUMMARY AT END OF TIME STEP    1 IN STRESS PERIOD   12
                    SECONDS     MINUTES      HOURS       DAYS        YEARS
                    -----------------------------------------------------------
   TIME STEP LENGTH 7.86240E+06 1.31040E+05  2184.0      91.000     0.24914    
 STRESS PERIOD TIME 7.86240E+06 1.31040E+05  2184.0      91.000     0.24914    
         TOTAL TIME 9.46080E+07 1.57680E+06  26280.      1095.0      2.9979    
1

 Run end date and time (yyyy/mm/dd hh:mm:ss): 2018/10/08 23:43:49
 Elapsed run time:  0.070 Seconds

