                                  MODFLOW-2005     
      U.S. GEOLOGICAL SURVEY MODULAR FINITE-DIFFERENCE GROUND-WATER FLOW MODEL
                            VERSION 1.11.00 8/8/2013

 LIST FILE: supply2.lst
                         UNIT   10

 OPENING ..\data\supply.dis
 FILE TYPE:DIS   UNIT   11   STATUS:OLD    
 FORMAT:FORMATTED              ACCESS:SEQUENTIAL          

 OPENING ..\data\supply.ba6
 FILE TYPE:BAS6   UNIT   12   STATUS:OLD    
 FORMAT:FORMATTED              ACCESS:SEQUENTIAL          

 OPENING ..\data\supply_het.bc6
 FILE TYPE:BCF6   UNIT   13   STATUS:OLD    
 FORMAT:FORMATTED              ACCESS:SEQUENTIAL          

 OPENING ..\data\supply.rch
 FILE TYPE:RCH   UNIT   15   STATUS:OLD    
 FORMAT:FORMATTED              ACCESS:SEQUENTIAL          

 OPENING ..\data\supply2.sfr
 FILE TYPE:SFR   UNIT   16   STATUS:OLD    
 FORMAT:FORMATTED              ACCESS:SEQUENTIAL          

 OPENING ..\data\supply.oc
 FILE TYPE:OC   UNIT   17   STATUS:OLD    
 FORMAT:FORMATTED              ACCESS:SEQUENTIAL          

 OPENING ..\data\supply.pcg
 FILE TYPE:PCG   UNIT   18   STATUS:OLD    
 FORMAT:FORMATTED              ACCESS:SEQUENTIAL          

 OPENING supply2.wel
 FILE TYPE:WEL   UNIT   19   STATUS:OLD    
 FORMAT:FORMATTED              ACCESS:SEQUENTIAL          

 OPENING supply2sf.cbc
 FILE TYPE:DATA(BINARY)   UNIT   50   STATUS:UNKNOWN
 FORMAT:BINARY                 ACCESS:SEQUENTIAL          

 OPENING supply2hd.bhd
 FILE TYPE:DATA(BINARY)   UNIT   51   STATUS:UNKNOWN
 FORMAT:BINARY                 ACCESS:SEQUENTIAL          

 BAS -- BASIC PACKAGE, VERSION 7, 5/2/2005 INPUT READ FROM UNIT   12
 
 MODFLOW was compiled using uniform precision
 Precision of REAL and DOUBLE PRECISION variables:          15

 DISCRETIZATION INPUT DATA READ FROM UNIT   11
    1 LAYERS        25 ROWS        30 COLUMNS
   12 STRESS PERIOD(S) IN SIMULATION
 MODEL TIME UNIT IS DAYS
 MODEL LENGTH UNIT IS UNDEFINED
  Confining bed flag for each layer:
   0

                     DELR =   200.000    

                     DELC =   200.000    

 TOP ELEVATION OF LAYER 1 =  100.0000    

   MODEL LAYER BOTTOM EL. =   0.00000     FOR LAYER   1


 STRESS PERIOD     LENGTH       TIME STEPS     MULTIPLIER FOR DELT    SS FLAG
 ----------------------------------------------------------------------------
        1         92.00000          1                    1.500         TR
        2         91.00000          1                    1.500         TR
        3         91.00000          1                    1.500         TR
        4         91.00000          1                    1.500         TR
        5         92.00000          1                    1.500         TR
        6         91.00000          1                    1.500         TR
        7         91.00000          1                    1.500         TR
        8         91.00000          1                    1.500         TR
        9         92.00000          1                    1.500         TR
       10         91.00000          1                    1.500         TR
       11         91.00000          1                    1.500         TR
       12         91.00000          1                    1.500         TR

 TRANSIENT SIMULATION



 
 #MODOFC transient water supply sample problem                                   
 #                                                                               
 THE FREE FORMAT OPTION HAS BEEN SELECTED



                     BOUNDARY ARRAY FOR LAYER   1
 READING ON UNIT   12 WITH FORMAT: (20I4)              

 AQUIFER HEAD WILL BE SET TO   0.0000     AT ALL NO-FLOW NODES (IBOUND=0).



                       INITIAL HEAD FOR LAYER   1
 READING ON UNIT   12 WITH FORMAT: (10F13.0)           

 OUTPUT CONTROL IS SPECIFIED ONLY AT TIME STEPS FOR WHICH OUTPUT IS DESIRED
 COMPACT CELL-BY-CELL BUDGET FILES WILL BE WRITTEN
 HEAD PRINT FORMAT CODE IS  18    DRAWDOWN PRINT FORMAT CODE IS   0
 HEADS WILL BE SAVED ON UNIT   51    DRAWDOWNS WILL BE SAVED ON UNIT    0

 BCF -- BLOCK-CENTERED FLOW PACKAGE, VERSION 7, 5/2/2005
         INPUT READ FROM UNIT 13
 TRANSIENT SIMULATION
 HEAD AT CELLS THAT CONVERT TO DRY=   0.0000    
 WETTING CAPABILITY IS NOT ACTIVE
      LAYER  LAYER-TYPE CODE     INTERBLOCK T
      --------------------------------------------
         1            0          0 -- HARMONIC    

 COLUMN TO ROW ANISOTROPY =  1.000000    

     PRIMARY STORAGE COEF =  5.000000E-02 FOR LAYER   1



               TRANSMIS. ALONG ROWS FOR LAYER   1
 READING ON UNIT   13 WITH FORMAT: (FREE)              

 WEL -- WELL PACKAGE, VERSION 7, 5/2/2005 INPUT READ FROM UNIT   19
 # Well package input file written by MMProc
 No named parameters
 MAXIMUM OF      4 ACTIVE WELLS AT ONE TIME


     0 Well parameters

 RCH -- RECHARGE PACKAGE, VERSION 7, 5/2/2005 INPUT READ FROM UNIT   15
 No named parameters
 OPTION 1 -- RECHARGE TO TOP LAYER


     0 Recharge parameters

 SFR7 -- STREAMFLOW ROUTING PACKAGE, VERSION 1.0.7, 2013-01-15
         INPUT READ FROM UNIT  16
 #  Supply2 test problem for GWM-VI
 #  The eighth entry in the first data line is ISTCB2 -
 #    Setting this to a negative number indicates that
 #    streamflows out of the reach will be saved to a
 #    binary file.  The absolute value of ISTCB2 is the
 #    unit to which unformatted flows will be written.
 #
 No named parameters
 Segment information will not be 
 read by reach
 No named parameters
 No specifed inflow files


 NUMBER OF STREAM REACHES IS   40

 NUMBER OF STREAM SEGMENTS IS    3

 NUMBER OF STREAM PARAMETERS IS    0

 NUMBER OF STREAM SEGMENTS DEFINED USING PARAMETERS IS              0

 MAXIMUM ERROR FOR STREAM LEAKAGE RATES IS  1.00E-04

 CONSTANT FOR MANNINGS EQUATION IS  1.2839E+05





   STREAM NETWORK DESCRIPTION: 

   LAYER    ROW    COL   SEGMENT   REACH     LENGTH
                          NUMBER   NUMBER    IN CELL        
   --------------------------------------------------
      1     13      1       1        1    2.0000E+02
      1     13      2       1        2    2.0000E+02
      1     14      3       1        3    2.0000E+02
      1     15      4       1        4    2.0000E+02
      1     16      5       1        5    2.0000E+02
      1     16      6       1        6    2.0000E+02
      1     16      7       1        7    2.0000E+02
      1     16      8       1        8    2.0000E+02
      1     16      9       1        9    2.0000E+02
      1     16     10       1       10    2.0000E+02
      1     16     11       1       11    2.0000E+02
      1     16     12       1       12    2.0000E+02
      1     15     13       1       13    2.0000E+02
      1     14     14       1       14    2.0000E+02
      1     13     15       1       15    2.0000E+02
      1     12     16       1       16    2.0000E+02
      1     12     17       1       17    2.0000E+02
      1     12     18       1       18    2.0000E+02
      1     12     19       1       19    2.0000E+02
      1     13     20       1       20    2.0000E+02
      1     14     21       1       21    2.0000E+02
      1     14     22       1       22    2.0000E+02
      1      9     30       2        1    2.0000E+02
      1      9     29       2        2    2.0000E+02
      1      9     28       2        3    2.0000E+02
      1      9     27       2        4    2.0000E+02
      1     10     26       2        5    2.0000E+02
      1     11     25       2        6    2.0000E+02
      1     12     24       2        7    2.0000E+02
      1     13     23       2        8    2.0000E+02
      1     14     22       2        9    2.0000E+02
      1     14     22       3        1    2.0000E+02
      1     15     23       3        2    2.0000E+02
      1     15     24       3        3    2.0000E+02
      1     15     25       3        4    2.0000E+02
      1     15     26       3        5    2.0000E+02
      1     16     27       3        6    2.0000E+02
      1     17     28       3        7    2.0000E+02
      1     18     29       3        8    2.0000E+02
      1     18     30       3        9    2.0000E+02




 PCG -- CONJUGATE-GRADIENT SOLUTION PACKAGE, VERSION 7, 5/2/2005
 MAXIMUM OF    500 CALLS OF SOLUTION ROUTINE
 MAXIMUM OF      5 INTERNAL ITERATIONS PER CALL TO SOLUTION ROUTINE
 MATRIX PRECONDITIONING TYPE :    1



                                    SOLUTION BY THE CONJUGATE-GRADIENT METHOD
                                   -------------------------------------------
                    MAXIMUM NUMBER OF CALLS TO PCG ROUTINE =      500
                        MAXIMUM ITERATIONS PER CALL TO PCG =        5
                               MATRIX PRECONDITIONING TYPE =        1
        RELAXATION FACTOR (ONLY USED WITH PRECOND. TYPE 1) =    0.10000E+01
 PARAMETER OF POLYNOMIAL PRECOND. = 2 (2) OR IS CALCULATED :        0
                         HEAD CHANGE CRITERION FOR CLOSURE =    0.10000E-05
                     RESIDUAL CHANGE CRITERION FOR CLOSURE =    0.10000E+01
            PCG HEAD AND RESIDUAL CHANGE PRINTOUT INTERVAL =        1
     PRINTING FROM SOLVER IS LIMITED(1) OR SUPPRESSED (>1) =        1
                            STEADY-STATE DAMPING PARAMETER =    0.10000E+01
                               TRANSIENT DAMPING PARAMETER =    0.10000E+01
1
                            STRESS PERIOD NO.    1, LENGTH =   92.00000    
                            -----------------------------------------------

                              NUMBER OF TIME STEPS =     1

                               MULTIPLIER FOR DELT =     1.500

                            INITIAL TIME STEP SIZE =   92.00000    

 WELL NO.  LAYER   ROW   COL   STRESS RATE         
 --------------------------------------------------
      1      1      5     13      -7278.    
      2      1      9     16      -9144.    
      3      1     16     19      -5032.    
      4      1     18     19     -0.1053E+05

      4 WELLS

                 RECHARGE =  5.000000E-04



 CLASSIFICATION & COUNT OF STREAM SEGMENTS BASED ON SOURCE OF INFLOW:

                HEADWATER     DIVERSION     RECEIVES TRIBUTARY FLOW
                ---------     ---------     -----------------------
                     2              0               1



                    INPUT DATA FOR EACH STREAM SEGMENT
 ---------------------------------------------------------------------------------------------

 SEGMENT    SEG.     INFLOW   OVERLAND   STREAM    STREAM   ICALC  OUTFLOW  DIVERSION PRIORITY
    NO.    LENGTH     RATE     RUNOFF      ET       PPT.    METH.  TO SEG.  FROM SEG.    NO.

      1  4.400E+03 1.000E+05 0.000E+00 0.000E+00 0.000E+00    1        3        0        0
      2  1.800E+03 5.000E+04 0.000E+00 0.000E+00 0.000E+00    1        3        0        0
      3  1.800E+03 0.000E+00 0.000E+00 0.000E+00 0.000E+00    1        0        0        0


         STREAMBED PROPERTIES AND STREAM DIMENSIONS

 SEGMENT     BED HYD. COND.      BED THICKNESS     ELEV.-TOP OF BED     WIDTH OF STREAM     DEPTH OF STREAM    STREAM ROUGHNESS
    No.     UPPER     LOWER     UPPER     LOWER     UPPER     LOWER     UPPER     LOWER     UPPER     LOWER   CHANNEL      BANK

     1  5.000E+00 5.000E+00 1.000E+00 1.000E+00 4.850E+01 3.800E+01 2.000E+01 2.000E+01                     5.000E-02
     2  5.000E+00 5.000E+00 1.000E+00 1.000E+00 4.025E+01 3.800E+01 2.000E+01 2.000E+01                     5.000E-02
     3  5.000E+00 5.000E+00 1.000E+00 1.000E+00 3.800E+01 3.000E+01 2.000E+01 2.000E+01                     5.000E-02



 
 SOLVING FOR HEAD 


     9 CALLS TO PCG ROUTINE FOR TIME STEP   1 IN STRESS PERIOD    1
    36 TOTAL ITERATIONS

 OUTPUT CONTROL FOR STRESS PERIOD    1   TIME STEP    1
    SAVE BUDGET
    SAVE HEAD FOR ALL LAYERS
    PRINT HEAD FOR ALL LAYERS
 UBDSV2 SAVING "STREAMFLOW OUT  " ON UNIT  50 AT TIME STEP  1, STRESS PERIOD   1



 STREAM LISTING     PERIOD      1   STEP        1

 LAYER ROW COL. STREAM  RCH.  FLOW INTO     FLOW TO   FLOW OUT OF   OVRLND.     DIRECT     STREAM       STREAM     STREAM     STREAM   STREAMBED  STREAMBED
                SEG.NO.  NO.  STRM. RCH.    AQUIFER    STRM. RCH.    RUNOFF     PRECIP       ET          HEAD       DEPTH      WIDTH   CONDCTNC.   GRADIENT

   1   13    1     1     1    1.0000E+05 -6.0894E+03   1.0609E+05  0.000E+00  0.000E+00  0.000E+00  4.84086E+01  1.473E-01  2.000E+01  2.000E+04 -3.045E-01
   1   13    2     1     2    1.0609E+05 -7.5577E+03   1.1365E+05  0.000E+00  0.000E+00  0.000E+00  4.79371E+01  1.531E-01  2.000E+01  2.000E+04 -3.779E-01
   1   14    3     1     3    1.1365E+05 -2.1966E+03   1.1584E+05  0.000E+00  0.000E+00  0.000E+00  4.74639E+01  1.571E-01  2.000E+01  2.000E+04 -1.098E-01
   1   15    4     1     4    1.1584E+05 -2.2678E+03   1.1811E+05  0.000E+00  0.000E+00  0.000E+00  4.69885E+01  1.589E-01  2.000E+01  2.000E+04 -1.134E-01
   1   16    5     1     5    1.1811E+05 -7.1664E+03   1.2528E+05  0.000E+00  0.000E+00  0.000E+00  4.65150E+01  1.627E-01  2.000E+01  2.000E+04 -3.583E-01
   1   16    6     1     6    1.2528E+05 -4.2867E+03   1.2956E+05  0.000E+00  0.000E+00  0.000E+00  4.60423E+01  1.673E-01  2.000E+01  2.000E+04 -2.143E-01
   1   16    7     1     7    1.2956E+05 -4.1152E+03   1.3368E+05  0.000E+00  0.000E+00  0.000E+00  4.55683E+01  1.706E-01  2.000E+01  2.000E+04 -2.058E-01
   1   16    8     1     8    1.3368E+05 -4.0641E+03   1.3774E+05  0.000E+00  0.000E+00  0.000E+00  4.50942E+01  1.737E-01  2.000E+01  2.000E+04 -2.032E-01
   1   16    9     1     9    1.3774E+05 -4.0374E+03   1.4178E+05  0.000E+00  0.000E+00  0.000E+00  4.46200E+01  1.768E-01  2.000E+01  2.000E+04 -2.019E-01
   1   16   10     1    10    1.4178E+05 -4.0086E+03   1.4579E+05  0.000E+00  0.000E+00  0.000E+00  4.41458E+01  1.799E-01  2.000E+01  2.000E+04 -2.004E-01
   1   16   11     1    11    1.4579E+05 -3.9939E+03   1.4978E+05  0.000E+00  0.000E+00  0.000E+00  4.36715E+01  1.829E-01  2.000E+01  2.000E+04 -1.997E-01
   1   16   12     1    12    1.4978E+05 -6.5691E+03   1.5635E+05  0.000E+00  0.000E+00  0.000E+00  4.31981E+01  1.867E-01  2.000E+01  2.000E+04 -3.285E-01
   1   15   13     1    13    1.5635E+05 -6.7169E+03   1.6307E+05  0.000E+00  0.000E+00  0.000E+00  4.27257E+01  1.916E-01  2.000E+01  2.000E+04 -3.358E-01
   1   14   14     1    14    1.6307E+05 -7.0051E+03   1.7007E+05  0.000E+00  0.000E+00  0.000E+00  4.22533E+01  1.965E-01  2.000E+01  2.000E+04 -3.503E-01
   1   13   15     1    15    1.7007E+05 -7.1006E+03   1.7718E+05  0.000E+00  0.000E+00  0.000E+00  4.17810E+01  2.014E-01  2.000E+01  2.000E+04 -3.550E-01
   1   12   16     1    16    1.7718E+05 -7.2197E+03   1.8440E+05  0.000E+00  0.000E+00  0.000E+00  4.13086E+01  2.064E-01  2.000E+01  2.000E+04 -3.610E-01
   1   12   17     1    17    1.8440E+05 -5.1406E+03   1.8954E+05  0.000E+00  0.000E+00  0.000E+00  4.08356E+01  2.106E-01  2.000E+01  2.000E+04 -2.570E-01
   1   12   18     1    18    1.8954E+05 -5.1711E+03   1.9471E+05  0.000E+00  0.000E+00  0.000E+00  4.03618E+01  2.140E-01  2.000E+01  2.000E+04 -2.586E-01
   1   12   19     1    19    1.9471E+05 -6.8934E+03   2.0160E+05  0.000E+00  0.000E+00  0.000E+00  3.98885E+01  2.180E-01  2.000E+01  2.000E+04 -3.447E-01
   1   13   20     1    20    2.0160E+05 -5.7611E+03   2.0736E+05  0.000E+00  0.000E+00  0.000E+00  3.94154E+01  2.222E-01  2.000E+01  2.000E+04 -2.881E-01
   1   14   21     1    21    2.0736E+05 -4.8392E+03   2.1220E+05  0.000E+00  0.000E+00  0.000E+00  3.89415E+01  2.256E-01  2.000E+01  2.000E+04 -2.420E-01
   1   14   22     1    22    2.1220E+05  3.8666E+03   2.0833E+05  0.000E+00  0.000E+00  0.000E+00  3.84646E+01  2.259E-01  2.000E+01  2.000E+04  1.933E-01
   1    9   30     2     1    5.0000E+04 -4.8406E+03   5.4841E+04  0.000E+00  0.000E+00  0.000E+00  4.02442E+01  1.192E-01  2.000E+01  2.000E+04 -2.420E-01
   1    9   29     2     2    5.4841E+04 -5.1332E+03   5.9974E+04  0.000E+00  0.000E+00  0.000E+00  4.00009E+01  1.259E-01  2.000E+01  2.000E+04 -2.567E-01
   1    9   28     2     3    5.9974E+04 -5.4107E+03   6.5384E+04  0.000E+00  0.000E+00  0.000E+00  3.97577E+01  1.327E-01  2.000E+01  2.000E+04 -2.705E-01
   1    9   27     2     4    6.5384E+04 -8.2187E+03   7.3603E+04  0.000E+00  0.000E+00  0.000E+00  3.95162E+01  1.412E-01  2.000E+01  2.000E+04 -4.109E-01
   1   10   26     2     5    7.3603E+04 -7.2500E+03   8.0853E+04  0.000E+00  0.000E+00  0.000E+00  3.92754E+01  1.504E-01  2.000E+01  2.000E+04 -3.625E-01
   1   11   25     2     6    8.0853E+04 -6.6916E+03   8.7545E+04  0.000E+00  0.000E+00  0.000E+00  3.90334E+01  1.584E-01  2.000E+01  2.000E+04 -3.346E-01
   1   12   24     2     7    8.7545E+04 -6.1846E+03   9.3729E+04  0.000E+00  0.000E+00  0.000E+00  3.87906E+01  1.656E-01  2.000E+01  2.000E+04 -3.092E-01
   1   13   23     2     8    9.3729E+04 -1.6305E+03   9.5360E+04  0.000E+00  0.000E+00  0.000E+00  3.85448E+01  1.698E-01  2.000E+01  2.000E+04 -8.152E-02
   1   14   22     2     9    9.5360E+04  4.8363E+02   9.4876E+04  0.000E+00  0.000E+00  0.000E+00  3.82954E+01  1.704E-01  2.000E+01  2.000E+04  2.418E-02
   1   14   22     3     1    3.0321E+05 -9.5989E+03   3.1281E+05  0.000E+00  0.000E+00  0.000E+00  3.77913E+01  2.357E-01  2.000E+01  2.000E+04 -4.799E-01
   1   15   23     3     2    3.1281E+05 -1.7750E+03   3.1458E+05  0.000E+00  0.000E+00  0.000E+00  3.69050E+01  2.383E-01  2.000E+01  2.000E+04 -8.875E-02
   1   15   24     3     3    3.1458E+05 -1.4972E+03   3.1608E+05  0.000E+00  0.000E+00  0.000E+00  3.60169E+01  2.391E-01  2.000E+01  2.000E+04 -7.486E-02
   1   15   25     3     4    3.1608E+05 -1.5651E+03   3.1765E+05  0.000E+00  0.000E+00  0.000E+00  3.51287E+01  2.398E-01  2.000E+01  2.000E+04 -7.825E-02
   1   15   26     3     5    3.1765E+05 -1.8769E+03   3.1952E+05  0.000E+00  0.000E+00  0.000E+00  3.42406E+01  2.406E-01  2.000E+01  2.000E+04 -9.385E-02
   1   16   27     3     6    3.1952E+05 -2.1543E+03   3.2168E+05  0.000E+00  0.000E+00  0.000E+00  3.33526E+01  2.415E-01  2.000E+01  2.000E+04 -1.077E-01
   1   17   28     3     7    3.2168E+05 -6.5372E+03   3.2821E+05  0.000E+00  0.000E+00  0.000E+00  3.24657E+01  2.434E-01  2.000E+01  2.000E+04 -3.269E-01
   1   18   29     3     8    3.2821E+05 -7.8940E+03   3.3611E+05  0.000E+00  0.000E+00  0.000E+00  3.15800E+01  2.467E-01  2.000E+01  2.000E+04 -3.947E-01
   1   18   30     3     9    3.3611E+05 -7.1176E+03   3.4323E+05  0.000E+00  0.000E+00  0.000E+00  3.06944E+01  2.500E-01  2.000E+01  2.000E+04 -3.559E-01



1
              HEAD IN LAYER   1 AT END OF TIME STEP   1 IN STRESS PERIOD    1
  ---------------------------------------------------------------------------

          1      2      3      4      5      6      7      8      9     10
         11     12     13     14     15     16     17     18     19     20
         21     22     23     24     25     26     27     28     29     30
 .........................................................................
   1  ****** ****** ****** ****** ****** ****** ****** ****** ****** ******
      ****** ****** ****** ****** ****** ****** ****** ****** ****** ******
      ****** ****** ****** ****** ****** ****** ****** ****** ****** ******
   2  ****** ****** ****** ****** ****** ****** ****** ****** ****** ******
      ****** ****** ****** ****** ****** ****** ****** ****** ****** ******
      ****** ****** ****** ****** ****** ****** ****** ****** ****** ******
   3  ****** ****** ****** ****** ****** ****** ****** ****** ****** ******
      ****** ****** ****** ****** ****** ****** ****** ****** ****** ******
      ****** ****** ****** ****** ****** ****** ****** ****** ****** ******
   4  ****** ****** ****** ****** ****** ****** ****** ****** ****** ******
      ****** ****** ****** ****** ****** ****** ****** ****** ****** ******
      ****** ****** ****** ****** ****** ****** ****** ****** ****** ******
   5  ****** ****** ****** ****** ****** ****** ****** ****** ****** ******
      ****** ****** ****** ****** ****** ****** ****** ****** ****** ******
      ****** ****** ****** ****** ****** ****** ****** ****** ****** ******
   6  ****** ****** ****** ****** ****** ****** ****** ****** ****** ******
      ****** ****** ****** ****** ****** ****** ****** ****** ****** ******
      ****** ****** ****** ****** ****** ****** ****** ****** ****** ******
   7  ****** ****** ****** ****** ****** ****** ****** ****** ****** ******
      ****** ****** ****** ****** ****** ****** ****** ****** ****** ******
      ****** ****** ****** ****** ****** ****** ****** ****** ****** ******
   8  ****** ****** ****** ****** ****** ****** ****** ****** ****** ******
      ****** ****** ****** ****** ****** ****** ****** ****** ****** ******
      ****** ****** ****** ****** ****** ****** ****** ****** ****** ******
   9  ****** ****** ****** ****** ****** ****** ****** ****** ****** ******
      ****** ****** ****** ****** ****** ****** ****** ****** ****** ******
      ****** ****** ****** ****** ****** ****** ****** ****** ****** ******
  10  ****** ****** ****** ****** ****** ****** ****** ****** ****** ******
      ****** ****** ****** ****** ****** ****** ****** ****** ****** ******
      ****** ****** ****** ****** ****** ****** ****** ****** ****** ******
  11  ****** ****** ****** ****** ****** ****** ****** ****** ****** ******
      ****** ****** ****** ****** ****** ****** ****** ****** ****** ******
      ****** ****** ****** ****** ****** ****** ****** ****** ****** ******
  12  ****** ****** ****** ****** ****** ****** ****** ****** ****** ******
      ****** ****** ****** ****** ****** ****** ****** ****** ****** ******
      ****** ****** ****** ****** ****** ****** ****** ****** ****** ******
  13  ****** ****** ****** ****** ****** ****** ****** ****** ****** ******
      ****** ****** ****** ****** ****** ****** ****** ****** ****** ******
      ****** ****** ****** ****** ****** ****** ****** ****** ****** ******
  14  ****** ****** ****** ****** ****** ****** ****** ****** ****** ******
      ****** ****** ****** ****** ****** ****** ****** ****** ****** ******
      ****** ****** ****** ****** ****** ****** ****** ****** ****** ******
  15  ****** ****** ****** ****** ****** ****** ****** ****** ****** ******
      ****** ****** ****** ****** ****** ****** ****** ****** ****** ******
      ****** ****** ****** ****** ****** ****** ****** ****** ****** ******
  16  ****** ****** ****** ****** ****** ****** ****** ****** ****** ******
      ****** ****** ****** ****** ****** ****** ****** ****** ****** ******
      ****** ****** ****** ****** ****** ****** ****** ****** ****** ******
  17  ****** ****** ****** ****** ****** ****** ****** ****** ****** ******
      ****** ****** ****** ****** ****** ****** ****** ****** ****** ******
      ****** ****** ****** ****** ****** ****** ****** ****** ****** ******
  18  ****** ****** ****** ****** ****** ****** ****** ****** ****** ******
      ****** ****** ****** ****** ****** ****** ****** ****** ****** ******
      ****** ****** ****** ****** ****** ****** ****** ****** ****** ******
  19  ****** ****** ****** ****** ****** ****** ****** ****** ****** ******
      ****** ****** ****** ****** ****** ****** ****** ****** ****** ******
      ****** ****** ****** ****** ****** ****** ****** ****** ****** ******
  20  ****** ****** ****** ****** ****** ****** ****** ****** ****** ******
      ****** ****** ****** ****** ****** ****** ****** ****** ****** ******
      ****** ****** ****** ****** ****** ****** ****** ****** ****** ******
  21  ****** ****** ****** ****** ****** ****** ****** ****** ****** ******
      ****** ****** ****** ****** ****** ****** ****** ****** ****** ******
      ****** ****** ****** ****** ****** ****** ****** ****** ****** ******
  22  ****** ****** ****** ****** ****** ****** ****** ****** ****** ******
      ****** ****** ****** ****** ****** ****** ****** ****** ****** ******
      ****** ****** ****** ****** ****** ****** ****** ****** ****** ******
  23  ****** ****** ****** ****** ****** ****** ****** ****** ****** ******
      ****** ****** ****** ****** ****** ****** ****** ****** ****** ******
      ****** ****** ****** ****** ****** ****** ****** ****** ****** ******
  24  ****** ****** ****** ****** ****** ****** ****** ****** ****** ******
      ****** ****** ****** ****** ****** ****** ****** ****** ****** ******
      ****** ****** ****** ****** ****** ****** ****** ****** ****** ******
  25  ****** ****** ****** ****** ****** ****** ****** ****** ****** ******
      ****** ****** ****** ****** ****** ****** ****** ****** ****** ******
      ****** ****** ****** ****** ****** ****** ****** ****** ****** ******

 HEAD WILL BE SAVED ON UNIT   51 AT END OF TIME STEP    1, STRESS PERIOD    1
1
  VOLUMETRIC BUDGET FOR ENTIRE MODEL AT END OF TIME STEP    1, STRESS PERIOD   1
  ------------------------------------------------------------------------------

     CUMULATIVE VOLUMES      L**3       RATES FOR THIS TIME STEP      L**3/T
     ------------------                 ------------------------

           IN:                                      IN:
           ---                                      ---
             STORAGE =    18254790.8715               STORAGE =      198421.6399
       CONSTANT HEAD =     1194814.8147         CONSTANT HEAD =       12987.1176
               WELLS =           0.0000                 WELLS =           0.0000
            RECHARGE =     1269600.0000              RECHARGE =       13800.0000
      STREAM LEAKAGE =      400222.8556        STREAM LEAKAGE =        4350.2484

            TOTAL IN =    21119428.5418              TOTAL IN =      229559.0059

          OUT:                                     OUT:
          ----                                     ----
             STORAGE =           0.0000               STORAGE =           0.0000
       CONSTANT HEAD =           0.0000         CONSTANT HEAD =           0.0000
               WELLS =     2942366.9397                 WELLS =       31982.2493
            RECHARGE =           0.0000              RECHARGE =           0.0000
      STREAM LEAKAGE =    18177061.9120        STREAM LEAKAGE =      197576.7599

           TOTAL OUT =    21119428.8517             TOTAL OUT =      229559.0093

            IN - OUT =          -0.3099              IN - OUT =      -3.3682E-03

 PERCENT DISCREPANCY =          -0.00     PERCENT DISCREPANCY =          -0.00






         TIME SUMMARY AT END OF TIME STEP    1 IN STRESS PERIOD    1
                    SECONDS     MINUTES      HOURS       DAYS        YEARS
                    -----------------------------------------------------------
   TIME STEP LENGTH 7.94880E+06 1.32480E+05  2208.0      92.000     0.25188    
 STRESS PERIOD TIME 7.94880E+06 1.32480E+05  2208.0      92.000     0.25188    
         TOTAL TIME 7.94880E+06 1.32480E+05  2208.0      92.000     0.25188    
1
1
                            STRESS PERIOD NO.    2, LENGTH =   91.00000    
                            -----------------------------------------------

                              NUMBER OF TIME STEPS =     1

                               MULTIPLIER FOR DELT =     1.500

                            INITIAL TIME STEP SIZE =   91.00000    

 WELL NO.  LAYER   ROW   COL   STRESS RATE         
 --------------------------------------------------
      1      1      5     13      -7278.    
      2      1      9     16      -9144.    
      3      1     16     19      -5032.    
      4      1     18     19     -0.1053E+05

      4 WELLS

                 RECHARGE =  2.000000E-03

 REUSING STREAM SEGMENT DATA FROM LAST STRESS PERIOD
 
 SOLVING FOR HEAD 


     7 CALLS TO PCG ROUTINE FOR TIME STEP   1 IN STRESS PERIOD    2
    27 TOTAL ITERATIONS

 OUTPUT CONTROL FOR STRESS PERIOD    2   TIME STEP    1
    SAVE BUDGET
    SAVE HEAD FOR ALL LAYERS
    PRINT HEAD FOR ALL LAYERS
 UBDSV2 SAVING "STREAMFLOW OUT  " ON UNIT  50 AT TIME STEP  1, STRESS PERIOD   2



 STREAM LISTING     PERIOD      2   STEP        1

 LAYER ROW COL. STREAM  RCH.  FLOW INTO     FLOW TO   FLOW OUT OF   OVRLND.     DIRECT     STREAM       STREAM     STREAM     STREAM   STREAMBED  STREAMBED
                SEG.NO.  NO.  STRM. RCH.    AQUIFER    STRM. RCH.    RUNOFF     PRECIP       ET          HEAD       DEPTH      WIDTH   CONDCTNC.   GRADIENT

   1   13    1     1     1    1.0000E+05 -3.9203E+03   1.0392E+05  0.000E+00  0.000E+00  0.000E+00  4.84077E+01  1.463E-01  2.000E+01  2.000E+04 -1.960E-01
   1   13    2     1     2    1.0392E+05 -5.1778E+03   1.0910E+05  0.000E+00  0.000E+00  0.000E+00  4.79343E+01  1.502E-01  2.000E+01  2.000E+04 -2.589E-01
   1   14    3     1     3    1.0910E+05 -1.1090E+03   1.1021E+05  0.000E+00  0.000E+00  0.000E+00  4.74597E+01  1.529E-01  2.000E+01  2.000E+04 -5.545E-02
   1   15    4     1     4    1.1021E+05 -1.1371E+03   1.1134E+05  0.000E+00  0.000E+00  0.000E+00  4.69834E+01  1.538E-01  2.000E+01  2.000E+04 -5.685E-02
   1   16    5     1     5    1.1134E+05 -4.2101E+03   1.1555E+05  0.000E+00  0.000E+00  0.000E+00  4.65083E+01  1.560E-01  2.000E+01  2.000E+04 -2.105E-01
   1   16    6     1     6    1.1555E+05 -2.4702E+03   1.1802E+05  0.000E+00  0.000E+00  0.000E+00  4.60338E+01  1.588E-01  2.000E+01  2.000E+04 -1.235E-01
   1   16    7     1     7    1.1802E+05 -2.3639E+03   1.2039E+05  0.000E+00  0.000E+00  0.000E+00  4.55585E+01  1.607E-01  2.000E+01  2.000E+04 -1.182E-01
   1   16    8     1     8    1.2039E+05 -2.3161E+03   1.2270E+05  0.000E+00  0.000E+00  0.000E+00  4.50831E+01  1.626E-01  2.000E+01  2.000E+04 -1.158E-01
   1   16    9     1     9    1.2270E+05 -2.2672E+03   1.2497E+05  0.000E+00  0.000E+00  0.000E+00  4.46076E+01  1.645E-01  2.000E+01  2.000E+04 -1.134E-01
   1   16   10     1    10    1.2497E+05 -2.1992E+03   1.2717E+05  0.000E+00  0.000E+00  0.000E+00  4.41321E+01  1.662E-01  2.000E+01  2.000E+04 -1.100E-01
   1   16   11     1    11    1.2717E+05 -2.1259E+03   1.2930E+05  0.000E+00  0.000E+00  0.000E+00  4.36566E+01  1.679E-01  2.000E+01  2.000E+04 -1.063E-01
   1   16   12     1    12    1.2930E+05 -3.4299E+03   1.3273E+05  0.000E+00  0.000E+00  0.000E+00  4.31815E+01  1.701E-01  2.000E+01  2.000E+04 -1.715E-01
   1   15   13     1    13    1.3273E+05 -3.1762E+03   1.3590E+05  0.000E+00  0.000E+00  0.000E+00  4.27068E+01  1.727E-01  2.000E+01  2.000E+04 -1.588E-01
   1   14   14     1    14    1.3590E+05 -3.2828E+03   1.3919E+05  0.000E+00  0.000E+00  0.000E+00  4.22320E+01  1.751E-01  2.000E+01  2.000E+04 -1.641E-01
   1   13   15     1    15    1.3919E+05 -3.3327E+03   1.4252E+05  0.000E+00  0.000E+00  0.000E+00  4.17572E+01  1.777E-01  2.000E+01  2.000E+04 -1.666E-01
   1   12   16     1    16    1.4252E+05 -3.5790E+03   1.4610E+05  0.000E+00  0.000E+00  0.000E+00  4.12825E+01  1.803E-01  2.000E+01  2.000E+04 -1.790E-01
   1   12   17     1    17    1.4610E+05 -2.3044E+03   1.4840E+05  0.000E+00  0.000E+00  0.000E+00  4.08075E+01  1.825E-01  2.000E+01  2.000E+04 -1.152E-01
   1   12   18     1    18    1.4840E+05 -2.3678E+03   1.5077E+05  0.000E+00  0.000E+00  0.000E+00  4.03319E+01  1.842E-01  2.000E+01  2.000E+04 -1.184E-01
   1   12   19     1    19    1.5077E+05 -3.4922E+03   1.5426E+05  0.000E+00  0.000E+00  0.000E+00  3.98568E+01  1.863E-01  2.000E+01  2.000E+04 -1.746E-01
   1   13   20     1    20    1.5426E+05 -2.3332E+03   1.5659E+05  0.000E+00  0.000E+00  0.000E+00  3.93817E+01  1.885E-01  2.000E+01  2.000E+04 -1.167E-01
   1   14   21     1    21    1.5659E+05 -1.6437E+03   1.5824E+05  0.000E+00  0.000E+00  0.000E+00  3.89058E+01  1.899E-01  2.000E+01  2.000E+04 -8.219E-02
   1   14   22     1    22    1.5824E+05  4.6923E+03   1.5355E+05  0.000E+00  0.000E+00  0.000E+00  3.84274E+01  1.888E-01  2.000E+01  2.000E+04  2.346E-01
   1    9   30     2     1    5.0000E+04 -2.1148E+03   5.2115E+04  0.000E+00  0.000E+00  0.000E+00  4.02423E+01  1.173E-01  2.000E+01  2.000E+04 -1.057E-01
   1    9   29     2     2    5.2115E+04 -2.4191E+03   5.4534E+04  0.000E+00  0.000E+00  0.000E+00  3.99954E+01  1.204E-01  2.000E+01  2.000E+04 -1.210E-01
   1    9   28     2     3    5.4534E+04 -2.7089E+03   5.7243E+04  0.000E+00  0.000E+00  0.000E+00  3.97489E+01  1.239E-01  2.000E+01  2.000E+04 -1.354E-01
   1    9   27     2     4    5.7243E+04 -4.7159E+03   6.1959E+04  0.000E+00  0.000E+00  0.000E+00  3.95037E+01  1.287E-01  2.000E+01  2.000E+04 -2.358E-01
   1   10   26     2     5    6.1959E+04 -3.6088E+03   6.5568E+04  0.000E+00  0.000E+00  0.000E+00  3.92591E+01  1.341E-01  2.000E+01  2.000E+04 -1.804E-01
   1   11   25     2     6    6.5568E+04 -3.2022E+03   6.8770E+04  0.000E+00  0.000E+00  0.000E+00  3.90133E+01  1.383E-01  2.000E+01  2.000E+04 -1.601E-01
   1   12   24     2     7    6.8770E+04 -3.0424E+03   7.1812E+04  0.000E+00  0.000E+00  0.000E+00  3.87671E+01  1.421E-01  2.000E+01  2.000E+04 -1.521E-01
   1   13   23     2     8    7.1812E+04 -5.7819E+02   7.2390E+04  0.000E+00  0.000E+00  0.000E+00  3.85193E+01  1.443E-01  2.000E+01  2.000E+04 -2.891E-02
   1   14   22     2     9    7.2390E+04  1.5186E+03   7.0872E+04  0.000E+00  0.000E+00  0.000E+00  3.82688E+01  1.438E-01  2.000E+01  2.000E+04  7.593E-02
   1   14   22     3     1    2.2442E+05 -8.8006E+03   2.3322E+05  0.000E+00  0.000E+00  0.000E+00  3.77528E+01  1.972E-01  2.000E+01  2.000E+04 -4.400E-01
   1   15   23     3     2    2.3322E+05 -7.4568E+02   2.3396E+05  0.000E+00  0.000E+00  0.000E+00  3.68664E+01  1.997E-01  2.000E+01  2.000E+04 -3.728E-02
   1   15   24     3     3    2.3396E+05 -6.0581E+02   2.3457E+05  0.000E+00  0.000E+00  0.000E+00  3.59778E+01  2.000E-01  2.000E+01  2.000E+04 -3.029E-02
   1   15   25     3     4    2.3457E+05 -6.4143E+02   2.3521E+05  0.000E+00  0.000E+00  0.000E+00  3.50893E+01  2.004E-01  2.000E+01  2.000E+04 -3.207E-02
   1   15   26     3     5    2.3521E+05 -7.5941E+02   2.3597E+05  0.000E+00  0.000E+00  0.000E+00  3.42007E+01  2.007E-01  2.000E+01  2.000E+04 -3.797E-02
   1   16   27     3     6    2.3597E+05 -8.7494E+02   2.3685E+05  0.000E+00  0.000E+00  0.000E+00  3.33123E+01  2.011E-01  2.000E+01  2.000E+04 -4.375E-02
   1   17   28     3     7    2.3685E+05 -3.1634E+03   2.4001E+05  0.000E+00  0.000E+00  0.000E+00  3.24244E+01  2.022E-01  2.000E+01  2.000E+04 -1.582E-01
   1   18   29     3     8    2.4001E+05 -4.8373E+03   2.4485E+05  0.000E+00  0.000E+00  0.000E+00  3.15375E+01  2.042E-01  2.000E+01  2.000E+04 -2.419E-01
   1   18   30     3     9    2.4485E+05 -4.5587E+03   2.4941E+05  0.000E+00  0.000E+00  0.000E+00  3.06510E+01  2.066E-01  2.000E+01  2.000E+04 -2.279E-01



1
              HEAD IN LAYER   1 AT END OF TIME STEP   1 IN STRESS PERIOD    2
  ---------------------------------------------------------------------------

          1      2      3      4      5      6      7      8      9     10
         11     12     13     14     15     16     17     18     19     20
         21     22     23     24     25     26     27     28     29     30
 .........................................................................
   1  ****** ****** ****** ****** ****** ****** ****** ****** ****** ******
      ****** ****** ****** ****** ****** ****** ****** ****** ****** ******
      ****** ****** ****** ****** ****** ****** ****** ****** ****** ******
   2  ****** ****** ****** ****** ****** ****** ****** ****** ****** ******
      ****** ****** ****** ****** ****** ****** ****** ****** ****** ******
      ****** ****** ****** ****** ****** ****** ****** ****** ****** ******
   3  ****** ****** ****** ****** ****** ****** ****** ****** ****** ******
      ****** ****** ****** ****** ****** ****** ****** ****** ****** ******
      ****** ****** ****** ****** ****** ****** ****** ****** ****** ******
   4  ****** ****** ****** ****** ****** ****** ****** ****** ****** ******
      ****** ****** ****** ****** ****** ****** ****** ****** ****** ******
      ****** ****** ****** ****** ****** ****** ****** ****** ****** ******
   5  ****** ****** ****** ****** ****** ****** ****** ****** ****** ******
      ****** ****** ****** ****** ****** ****** ****** ****** ****** ******
      ****** ****** ****** ****** ****** ****** ****** ****** ****** ******
   6  ****** ****** ****** ****** ****** ****** ****** ****** ****** ******
      ****** ****** ****** ****** ****** ****** ****** ****** ****** ******
      ****** ****** ****** ****** ****** ****** ****** ****** ****** ******
   7  ****** ****** ****** ****** ****** ****** ****** ****** ****** ******
      ****** ****** ****** ****** ****** ****** ****** ****** ****** ******
      ****** ****** ****** ****** ****** ****** ****** ****** ****** ******
   8  ****** ****** ****** ****** ****** ****** ****** ****** ****** ******
      ****** ****** ****** ****** ****** ****** ****** ****** ****** ******
      ****** ****** ****** ****** ****** ****** ****** ****** ****** ******
   9  ****** ****** ****** ****** ****** ****** ****** ****** ****** ******
      ****** ****** ****** ****** ****** ****** ****** ****** ****** ******
      ****** ****** ****** ****** ****** ****** ****** ****** ****** ******
  10  ****** ****** ****** ****** ****** ****** ****** ****** ****** ******
      ****** ****** ****** ****** ****** ****** ****** ****** ****** ******
      ****** ****** ****** ****** ****** ****** ****** ****** ****** ******
  11  ****** ****** ****** ****** ****** ****** ****** ****** ****** ******
      ****** ****** ****** ****** ****** ****** ****** ****** ****** ******
      ****** ****** ****** ****** ****** ****** ****** ****** ****** ******
  12  ****** ****** ****** ****** ****** ****** ****** ****** ****** ******
      ****** ****** ****** ****** ****** ****** ****** ****** ****** ******
      ****** ****** ****** ****** ****** ****** ****** ****** ****** ******
  13  ****** ****** ****** ****** ****** ****** ****** ****** ****** ******
      ****** ****** ****** ****** ****** ****** ****** ****** ****** ******
      ****** ****** ****** ****** ****** ****** ****** ****** ****** ******
  14  ****** ****** ****** ****** ****** ****** ****** ****** ****** ******
      ****** ****** ****** ****** ****** ****** ****** ****** ****** ******
      ****** ****** ****** ****** ****** ****** ****** ****** ****** ******
  15  ****** ****** ****** ****** ****** ****** ****** ****** ****** ******
      ****** ****** ****** ****** ****** ****** ****** ****** ****** ******
      ****** ****** ****** ****** ****** ****** ****** ****** ****** ******
  16  ****** ****** ****** ****** ****** ****** ****** ****** ****** ******
      ****** ****** ****** ****** ****** ****** ****** ****** ****** ******
      ****** ****** ****** ****** ****** ****** ****** ****** ****** ******
  17  ****** ****** ****** ****** ****** ****** ****** ****** ****** ******
      ****** ****** ****** ****** ****** ****** ****** ****** ****** ******
      ****** ****** ****** ****** ****** ****** ****** ****** ****** ******
  18  ****** ****** ****** ****** ****** ****** ****** ****** ****** ******
      ****** ****** ****** ****** ****** ****** ****** ****** ****** ******
      ****** ****** ****** ****** ****** ****** ****** ****** ****** ******
  19  ****** ****** ****** ****** ****** ****** ****** ****** ****** ******
      ****** ****** ****** ****** ****** ****** ****** ****** ****** ******
      ****** ****** ****** ****** ****** ****** ****** ****** ****** ******
  20  ****** ****** ****** ****** ****** ****** ****** ****** ****** ******
      ****** ****** ****** ****** ****** ****** ****** ****** ****** ******
      ****** ****** ****** ****** ****** ****** ****** ****** ****** ******
  21  ****** ****** ****** ****** ****** ****** ****** ****** ****** ******
      ****** ****** ****** ****** ****** ****** ****** ****** ****** ******
      ****** ****** ****** ****** ****** ****** ****** ****** ****** ******
  22  ****** ****** ****** ****** ****** ****** ****** ****** ****** ******
      ****** ****** ****** ****** ****** ****** ****** ****** ****** ******
      ****** ****** ****** ****** ****** ****** ****** ****** ****** ******
  23  ****** ****** ****** ****** ****** ****** ****** ****** ****** ******
      ****** ****** ****** ****** ****** ****** ****** ****** ****** ******
      ****** ****** ****** ****** ****** ****** ****** ****** ****** ******
  24  ****** ****** ****** ****** ****** ****** ****** ****** ****** ******
      ****** ****** ****** ****** ****** ****** ****** ****** ****** ******
      ****** ****** ****** ****** ****** ****** ****** ****** ****** ******
  25  ****** ****** ****** ****** ****** ****** ****** ****** ****** ******
      ****** ****** ****** ****** ****** ****** ****** ****** ****** ******
      ****** ****** ****** ****** ****** ****** ****** ****** ****** ******

 HEAD WILL BE SAVED ON UNIT   51 AT END OF TIME STEP    1, STRESS PERIOD    2
1
  VOLUMETRIC BUDGET FOR ENTIRE MODEL AT END OF TIME STEP    1, STRESS PERIOD   2
  ------------------------------------------------------------------------------

     CUMULATIVE VOLUMES      L**3       RATES FOR THIS TIME STEP      L**3/T
     ------------------                 ------------------------

           IN:                                      IN:
           ---                                      ---
             STORAGE =    23549849.3047               STORAGE =       58187.4553
       CONSTANT HEAD =     2832825.7695         CONSTANT HEAD =       18000.1204
               WELLS =           0.0000                 WELLS =           0.0000
            RECHARGE =     6292800.0000              RECHARGE =       55200.0000
      STREAM LEAKAGE =      965418.6535        STREAM LEAKAGE =        6210.9428

            TOTAL IN =    33640893.7277              TOTAL IN =      137598.5185

          OUT:                                     OUT:
          ----                                     ----
             STORAGE =           0.0000               STORAGE =           0.0000
       CONSTANT HEAD =           0.0000         CONSTANT HEAD =           0.0000
               WELLS =     5852751.6301                 WELLS =       31982.2493
            RECHARGE =           0.0000              RECHARGE =           0.0000
      STREAM LEAKAGE =    27788143.3644        STREAM LEAKAGE =      105616.2797

           TOTAL OUT =    33640894.9945             TOTAL OUT =      137598.5290

            IN - OUT =          -1.2667              IN - OUT =      -1.0515E-02

 PERCENT DISCREPANCY =          -0.00     PERCENT DISCREPANCY =          -0.00






         TIME SUMMARY AT END OF TIME STEP    1 IN STRESS PERIOD    2
                    SECONDS     MINUTES      HOURS       DAYS        YEARS
                    -----------------------------------------------------------
   TIME STEP LENGTH 7.86240E+06 1.31040E+05  2184.0      91.000     0.24914    
 STRESS PERIOD TIME 7.86240E+06 1.31040E+05  2184.0      91.000     0.24914    
         TOTAL TIME 1.58112E+07 2.63520E+05  4392.0      183.00     0.50103    
1
1
                            STRESS PERIOD NO.    3, LENGTH =   91.00000    
                            -----------------------------------------------

                              NUMBER OF TIME STEPS =     1

                               MULTIPLIER FOR DELT =     1.500

                            INITIAL TIME STEP SIZE =   91.00000    

 WELL NO.  LAYER   ROW   COL   STRESS RATE         
 --------------------------------------------------
      1      1      5     13      -7278.    
      2      1      9     16      -9144.    
      3      1     16     19      -5032.    
      4      1     18     19     -0.1053E+05

      4 WELLS

                 RECHARGE =   0.00000    

 REUSING STREAM SEGMENT DATA FROM LAST STRESS PERIOD
 
 SOLVING FOR HEAD 


     7 CALLS TO PCG ROUTINE FOR TIME STEP   1 IN STRESS PERIOD    3
    27 TOTAL ITERATIONS

 OUTPUT CONTROL FOR STRESS PERIOD    3   TIME STEP    1
    SAVE BUDGET
    SAVE HEAD FOR ALL LAYERS
    PRINT HEAD FOR ALL LAYERS
 UBDSV2 SAVING "STREAMFLOW OUT  " ON UNIT  50 AT TIME STEP  1, STRESS PERIOD   3



 STREAM LISTING     PERIOD      3   STEP        1

 LAYER ROW COL. STREAM  RCH.  FLOW INTO     FLOW TO   FLOW OUT OF   OVRLND.     DIRECT     STREAM       STREAM     STREAM     STREAM   STREAMBED  STREAMBED
                SEG.NO.  NO.  STRM. RCH.    AQUIFER    STRM. RCH.    RUNOFF     PRECIP       ET          HEAD       DEPTH      WIDTH   CONDCTNC.   GRADIENT

   1   13    1     1     1    1.0000E+05 -2.6164E+03   1.0262E+05  0.000E+00  0.000E+00  0.000E+00  4.84071E+01  1.458E-01  2.000E+01  2.000E+04 -1.308E-01
   1   13    2     1     2    1.0262E+05 -3.7159E+03   1.0633E+05  0.000E+00  0.000E+00  0.000E+00  4.79326E+01  1.485E-01  2.000E+01  2.000E+04 -1.858E-01
   1   14    3     1     3    1.0633E+05 -6.4251E+02   1.0697E+05  0.000E+00  0.000E+00  0.000E+00  4.74572E+01  1.504E-01  2.000E+01  2.000E+04 -3.213E-02
   1   15    4     1     4    1.0697E+05 -6.2705E+02   1.0760E+05  0.000E+00  0.000E+00  0.000E+00  4.69804E+01  1.509E-01  2.000E+01  2.000E+04 -3.135E-02
   1   16    5     1     5    1.0760E+05 -2.3945E+03   1.1000E+05  0.000E+00  0.000E+00  0.000E+00  4.65044E+01  1.522E-01  2.000E+01  2.000E+04 -1.197E-01
   1   16    6     1     6    1.1000E+05 -1.4509E+03   1.1145E+05  0.000E+00  0.000E+00  0.000E+00  4.60288E+01  1.538E-01  2.000E+01  2.000E+04 -7.254E-02
   1   16    7     1     7    1.1145E+05 -1.3993E+03   1.1285E+05  0.000E+00  0.000E+00  0.000E+00  4.55527E+01  1.550E-01  2.000E+01  2.000E+04 -6.996E-02
   1   16    8     1     8    1.1285E+05 -1.3645E+03   1.1421E+05  0.000E+00  0.000E+00  0.000E+00  4.50765E+01  1.561E-01  2.000E+01  2.000E+04 -6.823E-02
   1   16    9     1     9    1.1421E+05 -1.3137E+03   1.1552E+05  0.000E+00  0.000E+00  0.000E+00  4.46004E+01  1.572E-01  2.000E+01  2.000E+04 -6.569E-02
   1   16   10     1    10    1.1552E+05 -1.2378E+03   1.1676E+05  0.000E+00  0.000E+00  0.000E+00  4.41242E+01  1.582E-01  2.000E+01  2.000E+04 -6.189E-02
   1   16   11     1    11    1.1676E+05 -1.1461E+03   1.1791E+05  0.000E+00  0.000E+00  0.000E+00  4.36479E+01  1.592E-01  2.000E+01  2.000E+04 -5.730E-02
   1   16   12     1    12    1.1791E+05 -1.6891E+03   1.1960E+05  0.000E+00  0.000E+00  0.000E+00  4.31717E+01  1.604E-01  2.000E+01  2.000E+04 -8.446E-02
   1   15   13     1    13    1.1960E+05 -1.3770E+03   1.2097E+05  0.000E+00  0.000E+00  0.000E+00  4.26957E+01  1.616E-01  2.000E+01  2.000E+04 -6.885E-02
   1   14   14     1    14    1.2097E+05 -1.4140E+03   1.2239E+05  0.000E+00  0.000E+00  0.000E+00  4.22195E+01  1.627E-01  2.000E+01  2.000E+04 -7.070E-02
   1   13   15     1    15    1.2239E+05 -1.4437E+03   1.2383E+05  0.000E+00  0.000E+00  0.000E+00  4.17434E+01  1.639E-01  2.000E+01  2.000E+04 -7.219E-02
   1   12   16     1    16    1.2383E+05 -1.6072E+03   1.2544E+05  0.000E+00  0.000E+00  0.000E+00  4.12674E+01  1.651E-01  2.000E+01  2.000E+04 -8.036E-02
   1   12   17     1    17    1.2544E+05 -8.9407E+02   1.2633E+05  0.000E+00  0.000E+00  0.000E+00  4.07911E+01  1.661E-01  2.000E+01  2.000E+04 -4.470E-02
   1   12   18     1    18    1.2633E+05 -9.8987E+02   1.2732E+05  0.000E+00  0.000E+00  0.000E+00  4.03145E+01  1.668E-01  2.000E+01  2.000E+04 -4.949E-02
   1   12   19     1    19    1.2732E+05 -1.7887E+03   1.2911E+05  0.000E+00  0.000E+00  0.000E+00  3.98384E+01  1.679E-01  2.000E+01  2.000E+04 -8.943E-02
   1   13   20     1    20    1.2911E+05 -7.6380E+02   1.2988E+05  0.000E+00  0.000E+00  0.000E+00  3.93621E+01  1.689E-01  2.000E+01  2.000E+04 -3.819E-02
   1   14   21     1    21    1.2988E+05 -5.4198E+00   1.2988E+05  0.000E+00  0.000E+00  0.000E+00  3.88851E+01  1.692E-01  2.000E+01  2.000E+04 -2.710E-04
   1   14   22     1    22    1.2988E+05  5.0686E+03   1.2481E+05  0.000E+00  0.000E+00  0.000E+00  3.84059E+01  1.672E-01  2.000E+01  2.000E+04  2.534E-01
   1    9   30     2     1    5.0000E+04 -9.0777E+02   5.0908E+04  0.000E+00  0.000E+00  0.000E+00  4.02415E+01  1.165E-01  2.000E+01  2.000E+04 -4.539E-02
   1    9   29     2     2    5.0908E+04 -1.2123E+03   5.2120E+04  0.000E+00  0.000E+00  0.000E+00  3.99930E+01  1.180E-01  2.000E+01  2.000E+04 -6.062E-02
   1    9   28     2     3    5.2120E+04 -1.4852E+03   5.3605E+04  0.000E+00  0.000E+00  0.000E+00  3.97448E+01  1.198E-01  2.000E+01  2.000E+04 -7.426E-02
   1    9   27     2     4    5.3605E+04 -2.9385E+03   5.6544E+04  0.000E+00  0.000E+00  0.000E+00  3.94978E+01  1.228E-01  2.000E+01  2.000E+04 -1.469E-01
   1   10   26     2     5    5.6544E+04 -1.9489E+03   5.8493E+04  0.000E+00  0.000E+00  0.000E+00  3.92510E+01  1.260E-01  2.000E+01  2.000E+04 -9.744E-02
   1   11   25     2     6    5.8493E+04 -1.6522E+03   6.0145E+04  0.000E+00  0.000E+00  0.000E+00  3.90034E+01  1.284E-01  2.000E+01  2.000E+04 -8.261E-02
   1   12   24     2     7    6.0145E+04 -1.6498E+03   6.1795E+04  0.000E+00  0.000E+00  0.000E+00  3.87555E+01  1.305E-01  2.000E+01  2.000E+04 -8.249E-02
   1   13   23     2     8    6.1795E+04 -2.3592E+02   6.2031E+04  0.000E+00  0.000E+00  0.000E+00  3.85067E+01  1.317E-01  2.000E+01  2.000E+04 -1.180E-02
   1   14   22     2     9    6.2031E+04  2.0622E+03   5.9968E+04  0.000E+00  0.000E+00  0.000E+00  3.82555E+01  1.305E-01  2.000E+01  2.000E+04  1.031E-01
   1   14   22     3     1    1.8478E+05 -8.4205E+03   1.9320E+05  0.000E+00  0.000E+00  0.000E+00  3.77314E+01  1.759E-01  2.000E+01  2.000E+04 -4.210E-01
   1   15   23     3     2    1.9320E+05 -3.1819E+02   1.9352E+05  0.000E+00  0.000E+00  0.000E+00  3.68450E+01  1.783E-01  2.000E+01  2.000E+04 -1.591E-02
   1   15   24     3     3    1.9352E+05 -2.6922E+02   1.9379E+05  0.000E+00  0.000E+00  0.000E+00  3.59562E+01  1.785E-01  2.000E+01  2.000E+04 -1.346E-02
   1   15   25     3     4    1.9379E+05 -2.9274E+02   1.9408E+05  0.000E+00  0.000E+00  0.000E+00  3.50675E+01  1.786E-01  2.000E+01  2.000E+04 -1.464E-02
   1   15   26     3     5    1.9408E+05 -3.5038E+02   1.9443E+05  0.000E+00  0.000E+00  0.000E+00  3.41788E+01  1.788E-01  2.000E+01  2.000E+04 -1.752E-02
   1   16   27     3     6    1.9443E+05 -3.9986E+02   1.9483E+05  0.000E+00  0.000E+00  0.000E+00  3.32901E+01  1.790E-01  2.000E+01  2.000E+04 -1.999E-02
   1   17   28     3     7    1.9483E+05 -1.7158E+03   1.9655E+05  0.000E+00  0.000E+00  0.000E+00  3.24018E+01  1.796E-01  2.000E+01  2.000E+04 -8.579E-02
   1   18   29     3     8    1.9655E+05 -3.2404E+03   1.9979E+05  0.000E+00  0.000E+00  0.000E+00  3.15143E+01  1.809E-01  2.000E+01  2.000E+04 -1.620E-01
   1   18   30     3     9    1.9979E+05 -3.3750E+03   2.0316E+05  0.000E+00  0.000E+00  0.000E+00  3.06272E+01  1.827E-01  2.000E+01  2.000E+04 -1.688E-01



1
              HEAD IN LAYER   1 AT END OF TIME STEP   1 IN STRESS PERIOD    3
  ---------------------------------------------------------------------------

          1      2      3      4      5      6      7      8      9     10
         11     12     13     14     15     16     17     18     19     20
         21     22     23     24     25     26     27     28     29     30
 .........................................................................
   1  ****** ****** ****** ****** ****** ****** ****** ****** ****** ******
      ****** ****** ****** ****** ****** ****** ****** ****** ****** ******
      ****** ****** ****** ****** ****** ****** ****** ****** ****** ******
   2  ****** ****** ****** ****** ****** ****** ****** ****** ****** ******
      ****** ****** ****** ****** ****** ****** ****** ****** ****** ******
      ****** ****** ****** ****** ****** ****** ****** ****** ****** ******
   3  ****** ****** ****** ****** ****** ****** ****** ****** ****** ******
      ****** ****** ****** ****** ****** ****** ****** ****** ****** ******
      ****** ****** ****** ****** ****** ****** ****** ****** ****** ******
   4  ****** ****** ****** ****** ****** ****** ****** ****** ****** ******
      ****** ****** ****** ****** ****** ****** ****** ****** ****** ******
      ****** ****** ****** ****** ****** ****** ****** ****** ****** ******
   5  ****** ****** ****** ****** ****** ****** ****** ****** ****** ******
      ****** ****** ****** ****** ****** ****** ****** ****** ****** ******
      ****** ****** ****** ****** ****** ****** ****** ****** ****** ******
   6  ****** ****** ****** ****** ****** ****** ****** ****** ****** ******
      ****** ****** ****** ****** ****** ****** ****** ****** ****** ******
      ****** ****** ****** ****** ****** ****** ****** ****** ****** ******
   7  ****** ****** ****** ****** ****** ****** ****** ****** ****** ******
      ****** ****** ****** ****** ****** ****** ****** ****** ****** ******
      ****** ****** ****** ****** ****** ****** ****** ****** ****** ******
   8  ****** ****** ****** ****** ****** ****** ****** ****** ****** ******
      ****** ****** ****** ****** ****** ****** ****** ****** ****** ******
      ****** ****** ****** ****** ****** ****** ****** ****** ****** ******
   9  ****** ****** ****** ****** ****** ****** ****** ****** ****** ******
      ****** ****** ****** ****** ****** ****** ****** ****** ****** ******
      ****** ****** ****** ****** ****** ****** ****** ****** ****** ******
  10  ****** ****** ****** ****** ****** ****** ****** ****** ****** ******
      ****** ****** ****** ****** ****** ****** ****** ****** ****** ******
      ****** ****** ****** ****** ****** ****** ****** ****** ****** ******
  11  ****** ****** ****** ****** ****** ****** ****** ****** ****** ******
      ****** ****** ****** ****** ****** ****** ****** ****** ****** ******
      ****** ****** ****** ****** ****** ****** ****** ****** ****** ******
  12  ****** ****** ****** ****** ****** ****** ****** ****** ****** ******
      ****** ****** ****** ****** ****** ****** ****** ****** ****** ******
      ****** ****** ****** ****** ****** ****** ****** ****** ****** ******
  13  ****** ****** ****** ****** ****** ****** ****** ****** ****** ******
      ****** ****** ****** ****** ****** ****** ****** ****** ****** ******
      ****** ****** ****** ****** ****** ****** ****** ****** ****** ******
  14  ****** ****** ****** ****** ****** ****** ****** ****** ****** ******
      ****** ****** ****** ****** ****** ****** ****** ****** ****** ******
      ****** ****** ****** ****** ****** ****** ****** ****** ****** ******
  15  ****** ****** ****** ****** ****** ****** ****** ****** ****** ******
      ****** ****** ****** ****** ****** ****** ****** ****** ****** ******
      ****** ****** ****** ****** ****** ****** ****** ****** ****** ******
  16  ****** ****** ****** ****** ****** ****** ****** ****** ****** ******
      ****** ****** ****** ****** ****** ****** ****** ****** ****** ******
      ****** ****** ****** ****** ****** ****** ****** ****** ****** ******
  17  ****** ****** ****** ****** ****** ****** ****** ****** ****** ******
      ****** ****** ****** ****** ****** ****** ****** ****** ****** ******
      ****** ****** ****** ****** ****** ****** ****** ****** ****** ******
  18  ****** ****** ****** ****** ****** ****** ****** ****** ****** ******
      ****** ****** ****** ****** ****** ****** ****** ****** ****** ******
      ****** ****** ****** ****** ****** ****** ****** ****** ****** ******
  19  ****** ****** ****** ****** ****** ****** ****** ****** ****** ******
      ****** ****** ****** ****** ****** ****** ****** ****** ****** ******
      ****** ****** ****** ****** ****** ****** ****** ****** ****** ******
  20  ****** ****** ****** ****** ****** ****** ****** ****** ****** ******
      ****** ****** ****** ****** ****** ****** ****** ****** ****** ******
      ****** ****** ****** ****** ****** ****** ****** ****** ****** ******
  21  ****** ****** ****** ****** ****** ****** ****** ****** ****** ******
      ****** ****** ****** ****** ****** ****** ****** ****** ****** ******
      ****** ****** ****** ****** ****** ****** ****** ****** ****** ******
  22  ****** ****** ****** ****** ****** ****** ****** ****** ****** ******
      ****** ****** ****** ****** ****** ****** ****** ****** ****** ******
      ****** ****** ****** ****** ****** ****** ****** ****** ****** ******
  23  ****** ****** ****** ****** ****** ****** ****** ****** ****** ******
      ****** ****** ****** ****** ****** ****** ****** ****** ****** ******
      ****** ****** ****** ****** ****** ****** ****** ****** ****** ******
  24  ****** ****** ****** ****** ****** ****** ****** ****** ****** ******
      ****** ****** ****** ****** ****** ****** ****** ****** ****** ******
      ****** ****** ****** ****** ****** ****** ****** ****** ****** ******
  25  ****** ****** ****** ****** ****** ****** ****** ****** ****** ******
      ****** ****** ****** ****** ****** ****** ****** ****** ****** ******
      ****** ****** ****** ****** ****** ****** ****** ****** ****** ******

 HEAD WILL BE SAVED ON UNIT   51 AT END OF TIME STEP    1, STRESS PERIOD    3
1
  VOLUMETRIC BUDGET FOR ENTIRE MODEL AT END OF TIME STEP    1, STRESS PERIOD   3
  ------------------------------------------------------------------------------

     CUMULATIVE VOLUMES      L**3       RATES FOR THIS TIME STEP      L**3/T
     ------------------                 ------------------------

           IN:                                      IN:
           ---                                      ---
             STORAGE =    28844687.1189               STORAGE =       58185.0309
       CONSTANT HEAD =     5286261.5714         CONSTANT HEAD =       26960.8330
               WELLS =           0.0000                 WELLS =           0.0000
            RECHARGE =     6292800.0000              RECHARGE =           0.0000
      STREAM LEAKAGE =     1614316.5917        STREAM LEAKAGE =        7130.7466

            TOTAL IN =    42038065.2821              TOTAL IN =       92276.6105

          OUT:                                     OUT:
          ----                                     ----
             STORAGE =           0.0000               STORAGE =           0.0000
       CONSTANT HEAD =           0.0000         CONSTANT HEAD =           0.0000
               WELLS =     8763136.3205                 WELLS =       31982.2493
            RECHARGE =           0.0000              RECHARGE =           0.0000
      STREAM LEAKAGE =    33274930.9121        STREAM LEAKAGE =       60294.3687

           TOTAL OUT =    42038067.2326             TOTAL OUT =       92276.6180

            IN - OUT =          -1.9506              IN - OUT =      -7.5144E-03

 PERCENT DISCREPANCY =          -0.00     PERCENT DISCREPANCY =          -0.00






         TIME SUMMARY AT END OF TIME STEP    1 IN STRESS PERIOD    3
                    SECONDS     MINUTES      HOURS       DAYS        YEARS
                    -----------------------------------------------------------
   TIME STEP LENGTH 7.86240E+06 1.31040E+05  2184.0      91.000     0.24914    
 STRESS PERIOD TIME 7.86240E+06 1.31040E+05  2184.0      91.000     0.24914    
         TOTAL TIME 2.36736E+07 3.94560E+05  6576.0      274.00     0.75017    
1
1
                            STRESS PERIOD NO.    4, LENGTH =   91.00000    
                            -----------------------------------------------

                              NUMBER OF TIME STEPS =     1

                               MULTIPLIER FOR DELT =     1.500

                            INITIAL TIME STEP SIZE =   91.00000    

 WELL NO.  LAYER   ROW   COL   STRESS RATE         
 --------------------------------------------------
      1      1      5     13      -7278.    
      2      1      9     16      -9144.    
      3      1     16     19      -5032.    
      4      1     18     19     -0.1053E+05

      4 WELLS

                 RECHARGE =  1.000000E-03

 REUSING STREAM SEGMENT DATA FROM LAST STRESS PERIOD
 
 SOLVING FOR HEAD 


     6 CALLS TO PCG ROUTINE FOR TIME STEP   1 IN STRESS PERIOD    4
    23 TOTAL ITERATIONS

 OUTPUT CONTROL FOR STRESS PERIOD    4   TIME STEP    1
    SAVE BUDGET
    SAVE HEAD FOR ALL LAYERS
    PRINT HEAD FOR ALL LAYERS
 UBDSV2 SAVING "STREAMFLOW OUT  " ON UNIT  50 AT TIME STEP  1, STRESS PERIOD   4



 STREAM LISTING     PERIOD      4   STEP        1

 LAYER ROW COL. STREAM  RCH.  FLOW INTO     FLOW TO   FLOW OUT OF   OVRLND.     DIRECT     STREAM       STREAM     STREAM     STREAM   STREAMBED  STREAMBED
                SEG.NO.  NO.  STRM. RCH.    AQUIFER    STRM. RCH.    RUNOFF     PRECIP       ET          HEAD       DEPTH      WIDTH   CONDCTNC.   GRADIENT

   1   13    1     1     1    1.0000E+05 -2.3350E+03   1.0234E+05  0.000E+00  0.000E+00  0.000E+00  4.84070E+01  1.457E-01  2.000E+01  2.000E+04 -1.168E-01
   1   13    2     1     2    1.0234E+05 -3.3916E+03   1.0573E+05  0.000E+00  0.000E+00  0.000E+00  4.79322E+01  1.481E-01  2.000E+01  2.000E+04 -1.696E-01
   1   14    3     1     3    1.0573E+05 -6.0850E+02   1.0634E+05  0.000E+00  0.000E+00  0.000E+00  4.74566E+01  1.498E-01  2.000E+01  2.000E+04 -3.043E-02
   1   15    4     1     4    1.0634E+05 -5.8411E+02   1.0692E+05  0.000E+00  0.000E+00  0.000E+00  4.69799E+01  1.503E-01  2.000E+01  2.000E+04 -2.921E-02
   1   16    5     1     5    1.0692E+05 -2.0787E+03   1.0900E+05  0.000E+00  0.000E+00  0.000E+00  4.65037E+01  1.515E-01  2.000E+01  2.000E+04 -1.039E-01
   1   16    6     1     6    1.0900E+05 -1.2917E+03   1.1029E+05  0.000E+00  0.000E+00  0.000E+00  4.60279E+01  1.529E-01  2.000E+01  2.000E+04 -6.458E-02
   1   16    7     1     7    1.1029E+05 -1.2497E+03   1.1154E+05  0.000E+00  0.000E+00  0.000E+00  4.55517E+01  1.539E-01  2.000E+01  2.000E+04 -6.248E-02
   1   16    8     1     8    1.1154E+05 -1.2170E+03   1.1276E+05  0.000E+00  0.000E+00  0.000E+00  4.50754E+01  1.550E-01  2.000E+01  2.000E+04 -6.085E-02
   1   16    9     1     9    1.1276E+05 -1.1664E+03   1.1392E+05  0.000E+00  0.000E+00  0.000E+00  4.45991E+01  1.559E-01  2.000E+01  2.000E+04 -5.832E-02
   1   16   10     1    10    1.1392E+05 -1.0909E+03   1.1501E+05  0.000E+00  0.000E+00  0.000E+00  4.41228E+01  1.569E-01  2.000E+01  2.000E+04 -5.454E-02
   1   16   11     1    11    1.1501E+05 -9.9482E+02   1.1601E+05  0.000E+00  0.000E+00  0.000E+00  4.36464E+01  1.577E-01  2.000E+01  2.000E+04 -4.974E-02
   1   16   12     1    12    1.1601E+05 -1.3653E+03   1.1737E+05  0.000E+00  0.000E+00  0.000E+00  4.31701E+01  1.587E-01  2.000E+01  2.000E+04 -6.827E-02
   1   15   13     1    13    1.1737E+05 -1.0625E+03   1.1844E+05  0.000E+00  0.000E+00  0.000E+00  4.26938E+01  1.597E-01  2.000E+01  2.000E+04 -5.313E-02
   1   14   14     1    14    1.1844E+05 -1.0670E+03   1.1950E+05  0.000E+00  0.000E+00  0.000E+00  4.22174E+01  1.605E-01  2.000E+01  2.000E+04 -5.335E-02
   1   13   15     1    15    1.1950E+05 -1.0644E+03   1.2057E+05  0.000E+00  0.000E+00  0.000E+00  4.17409E+01  1.614E-01  2.000E+01  2.000E+04 -5.322E-02
   1   12   16     1    16    1.2057E+05 -1.1194E+03   1.2169E+05  0.000E+00  0.000E+00  0.000E+00  4.12646E+01  1.623E-01  2.000E+01  2.000E+04 -5.597E-02
   1   12   17     1    17    1.2169E+05 -6.0128E+02   1.2229E+05  0.000E+00  0.000E+00  0.000E+00  4.07880E+01  1.630E-01  2.000E+01  2.000E+04 -3.006E-02
   1   12   18     1    18    1.2229E+05 -7.2041E+02   1.2301E+05  0.000E+00  0.000E+00  0.000E+00  4.03112E+01  1.635E-01  2.000E+01  2.000E+04 -3.602E-02
   1   12   19     1    19    1.2301E+05 -1.4631E+03   1.2447E+05  0.000E+00  0.000E+00  0.000E+00  3.98348E+01  1.644E-01  2.000E+01  2.000E+04 -7.315E-02
   1   13   20     1    20    1.2447E+05 -5.4271E+02   1.2501E+05  0.000E+00  0.000E+00  0.000E+00  3.93584E+01  1.652E-01  2.000E+01  2.000E+04 -2.714E-02
   1   14   21     1    21    1.2501E+05  2.9054E+02   1.2472E+05  0.000E+00  0.000E+00  0.000E+00  3.88812E+01  1.653E-01  2.000E+01  2.000E+04  1.453E-02
   1   14   22     1    22    1.2472E+05  5.1130E+03   1.1961E+05  0.000E+00  0.000E+00  0.000E+00  3.84018E+01  1.631E-01  2.000E+01  2.000E+04  2.557E-01
   1    9   30     2     1    5.0000E+04 -8.1368E+02   5.0814E+04  0.000E+00  0.000E+00  0.000E+00  4.02414E+01  1.164E-01  2.000E+01  2.000E+04 -4.068E-02
   1    9   29     2     2    5.0814E+04 -1.1103E+03   5.1924E+04  0.000E+00  0.000E+00  0.000E+00  3.99928E+01  1.178E-01  2.000E+01  2.000E+04 -5.551E-02
   1    9   28     2     3    5.1924E+04 -1.3604E+03   5.3284E+04  0.000E+00  0.000E+00  0.000E+00  3.97444E+01  1.194E-01  2.000E+01  2.000E+04 -6.802E-02
   1    9   27     2     4    5.3284E+04 -2.6488E+03   5.5933E+04  0.000E+00  0.000E+00  0.000E+00  3.94972E+01  1.222E-01  2.000E+01  2.000E+04 -1.324E-01
   1   10   26     2     5    5.5933E+04 -1.7720E+03   5.7705E+04  0.000E+00  0.000E+00  0.000E+00  3.92501E+01  1.251E-01  2.000E+01  2.000E+04 -8.860E-02
   1   11   25     2     6    5.7705E+04 -1.5153E+03   5.9220E+04  0.000E+00  0.000E+00  0.000E+00  3.90023E+01  1.273E-01  2.000E+01  2.000E+04 -7.576E-02
   1   12   24     2     7    5.9220E+04 -1.5287E+03   6.0749E+04  0.000E+00  0.000E+00  0.000E+00  3.87542E+01  1.292E-01  2.000E+01  2.000E+04 -7.643E-02
   1   13   23     2     8    6.0749E+04 -2.5770E+02   6.1007E+04  0.000E+00  0.000E+00  0.000E+00  3.85054E+01  1.304E-01  2.000E+01  2.000E+04 -1.289E-02
   1   14   22     2     9    6.1007E+04  2.1613E+03   5.8846E+04  0.000E+00  0.000E+00  0.000E+00  3.82542E+01  1.292E-01  2.000E+01  2.000E+04  1.081E-01
   1   14   22     3     1    1.7846E+05 -8.3651E+03   1.8682E+05  0.000E+00  0.000E+00  0.000E+00  3.77278E+01  1.723E-01  2.000E+01  2.000E+04 -4.183E-01
   1   15   23     3     2    1.8682E+05 -2.7957E+02   1.8710E+05  0.000E+00  0.000E+00  0.000E+00  3.68414E+01  1.747E-01  2.000E+01  2.000E+04 -1.398E-02
   1   15   24     3     3    1.8710E+05 -2.6130E+02   1.8736E+05  0.000E+00  0.000E+00  0.000E+00  3.59527E+01  1.749E-01  2.000E+01  2.000E+04 -1.307E-02
   1   15   25     3     4    1.8736E+05 -2.8638E+02   1.8765E+05  0.000E+00  0.000E+00  0.000E+00  3.50639E+01  1.750E-01  2.000E+01  2.000E+04 -1.432E-02
   1   15   26     3     5    1.8765E+05 -3.5620E+02   1.8800E+05  0.000E+00  0.000E+00  0.000E+00  3.41752E+01  1.752E-01  2.000E+01  2.000E+04 -1.781E-02
   1   16   27     3     6    1.8800E+05 -3.9422E+02   1.8840E+05  0.000E+00  0.000E+00  0.000E+00  3.32865E+01  1.754E-01  2.000E+01  2.000E+04 -1.971E-02
   1   17   28     3     7    1.8840E+05 -1.6311E+03   1.9003E+05  0.000E+00  0.000E+00  0.000E+00  3.23982E+01  1.760E-01  2.000E+01  2.000E+04 -8.155E-02
   1   18   29     3     8    1.9003E+05 -2.9766E+03   1.9301E+05  0.000E+00  0.000E+00  0.000E+00  3.15106E+01  1.773E-01  2.000E+01  2.000E+04 -1.488E-01
   1   18   30     3     9    1.9301E+05 -3.2395E+03   1.9625E+05  0.000E+00  0.000E+00  0.000E+00  3.06234E+01  1.790E-01  2.000E+01  2.000E+04 -1.620E-01



1
              HEAD IN LAYER   1 AT END OF TIME STEP   1 IN STRESS PERIOD    4
  ---------------------------------------------------------------------------

          1      2      3      4      5      6      7      8      9     10
         11     12     13     14     15     16     17     18     19     20
         21     22     23     24     25     26     27     28     29     30
 .........................................................................
   1  ****** ****** ****** ****** ****** ****** ****** ****** ****** ******
      ****** ****** ****** ****** ****** ****** ****** ****** ****** ******
      ****** ****** ****** ****** ****** ****** ****** ****** ****** ******
   2  ****** ****** ****** ****** ****** ****** ****** ****** ****** ******
      ****** ****** ****** ****** ****** ****** ****** ****** ****** ******
      ****** ****** ****** ****** ****** ****** ****** ****** ****** ******
   3  ****** ****** ****** ****** ****** ****** ****** ****** ****** ******
      ****** ****** ****** ****** ****** ****** ****** ****** ****** ******
      ****** ****** ****** ****** ****** ****** ****** ****** ****** ******
   4  ****** ****** ****** ****** ****** ****** ****** ****** ****** ******
      ****** ****** ****** ****** ****** ****** ****** ****** ****** ******
      ****** ****** ****** ****** ****** ****** ****** ****** ****** ******
   5  ****** ****** ****** ****** ****** ****** ****** ****** ****** ******
      ****** ****** ****** ****** ****** ****** ****** ****** ****** ******
      ****** ****** ****** ****** ****** ****** ****** ****** ****** ******
   6  ****** ****** ****** ****** ****** ****** ****** ****** ****** ******
      ****** ****** ****** ****** ****** ****** ****** ****** ****** ******
      ****** ****** ****** ****** ****** ****** ****** ****** ****** ******
   7  ****** ****** ****** ****** ****** ****** ****** ****** ****** ******
      ****** ****** ****** ****** ****** ****** ****** ****** ****** ******
      ****** ****** ****** ****** ****** ****** ****** ****** ****** ******
   8  ****** ****** ****** ****** ****** ****** ****** ****** ****** ******
      ****** ****** ****** ****** ****** ****** ****** ****** ****** ******
      ****** ****** ****** ****** ****** ****** ****** ****** ****** ******
   9  ****** ****** ****** ****** ****** ****** ****** ****** ****** ******
      ****** ****** ****** ****** ****** ****** ****** ****** ****** ******
      ****** ****** ****** ****** ****** ****** ****** ****** ****** ******
  10  ****** ****** ****** ****** ****** ****** ****** ****** ****** ******
      ****** ****** ****** ****** ****** ****** ****** ****** ****** ******
      ****** ****** ****** ****** ****** ****** ****** ****** ****** ******
  11  ****** ****** ****** ****** ****** ****** ****** ****** ****** ******
      ****** ****** ****** ****** ****** ****** ****** ****** ****** ******
      ****** ****** ****** ****** ****** ****** ****** ****** ****** ******
  12  ****** ****** ****** ****** ****** ****** ****** ****** ****** ******
      ****** ****** ****** ****** ****** ****** ****** ****** ****** ******
      ****** ****** ****** ****** ****** ****** ****** ****** ****** ******
  13  ****** ****** ****** ****** ****** ****** ****** ****** ****** ******
      ****** ****** ****** ****** ****** ****** ****** ****** ****** ******
      ****** ****** ****** ****** ****** ****** ****** ****** ****** ******
  14  ****** ****** ****** ****** ****** ****** ****** ****** ****** ******
      ****** ****** ****** ****** ****** ****** ****** ****** ****** ******
      ****** ****** ****** ****** ****** ****** ****** ****** ****** ******
  15  ****** ****** ****** ****** ****** ****** ****** ****** ****** ******
      ****** ****** ****** ****** ****** ****** ****** ****** ****** ******
      ****** ****** ****** ****** ****** ****** ****** ****** ****** ******
  16  ****** ****** ****** ****** ****** ****** ****** ****** ****** ******
      ****** ****** ****** ****** ****** ****** ****** ****** ****** ******
      ****** ****** ****** ****** ****** ****** ****** ****** ****** ******
  17  ****** ****** ****** ****** ****** ****** ****** ****** ****** ******
      ****** ****** ****** ****** ****** ****** ****** ****** ****** ******
      ****** ****** ****** ****** ****** ****** ****** ****** ****** ******
  18  ****** ****** ****** ****** ****** ****** ****** ****** ****** ******
      ****** ****** ****** ****** ****** ****** ****** ****** ****** ******
      ****** ****** ****** ****** ****** ****** ****** ****** ****** ******
  19  ****** ****** ****** ****** ****** ****** ****** ****** ****** ******
      ****** ****** ****** ****** ****** ****** ****** ****** ****** ******
      ****** ****** ****** ****** ****** ****** ****** ****** ****** ******
  20  ****** ****** ****** ****** ****** ****** ****** ****** ****** ******
      ****** ****** ****** ****** ****** ****** ****** ****** ****** ******
      ****** ****** ****** ****** ****** ****** ****** ****** ****** ******
  21  ****** ****** ****** ****** ****** ****** ****** ****** ****** ******
      ****** ****** ****** ****** ****** ****** ****** ****** ****** ******
      ****** ****** ****** ****** ****** ****** ****** ****** ****** ******
  22  ****** ****** ****** ****** ****** ****** ****** ****** ****** ******
      ****** ****** ****** ****** ****** ****** ****** ****** ****** ******
      ****** ****** ****** ****** ****** ****** ****** ****** ****** ******
  23  ****** ****** ****** ****** ****** ****** ****** ****** ****** ******
      ****** ****** ****** ****** ****** ****** ****** ****** ****** ******
      ****** ****** ****** ****** ****** ****** ****** ****** ****** ******
  24  ****** ****** ****** ****** ****** ****** ****** ****** ****** ******
      ****** ****** ****** ****** ****** ****** ****** ****** ****** ******
      ****** ****** ****** ****** ****** ****** ****** ****** ****** ******
  25  ****** ****** ****** ****** ****** ****** ****** ****** ****** ******
      ****** ****** ****** ****** ****** ****** ****** ****** ****** ******
      ****** ****** ****** ****** ****** ****** ****** ****** ****** ******

 HEAD WILL BE SAVED ON UNIT   51 AT END OF TIME STEP    1, STRESS PERIOD    4
1
  VOLUMETRIC BUDGET FOR ENTIRE MODEL AT END OF TIME STEP    1, STRESS PERIOD   4
  ------------------------------------------------------------------------------

     CUMULATIVE VOLUMES      L**3       RATES FOR THIS TIME STEP      L**3/T
     ------------------                 ------------------------

           IN:                                      IN:
           ---                                      ---
             STORAGE =    30735355.1724               STORAGE =       20776.5720
       CONSTANT HEAD =     8003963.8999         CONSTANT HEAD =       29864.8608
               WELLS =           0.0000                 WELLS =           0.0000
            RECHARGE =     8804400.0000              RECHARGE =       27600.0000
      STREAM LEAKAGE =     2302715.7068        STREAM LEAKAGE =        7564.8254

            TOTAL IN =    49846434.7791              TOTAL IN =       85806.2582

          OUT:                                     OUT:
          ----                                     ----
             STORAGE =        1180.1892               STORAGE =          12.9691
       CONSTANT HEAD =           0.0000         CONSTANT HEAD =           0.0000
               WELLS =    11673521.0109                 WELLS =       31982.2493
            RECHARGE =           0.0000              RECHARGE =           0.0000
      STREAM LEAKAGE =    38171735.6130        STREAM LEAKAGE =       53811.0407

           TOTAL OUT =    49846436.8131             TOTAL OUT =       85806.2591

            IN - OUT =          -2.0340              IN - OUT =      -9.1648E-04

 PERCENT DISCREPANCY =          -0.00     PERCENT DISCREPANCY =          -0.00






         TIME SUMMARY AT END OF TIME STEP    1 IN STRESS PERIOD    4
                    SECONDS     MINUTES      HOURS       DAYS        YEARS
                    -----------------------------------------------------------
   TIME STEP LENGTH 7.86240E+06 1.31040E+05  2184.0      91.000     0.24914    
 STRESS PERIOD TIME 7.86240E+06 1.31040E+05  2184.0      91.000     0.24914    
         TOTAL TIME 3.15360E+07 5.25600E+05  8760.0      365.00     0.99932    
1
1
                            STRESS PERIOD NO.    5, LENGTH =   92.00000    
                            -----------------------------------------------

                              NUMBER OF TIME STEPS =     1

                               MULTIPLIER FOR DELT =     1.500

                            INITIAL TIME STEP SIZE =   92.00000    

 WELL NO.  LAYER   ROW   COL   STRESS RATE         
 --------------------------------------------------
      1      1      5     13      -7278.    
      2      1      9     16      -9144.    
      3      1     16     19      -5032.    
      4      1     18     19     -0.1053E+05

      4 WELLS

                 RECHARGE =  5.000000E-04

 REUSING STREAM SEGMENT DATA FROM LAST STRESS PERIOD
 
 SOLVING FOR HEAD 


     7 CALLS TO PCG ROUTINE FOR TIME STEP   1 IN STRESS PERIOD    5
    26 TOTAL ITERATIONS

 OUTPUT CONTROL FOR STRESS PERIOD    5   TIME STEP    1
    SAVE BUDGET
    SAVE HEAD FOR ALL LAYERS
    PRINT HEAD FOR ALL LAYERS
 UBDSV2 SAVING "STREAMFLOW OUT  " ON UNIT  50 AT TIME STEP  1, STRESS PERIOD   5



 STREAM LISTING     PERIOD      5   STEP        1

 LAYER ROW COL. STREAM  RCH.  FLOW INTO     FLOW TO   FLOW OUT OF   OVRLND.     DIRECT     STREAM       STREAM     STREAM     STREAM   STREAMBED  STREAMBED
                SEG.NO.  NO.  STRM. RCH.    AQUIFER    STRM. RCH.    RUNOFF     PRECIP       ET          HEAD       DEPTH      WIDTH   CONDCTNC.   GRADIENT

   1   13    1     1     1    1.0000E+05 -1.8829E+03   1.0188E+05  0.000E+00  0.000E+00  0.000E+00  4.84068E+01  1.455E-01  2.000E+01  2.000E+04 -9.414E-02
   1   13    2     1     2    1.0188E+05 -2.8809E+03   1.0476E+05  0.000E+00  0.000E+00  0.000E+00  4.79316E+01  1.475E-01  2.000E+01  2.000E+04 -1.440E-01
   1   14    3     1     3    1.0476E+05 -4.8130E+02   1.0525E+05  0.000E+00  0.000E+00  0.000E+00  4.74558E+01  1.490E-01  2.000E+01  2.000E+04 -2.407E-02
   1   15    4     1     4    1.0525E+05 -4.5125E+02   1.0570E+05  0.000E+00  0.000E+00  0.000E+00  4.69789E+01  1.493E-01  2.000E+01  2.000E+04 -2.256E-02
   1   16    5     1     5    1.0570E+05 -1.6386E+03   1.0733E+05  0.000E+00  0.000E+00  0.000E+00  4.65025E+01  1.502E-01  2.000E+01  2.000E+04 -8.193E-02
   1   16    6     1     6    1.0733E+05 -1.0321E+03   1.0837E+05  0.000E+00  0.000E+00  0.000E+00  4.60264E+01  1.514E-01  2.000E+01  2.000E+04 -5.160E-02
   1   16    7     1     7    1.0837E+05 -9.9954E+02   1.0937E+05  0.000E+00  0.000E+00  0.000E+00  4.55499E+01  1.522E-01  2.000E+01  2.000E+04 -4.998E-02
   1   16    8     1     8    1.0937E+05 -9.6947E+02   1.1034E+05  0.000E+00  0.000E+00  0.000E+00  4.50735E+01  1.530E-01  2.000E+01  2.000E+04 -4.847E-02
   1   16    9     1     9    1.1034E+05 -9.2089E+02   1.1126E+05  0.000E+00  0.000E+00  0.000E+00  4.45970E+01  1.538E-01  2.000E+01  2.000E+04 -4.604E-02
   1   16   10     1    10    1.1126E+05 -8.4780E+02   1.1210E+05  0.000E+00  0.000E+00  0.000E+00  4.41205E+01  1.546E-01  2.000E+01  2.000E+04 -4.239E-02
   1   16   11     1    11    1.1210E+05 -7.4979E+02   1.1285E+05  0.000E+00  0.000E+00  0.000E+00  4.36439E+01  1.552E-01  2.000E+01  2.000E+04 -3.749E-02
   1   16   12     1    12    1.1285E+05 -9.2037E+02   1.1377E+05  0.000E+00  0.000E+00  0.000E+00  4.31673E+01  1.559E-01  2.000E+01  2.000E+04 -4.602E-02
   1   15   13     1    13    1.1377E+05 -5.8884E+02   1.1436E+05  0.000E+00  0.000E+00  0.000E+00  4.26906E+01  1.565E-01  2.000E+01  2.000E+04 -2.944E-02
   1   14   14     1    14    1.1436E+05 -5.5921E+02   1.1492E+05  0.000E+00  0.000E+00  0.000E+00  4.22138E+01  1.570E-01  2.000E+01  2.000E+04 -2.796E-02
   1   13   15     1    15    1.1492E+05 -5.3437E+02   1.1546E+05  0.000E+00  0.000E+00  0.000E+00  4.17370E+01  1.575E-01  2.000E+01  2.000E+04 -2.672E-02
   1   12   16     1    16    1.1546E+05 -5.3474E+02   1.1599E+05  0.000E+00  0.000E+00  0.000E+00  4.12602E+01  1.579E-01  2.000E+01  2.000E+04 -2.674E-02
   1   12   17     1    17    1.1599E+05 -2.1369E+02   1.1621E+05  0.000E+00  0.000E+00  0.000E+00  4.07832E+01  1.582E-01  2.000E+01  2.000E+04 -1.068E-02
   1   12   18     1    18    1.1621E+05 -3.5389E+02   1.1656E+05  0.000E+00  0.000E+00  0.000E+00  4.03062E+01  1.584E-01  2.000E+01  2.000E+04 -1.769E-02
   1   12   19     1    19    1.1656E+05 -1.0222E+03   1.1758E+05  0.000E+00  0.000E+00  0.000E+00  3.98295E+01  1.590E-01  2.000E+01  2.000E+04 -5.111E-02
   1   13   20     1    20    1.1758E+05 -1.6144E+02   1.1774E+05  0.000E+00  0.000E+00  0.000E+00  3.93527E+01  1.595E-01  2.000E+01  2.000E+04 -8.072E-03
   1   14   21     1    21    1.1774E+05  7.0126E+02   1.1704E+05  0.000E+00  0.000E+00  0.000E+00  3.88752E+01  1.593E-01  2.000E+01  2.000E+04  3.506E-02
   1   14   22     1    22    1.1704E+05  5.1951E+03   1.1185E+05  0.000E+00  0.000E+00  0.000E+00  3.83955E+01  1.568E-01  2.000E+01  2.000E+04  2.598E-01
   1    9   30     2     1    5.0000E+04 -5.7808E+02   5.0578E+04  0.000E+00  0.000E+00  0.000E+00  4.02413E+01  1.163E-01  2.000E+01  2.000E+04 -2.890E-02
   1    9   29     2     2    5.0578E+04 -8.7057E+02   5.1449E+04  0.000E+00  0.000E+00  0.000E+00  3.99923E+01  1.173E-01  2.000E+01  2.000E+04 -4.353E-02
   1    9   28     2     3    5.1449E+04 -1.1075E+03   5.2556E+04  0.000E+00  0.000E+00  0.000E+00  3.97436E+01  1.186E-01  2.000E+01  2.000E+04 -5.537E-02
   1    9   27     2     4    5.2556E+04 -2.2451E+03   5.4801E+04  0.000E+00  0.000E+00  0.000E+00  3.94959E+01  1.209E-01  2.000E+01  2.000E+04 -1.123E-01
   1   10   26     2     5    5.4801E+04 -1.4192E+03   5.6220E+04  0.000E+00  0.000E+00  0.000E+00  3.92484E+01  1.234E-01  2.000E+01  2.000E+04 -7.096E-02
   1   11   25     2     6    5.6220E+04 -1.1905E+03   5.7411E+04  0.000E+00  0.000E+00  0.000E+00  3.90001E+01  1.251E-01  2.000E+01  2.000E+04 -5.953E-02
   1   12   24     2     7    5.7411E+04 -1.2304E+03   5.8641E+04  0.000E+00  0.000E+00  0.000E+00  3.87517E+01  1.267E-01  2.000E+01  2.000E+04 -6.152E-02
   1   13   23     2     8    5.8641E+04 -1.8695E+02   5.8828E+04  0.000E+00  0.000E+00  0.000E+00  3.85026E+01  1.276E-01  2.000E+01  2.000E+04 -9.348E-03
   1   14   22     2     9    5.8828E+04  2.3099E+03   5.6518E+04  0.000E+00  0.000E+00  0.000E+00  3.82512E+01  1.262E-01  2.000E+01  2.000E+04  1.155E-01
   1   14   22     3     1    1.6837E+05 -8.2738E+03   1.7664E+05  0.000E+00  0.000E+00  0.000E+00  3.77220E+01  1.665E-01  2.000E+01  2.000E+04 -4.137E-01
   1   15   23     3     2    1.7664E+05 -1.7323E+02   1.7681E+05  0.000E+00  0.000E+00  0.000E+00  3.68356E+01  1.689E-01  2.000E+01  2.000E+04 -8.661E-03
   1   15   24     3     3    1.7681E+05 -1.8497E+02   1.7700E+05  0.000E+00  0.000E+00  0.000E+00  3.59468E+01  1.690E-01  2.000E+01  2.000E+04 -9.249E-03
   1   15   25     3     4    1.7700E+05 -2.1141E+02   1.7721E+05  0.000E+00  0.000E+00  0.000E+00  3.50580E+01  1.691E-01  2.000E+01  2.000E+04 -1.057E-02
   1   15   26     3     5    1.7721E+05 -2.8180E+02   1.7749E+05  0.000E+00  0.000E+00  0.000E+00  3.41693E+01  1.693E-01  2.000E+01  2.000E+04 -1.409E-02
   1   16   27     3     6    1.7749E+05 -2.9952E+02   1.7779E+05  0.000E+00  0.000E+00  0.000E+00  3.32806E+01  1.694E-01  2.000E+01  2.000E+04 -1.498E-02
   1   17   28     3     7    1.7779E+05 -1.3485E+03   1.7914E+05  0.000E+00  0.000E+00  0.000E+00  3.23921E+01  1.699E-01  2.000E+01  2.000E+04 -6.743E-02
   1   18   29     3     8    1.7914E+05 -2.5711E+03   1.8171E+05  0.000E+00  0.000E+00  0.000E+00  3.15044E+01  1.710E-01  2.000E+01  2.000E+04 -1.286E-01
   1   18   30     3     9    1.8171E+05 -2.9630E+03   1.8467E+05  0.000E+00  0.000E+00  0.000E+00  3.06170E+01  1.726E-01  2.000E+01  2.000E+04 -1.482E-01



1
              HEAD IN LAYER   1 AT END OF TIME STEP   1 IN STRESS PERIOD    5
  ---------------------------------------------------------------------------

          1      2      3      4      5      6      7      8      9     10
         11     12     13     14     15     16     17     18     19     20
         21     22     23     24     25     26     27     28     29     30
 .........................................................................
   1  ****** ****** ****** ****** ****** ****** ****** ****** ****** ******
      ****** ****** ****** ****** ****** ****** ****** ****** ****** ******
      ****** ****** ****** ****** ****** ****** ****** ****** ****** ******
   2  ****** ****** ****** ****** ****** ****** ****** ****** ****** ******
      ****** ****** ****** ****** ****** ****** ****** ****** ****** ******
      ****** ****** ****** ****** ****** ****** ****** ****** ****** ******
   3  ****** ****** ****** ****** ****** ****** ****** ****** ****** ******
      ****** ****** ****** ****** ****** ****** ****** ****** ****** ******
      ****** ****** ****** ****** ****** ****** ****** ****** ****** ******
   4  ****** ****** ****** ****** ****** ****** ****** ****** ****** ******
      ****** ****** ****** ****** ****** ****** ****** ****** ****** ******
      ****** ****** ****** ****** ****** ****** ****** ****** ****** ******
   5  ****** ****** ****** ****** ****** ****** ****** ****** ****** ******
      ****** ****** ****** ****** ****** ****** ****** ****** ****** ******
      ****** ****** ****** ****** ****** ****** ****** ****** ****** ******
   6  ****** ****** ****** ****** ****** ****** ****** ****** ****** ******
      ****** ****** ****** ****** ****** ****** ****** ****** ****** ******
      ****** ****** ****** ****** ****** ****** ****** ****** ****** ******
   7  ****** ****** ****** ****** ****** ****** ****** ****** ****** ******
      ****** ****** ****** ****** ****** ****** ****** ****** ****** ******
      ****** ****** ****** ****** ****** ****** ****** ****** ****** ******
   8  ****** ****** ****** ****** ****** ****** ****** ****** ****** ******
      ****** ****** ****** ****** ****** ****** ****** ****** ****** ******
      ****** ****** ****** ****** ****** ****** ****** ****** ****** ******
   9  ****** ****** ****** ****** ****** ****** ****** ****** ****** ******
      ****** ****** ****** ****** ****** ****** ****** ****** ****** ******
      ****** ****** ****** ****** ****** ****** ****** ****** ****** ******
  10  ****** ****** ****** ****** ****** ****** ****** ****** ****** ******
      ****** ****** ****** ****** ****** ****** ****** ****** ****** ******
      ****** ****** ****** ****** ****** ****** ****** ****** ****** ******
  11  ****** ****** ****** ****** ****** ****** ****** ****** ****** ******
      ****** ****** ****** ****** ****** ****** ****** ****** ****** ******
      ****** ****** ****** ****** ****** ****** ****** ****** ****** ******
  12  ****** ****** ****** ****** ****** ****** ****** ****** ****** ******
      ****** ****** ****** ****** ****** ****** ****** ****** ****** ******
      ****** ****** ****** ****** ****** ****** ****** ****** ****** ******
  13  ****** ****** ****** ****** ****** ****** ****** ****** ****** ******
      ****** ****** ****** ****** ****** ****** ****** ****** ****** ******
      ****** ****** ****** ****** ****** ****** ****** ****** ****** ******
  14  ****** ****** ****** ****** ****** ****** ****** ****** ****** ******
      ****** ****** ****** ****** ****** ****** ****** ****** ****** ******
      ****** ****** ****** ****** ****** ****** ****** ****** ****** ******
  15  ****** ****** ****** ****** ****** ****** ****** ****** ****** ******
      ****** ****** ****** ****** ****** ****** ****** ****** ****** ******
      ****** ****** ****** ****** ****** ****** ****** ****** ****** ******
  16  ****** ****** ****** ****** ****** ****** ****** ****** ****** ******
      ****** ****** ****** ****** ****** ****** ****** ****** ****** ******
      ****** ****** ****** ****** ****** ****** ****** ****** ****** ******
  17  ****** ****** ****** ****** ****** ****** ****** ****** ****** ******
      ****** ****** ****** ****** ****** ****** ****** ****** ****** ******
      ****** ****** ****** ****** ****** ****** ****** ****** ****** ******
  18  ****** ****** ****** ****** ****** ****** ****** ****** ****** ******
      ****** ****** ****** ****** ****** ****** ****** ****** ****** ******
      ****** ****** ****** ****** ****** ****** ****** ****** ****** ******
  19  ****** ****** ****** ****** ****** ****** ****** ****** ****** ******
      ****** ****** ****** ****** ****** ****** ****** ****** ****** ******
      ****** ****** ****** ****** ****** ****** ****** ****** ****** ******
  20  ****** ****** ****** ****** ****** ****** ****** ****** ****** ******
      ****** ****** ****** ****** ****** ****** ****** ****** ****** ******
      ****** ****** ****** ****** ****** ****** ****** ****** ****** ******
  21  ****** ****** ****** ****** ****** ****** ****** ****** ****** ******
      ****** ****** ****** ****** ****** ****** ****** ****** ****** ******
      ****** ****** ****** ****** ****** ****** ****** ****** ****** ******
  22  ****** ****** ****** ****** ****** ****** ****** ****** ****** ******
      ****** ****** ****** ****** ****** ****** ****** ****** ****** ******
      ****** ****** ****** ****** ****** ****** ****** ****** ****** ******
  23  ****** ****** ****** ****** ****** ****** ****** ****** ****** ******
      ****** ****** ****** ****** ****** ****** ****** ****** ****** ******
      ****** ****** ****** ****** ****** ****** ****** ****** ****** ******
  24  ****** ****** ****** ****** ****** ****** ****** ****** ****** ******
      ****** ****** ****** ****** ****** ****** ****** ****** ****** ******
      ****** ****** ****** ****** ****** ****** ****** ****** ****** ******
  25  ****** ****** ****** ****** ****** ****** ****** ****** ****** ******
      ****** ****** ****** ****** ****** ****** ****** ****** ****** ******
      ****** ****** ****** ****** ****** ****** ****** ****** ****** ******

 HEAD WILL BE SAVED ON UNIT   51 AT END OF TIME STEP    1, STRESS PERIOD    5
1
  VOLUMETRIC BUDGET FOR ENTIRE MODEL AT END OF TIME STEP    1, STRESS PERIOD   5
  ------------------------------------------------------------------------------

     CUMULATIVE VOLUMES      L**3       RATES FOR THIS TIME STEP      L**3/T
     ------------------                 ------------------------

           IN:                                      IN:
           ---                                      ---
             STORAGE =    32562182.7902               STORAGE =       19856.8219
       CONSTANT HEAD =    11039785.3686         CONSTANT HEAD =       32998.0594
               WELLS =           0.0000                 WELLS =           0.0000
            RECHARGE =    10074000.0000              RECHARGE =       13800.0000
      STREAM LEAKAGE =     3057691.8454        STREAM LEAKAGE =        8206.2624

            TOTAL IN =    56733660.0042              TOTAL IN =       74861.1438

          OUT:                                     OUT:
          ----                                     ----
             STORAGE =        1180.1892               STORAGE =           0.0000
       CONSTANT HEAD =           0.0000         CONSTANT HEAD =           0.0000
               WELLS =    14615887.9506                 WELLS =       31982.2493
            RECHARGE =           0.0000              RECHARGE =           0.0000
      STREAM LEAKAGE =    42116594.2060        STREAM LEAKAGE =       42878.8978

           TOTAL OUT =    56733662.3458             TOTAL OUT =       74861.1471

            IN - OUT =          -2.3416              IN - OUT =      -3.3442E-03

 PERCENT DISCREPANCY =          -0.00     PERCENT DISCREPANCY =          -0.00






         TIME SUMMARY AT END OF TIME STEP    1 IN STRESS PERIOD    5
                    SECONDS     MINUTES      HOURS       DAYS        YEARS
                    -----------------------------------------------------------
   TIME STEP LENGTH 7.94880E+06 1.32480E+05  2208.0      92.000     0.25188    
 STRESS PERIOD TIME 7.94880E+06 1.32480E+05  2208.0      92.000     0.25188    
         TOTAL TIME 3.94848E+07 6.58080E+05  10968.      457.00      1.2512    
1
1
                            STRESS PERIOD NO.    6, LENGTH =   91.00000    
                            -----------------------------------------------

                              NUMBER OF TIME STEPS =     1

                               MULTIPLIER FOR DELT =     1.500

                            INITIAL TIME STEP SIZE =   91.00000    

 WELL NO.  LAYER   ROW   COL   STRESS RATE         
 --------------------------------------------------
      1      1      5     13      -7278.    
      2      1      9     16      -9144.    
      3      1     16     19      -5032.    
      4      1     18     19     -0.1053E+05

      4 WELLS

                 RECHARGE =  2.000000E-03

 REUSING STREAM SEGMENT DATA FROM LAST STRESS PERIOD
 
 SOLVING FOR HEAD 


     7 CALLS TO PCG ROUTINE FOR TIME STEP   1 IN STRESS PERIOD    6
    26 TOTAL ITERATIONS

 OUTPUT CONTROL FOR STRESS PERIOD    6   TIME STEP    1
    SAVE BUDGET
    SAVE HEAD FOR ALL LAYERS
    PRINT HEAD FOR ALL LAYERS
 UBDSV2 SAVING "STREAMFLOW OUT  " ON UNIT  50 AT TIME STEP  1, STRESS PERIOD   6



 STREAM LISTING     PERIOD      6   STEP        1

 LAYER ROW COL. STREAM  RCH.  FLOW INTO     FLOW TO   FLOW OUT OF   OVRLND.     DIRECT     STREAM       STREAM     STREAM     STREAM   STREAMBED  STREAMBED
                SEG.NO.  NO.  STRM. RCH.    AQUIFER    STRM. RCH.    RUNOFF     PRECIP       ET          HEAD       DEPTH      WIDTH   CONDCTNC.   GRADIENT

   1   13    1     1     1    1.0000E+05 -2.1699E+03   1.0217E+05  0.000E+00  0.000E+00  0.000E+00  4.84070E+01  1.456E-01  2.000E+01  2.000E+04 -1.085E-01
   1   13    2     1     2    1.0217E+05 -3.1940E+03   1.0536E+05  0.000E+00  0.000E+00  0.000E+00  4.79320E+01  1.479E-01  2.000E+01  2.000E+04 -1.597E-01
   1   14    3     1     3    1.0536E+05 -6.3212E+02   1.0600E+05  0.000E+00  0.000E+00  0.000E+00  4.74563E+01  1.495E-01  2.000E+01  2.000E+04 -3.161E-02
   1   15    4     1     4    1.0600E+05 -6.1427E+02   1.0661E+05  0.000E+00  0.000E+00  0.000E+00  4.69796E+01  1.501E-01  2.000E+01  2.000E+04 -3.071E-02
   1   16    5     1     5    1.0661E+05 -2.1290E+03   1.0874E+05  0.000E+00  0.000E+00  0.000E+00  4.65035E+01  1.512E-01  2.000E+01  2.000E+04 -1.064E-01
   1   16    6     1     6    1.0874E+05 -1.3182E+03   1.1006E+05  0.000E+00  0.000E+00  0.000E+00  4.60277E+01  1.527E-01  2.000E+01  2.000E+04 -6.591E-02
   1   16    7     1     7    1.1006E+05 -1.2699E+03   1.1133E+05  0.000E+00  0.000E+00  0.000E+00  4.55515E+01  1.537E-01  2.000E+01  2.000E+04 -6.350E-02
   1   16    8     1     8    1.1133E+05 -1.2348E+03   1.1256E+05  0.000E+00  0.000E+00  0.000E+00  4.50752E+01  1.548E-01  2.000E+01  2.000E+04 -6.174E-02
   1   16    9     1     9    1.1256E+05 -1.1855E+03   1.1375E+05  0.000E+00  0.000E+00  0.000E+00  4.45990E+01  1.558E-01  2.000E+01  2.000E+04 -5.927E-02
   1   16   10     1    10    1.1375E+05 -1.1138E+03   1.1486E+05  0.000E+00  0.000E+00  0.000E+00  4.41226E+01  1.567E-01  2.000E+01  2.000E+04 -5.569E-02
   1   16   11     1    11    1.1486E+05 -1.0187E+03   1.1588E+05  0.000E+00  0.000E+00  0.000E+00  4.36462E+01  1.576E-01  2.000E+01  2.000E+04 -5.094E-02
   1   16   12     1    12    1.1588E+05 -1.3502E+03   1.1723E+05  0.000E+00  0.000E+00  0.000E+00  4.31699E+01  1.586E-01  2.000E+01  2.000E+04 -6.751E-02
   1   15   13     1    13    1.1723E+05 -1.0237E+03   1.1825E+05  0.000E+00  0.000E+00  0.000E+00  4.26936E+01  1.595E-01  2.000E+01  2.000E+04 -5.118E-02
   1   14   14     1    14    1.1825E+05 -9.8475E+02   1.1924E+05  0.000E+00  0.000E+00  0.000E+00  4.22172E+01  1.604E-01  2.000E+01  2.000E+04 -4.924E-02
   1   13   15     1    15    1.1924E+05 -9.3717E+02   1.2018E+05  0.000E+00  0.000E+00  0.000E+00  4.17407E+01  1.611E-01  2.000E+01  2.000E+04 -4.686E-02
   1   12   16     1    16    1.2018E+05 -8.8551E+02   1.2106E+05  0.000E+00  0.000E+00  0.000E+00  4.12641E+01  1.619E-01  2.000E+01  2.000E+04 -4.428E-02
   1   12   17     1    17    1.2106E+05 -5.0816E+02   1.2157E+05  0.000E+00  0.000E+00  0.000E+00  4.07874E+01  1.624E-01  2.000E+01  2.000E+04 -2.541E-02
   1   12   18     1    18    1.2157E+05 -6.5462E+02   1.2222E+05  0.000E+00  0.000E+00  0.000E+00  4.03106E+01  1.629E-01  2.000E+01  2.000E+04 -3.273E-02
   1   12   19     1    19    1.2222E+05 -1.3980E+03   1.2362E+05  0.000E+00  0.000E+00  0.000E+00  3.98342E+01  1.637E-01  2.000E+01  2.000E+04 -6.990E-02
   1   13   20     1    20    1.2362E+05 -5.6977E+02   1.2419E+05  0.000E+00  0.000E+00  0.000E+00  3.93577E+01  1.645E-01  2.000E+01  2.000E+04 -2.849E-02
   1   14   21     1    21    1.2419E+05  3.0528E+02   1.2389E+05  0.000E+00  0.000E+00  0.000E+00  3.88805E+01  1.646E-01  2.000E+01  2.000E+04  1.526E-02
   1   14   22     1    22    1.2389E+05  5.0923E+03   1.1879E+05  0.000E+00  0.000E+00  0.000E+00  3.84011E+01  1.625E-01  2.000E+01  2.000E+04  2.546E-01
   1    9   30     2     1    5.0000E+04 -9.3902E+02   5.0939E+04  0.000E+00  0.000E+00  0.000E+00  4.02415E+01  1.165E-01  2.000E+01  2.000E+04 -4.695E-02
   1    9   29     2     2    5.0939E+04 -1.2268E+03   5.2166E+04  0.000E+00  0.000E+00  0.000E+00  3.99930E+01  1.180E-01  2.000E+01  2.000E+04 -6.134E-02
   1    9   28     2     3    5.2166E+04 -1.4561E+03   5.3622E+04  0.000E+00  0.000E+00  0.000E+00  3.97448E+01  1.198E-01  2.000E+01  2.000E+04 -7.281E-02
   1    9   27     2     4    5.3622E+04 -2.6820E+03   5.6304E+04  0.000E+00  0.000E+00  0.000E+00  3.94976E+01  1.226E-01  2.000E+01  2.000E+04 -1.341E-01
   1   10   26     2     5    5.6304E+04 -1.8813E+03   5.8185E+04  0.000E+00  0.000E+00  0.000E+00  3.92507E+01  1.257E-01  2.000E+01  2.000E+04 -9.406E-02
   1   11   25     2     6    5.8185E+04 -1.6382E+03   5.9823E+04  0.000E+00  0.000E+00  0.000E+00  3.90030E+01  1.280E-01  2.000E+01  2.000E+04 -8.191E-02
   1   12   24     2     7    5.9823E+04 -1.6331E+03   6.1456E+04  0.000E+00  0.000E+00  0.000E+00  3.87551E+01  1.301E-01  2.000E+01  2.000E+04 -8.165E-02
   1   13   23     2     8    6.1456E+04 -3.2364E+02   6.1780E+04  0.000E+00  0.000E+00  0.000E+00  3.85063E+01  1.313E-01  2.000E+01  2.000E+04 -1.618E-02
   1   14   22     2     9    6.1780E+04  2.1736E+03   5.9607E+04  0.000E+00  0.000E+00  0.000E+00  3.82552E+01  1.302E-01  2.000E+01  2.000E+04  1.087E-01
   1   14   22     3     1    1.7840E+05 -8.3732E+03   1.8677E+05  0.000E+00  0.000E+00  0.000E+00  3.77278E+01  1.723E-01  2.000E+01  2.000E+04 -4.187E-01
   1   15   23     3     2    1.8677E+05 -3.0695E+02   1.8708E+05  0.000E+00  0.000E+00  0.000E+00  3.68414E+01  1.747E-01  2.000E+01  2.000E+04 -1.535E-02
   1   15   24     3     3    1.8708E+05 -3.0494E+02   1.8739E+05  0.000E+00  0.000E+00  0.000E+00  3.59527E+01  1.749E-01  2.000E+01  2.000E+04 -1.525E-02
   1   15   25     3     4    1.8739E+05 -3.3614E+02   1.8772E+05  0.000E+00  0.000E+00  0.000E+00  3.50639E+01  1.751E-01  2.000E+01  2.000E+04 -1.681E-02
   1   15   26     3     5    1.8772E+05 -4.3214E+02   1.8815E+05  0.000E+00  0.000E+00  0.000E+00  3.41753E+01  1.753E-01  2.000E+01  2.000E+04 -2.161E-02
   1   16   27     3     6    1.8815E+05 -4.6631E+02   1.8862E+05  0.000E+00  0.000E+00  0.000E+00  3.32866E+01  1.755E-01  2.000E+01  2.000E+04 -2.332E-02
   1   17   28     3     7    1.8862E+05 -1.8048E+03   1.9043E+05  0.000E+00  0.000E+00  0.000E+00  3.23984E+01  1.762E-01  2.000E+01  2.000E+04 -9.024E-02
   1   18   29     3     8    1.9043E+05 -2.9970E+03   1.9342E+05  0.000E+00  0.000E+00  0.000E+00  3.15108E+01  1.775E-01  2.000E+01  2.000E+04 -1.498E-01
   1   18   30     3     9    1.9342E+05 -3.3111E+03   1.9673E+05  0.000E+00  0.000E+00  0.000E+00  3.06237E+01  1.792E-01  2.000E+01  2.000E+04 -1.656E-01



1
              HEAD IN LAYER   1 AT END OF TIME STEP   1 IN STRESS PERIOD    6
  ---------------------------------------------------------------------------

          1      2      3      4      5      6      7      8      9     10
         11     12     13     14     15     16     17     18     19     20
         21     22     23     24     25     26     27     28     29     30
 .........................................................................
   1  ****** ****** ****** ****** ****** ****** ****** ****** ****** ******
      ****** ****** ****** ****** ****** ****** ****** ****** ****** ******
      ****** ****** ****** ****** ****** ****** ****** ****** ****** ******
   2  ****** ****** ****** ****** ****** ****** ****** ****** ****** ******
      ****** ****** ****** ****** ****** ****** ****** ****** ****** ******
      ****** ****** ****** ****** ****** ****** ****** ****** ****** ******
   3  ****** ****** ****** ****** ****** ****** ****** ****** ****** ******
      ****** ****** ****** ****** ****** ****** ****** ****** ****** ******
      ****** ****** ****** ****** ****** ****** ****** ****** ****** ******
   4  ****** ****** ****** ****** ****** ****** ****** ****** ****** ******
      ****** ****** ****** ****** ****** ****** ****** ****** ****** ******
      ****** ****** ****** ****** ****** ****** ****** ****** ****** ******
   5  ****** ****** ****** ****** ****** ****** ****** ****** ****** ******
      ****** ****** ****** ****** ****** ****** ****** ****** ****** ******
      ****** ****** ****** ****** ****** ****** ****** ****** ****** ******
   6  ****** ****** ****** ****** ****** ****** ****** ****** ****** ******
      ****** ****** ****** ****** ****** ****** ****** ****** ****** ******
      ****** ****** ****** ****** ****** ****** ****** ****** ****** ******
   7  ****** ****** ****** ****** ****** ****** ****** ****** ****** ******
      ****** ****** ****** ****** ****** ****** ****** ****** ****** ******
      ****** ****** ****** ****** ****** ****** ****** ****** ****** ******
   8  ****** ****** ****** ****** ****** ****** ****** ****** ****** ******
      ****** ****** ****** ****** ****** ****** ****** ****** ****** ******
      ****** ****** ****** ****** ****** ****** ****** ****** ****** ******
   9  ****** ****** ****** ****** ****** ****** ****** ****** ****** ******
      ****** ****** ****** ****** ****** ****** ****** ****** ****** ******
      ****** ****** ****** ****** ****** ****** ****** ****** ****** ******
  10  ****** ****** ****** ****** ****** ****** ****** ****** ****** ******
      ****** ****** ****** ****** ****** ****** ****** ****** ****** ******
      ****** ****** ****** ****** ****** ****** ****** ****** ****** ******
  11  ****** ****** ****** ****** ****** ****** ****** ****** ****** ******
      ****** ****** ****** ****** ****** ****** ****** ****** ****** ******
      ****** ****** ****** ****** ****** ****** ****** ****** ****** ******
  12  ****** ****** ****** ****** ****** ****** ****** ****** ****** ******
      ****** ****** ****** ****** ****** ****** ****** ****** ****** ******
      ****** ****** ****** ****** ****** ****** ****** ****** ****** ******
  13  ****** ****** ****** ****** ****** ****** ****** ****** ****** ******
      ****** ****** ****** ****** ****** ****** ****** ****** ****** ******
      ****** ****** ****** ****** ****** ****** ****** ****** ****** ******
  14  ****** ****** ****** ****** ****** ****** ****** ****** ****** ******
      ****** ****** ****** ****** ****** ****** ****** ****** ****** ******
      ****** ****** ****** ****** ****** ****** ****** ****** ****** ******
  15  ****** ****** ****** ****** ****** ****** ****** ****** ****** ******
      ****** ****** ****** ****** ****** ****** ****** ****** ****** ******
      ****** ****** ****** ****** ****** ****** ****** ****** ****** ******
  16  ****** ****** ****** ****** ****** ****** ****** ****** ****** ******
      ****** ****** ****** ****** ****** ****** ****** ****** ****** ******
      ****** ****** ****** ****** ****** ****** ****** ****** ****** ******
  17  ****** ****** ****** ****** ****** ****** ****** ****** ****** ******
      ****** ****** ****** ****** ****** ****** ****** ****** ****** ******
      ****** ****** ****** ****** ****** ****** ****** ****** ****** ******
  18  ****** ****** ****** ****** ****** ****** ****** ****** ****** ******
      ****** ****** ****** ****** ****** ****** ****** ****** ****** ******
      ****** ****** ****** ****** ****** ****** ****** ****** ****** ******
  19  ****** ****** ****** ****** ****** ****** ****** ****** ****** ******
      ****** ****** ****** ****** ****** ****** ****** ****** ****** ******
      ****** ****** ****** ****** ****** ****** ****** ****** ****** ******
  20  ****** ****** ****** ****** ****** ****** ****** ****** ****** ******
      ****** ****** ****** ****** ****** ****** ****** ****** ****** ******
      ****** ****** ****** ****** ****** ****** ****** ****** ****** ******
  21  ****** ****** ****** ****** ****** ****** ****** ****** ****** ******
      ****** ****** ****** ****** ****** ****** ****** ****** ****** ******
      ****** ****** ****** ****** ****** ****** ****** ****** ****** ******
  22  ****** ****** ****** ****** ****** ****** ****** ****** ****** ******
      ****** ****** ****** ****** ****** ****** ****** ****** ****** ******
      ****** ****** ****** ****** ****** ****** ****** ****** ****** ******
  23  ****** ****** ****** ****** ****** ****** ****** ****** ****** ******
      ****** ****** ****** ****** ****** ****** ****** ****** ****** ******
      ****** ****** ****** ****** ****** ****** ****** ****** ****** ******
  24  ****** ****** ****** ****** ****** ****** ****** ****** ****** ******
      ****** ****** ****** ****** ****** ****** ****** ****** ****** ******
      ****** ****** ****** ****** ****** ****** ****** ****** ****** ******
  25  ****** ****** ****** ****** ****** ****** ****** ****** ****** ******
      ****** ****** ****** ****** ****** ****** ****** ****** ****** ******
      ****** ****** ****** ****** ****** ****** ****** ****** ****** ******

 HEAD WILL BE SAVED ON UNIT   51 AT END OF TIME STEP    1, STRESS PERIOD    6
1
  VOLUMETRIC BUDGET FOR ENTIRE MODEL AT END OF TIME STEP    1, STRESS PERIOD   6
  ------------------------------------------------------------------------------

     CUMULATIVE VOLUMES      L**3       RATES FOR THIS TIME STEP      L**3/T
     ------------------                 ------------------------

           IN:                                      IN:
           ---                                      ---
             STORAGE =    32565336.8004               STORAGE =          34.6595
       CONSTANT HEAD =    13881851.1708         CONSTANT HEAD =       31231.4923
               WELLS =           0.0000                 WELLS =           0.0000
            RECHARGE =    15097200.0000              RECHARGE =       55200.0000
      STREAM LEAKAGE =     3746666.5856        STREAM LEAKAGE =        7571.1510

            TOTAL IN =    65291054.5568              TOTAL IN =       94037.3028

          OUT:                                     OUT:
          ----                                     ----
             STORAGE =      706464.1880               STORAGE =        7750.3736
       CONSTANT HEAD =           0.0000         CONSTANT HEAD =           0.0000
               WELLS =    17526272.6410                 WELLS =       31982.2493
            RECHARGE =           0.0000              RECHARGE =           0.0000
      STREAM LEAKAGE =    47058319.8135        STREAM LEAKAGE =       54304.6770

           TOTAL OUT =    65291056.6424             TOTAL OUT =       94037.3000

            IN - OUT =          -2.0856              IN - OUT =       2.8130E-03

 PERCENT DISCREPANCY =          -0.00     PERCENT DISCREPANCY =           0.00






         TIME SUMMARY AT END OF TIME STEP    1 IN STRESS PERIOD    6
                    SECONDS     MINUTES      HOURS       DAYS        YEARS
                    -----------------------------------------------------------
   TIME STEP LENGTH 7.86240E+06 1.31040E+05  2184.0      91.000     0.24914    
 STRESS PERIOD TIME 7.86240E+06 1.31040E+05  2184.0      91.000     0.24914    
         TOTAL TIME 4.73472E+07 7.89120E+05  13152.      548.00      1.5003    
1
1
                            STRESS PERIOD NO.    7, LENGTH =   91.00000    
                            -----------------------------------------------

                              NUMBER OF TIME STEPS =     1

                               MULTIPLIER FOR DELT =     1.500

                            INITIAL TIME STEP SIZE =   91.00000    

 WELL NO.  LAYER   ROW   COL   STRESS RATE         
 --------------------------------------------------
      1      1      5     13      -7278.    
      2      1      9     16      -9144.    
      3      1     16     19      -5032.    
      4      1     18     19     -0.1053E+05

      4 WELLS

                 RECHARGE =   0.00000    

 REUSING STREAM SEGMENT DATA FROM LAST STRESS PERIOD
 
 SOLVING FOR HEAD 


     7 CALLS TO PCG ROUTINE FOR TIME STEP   1 IN STRESS PERIOD    7
    26 TOTAL ITERATIONS

 OUTPUT CONTROL FOR STRESS PERIOD    7   TIME STEP    1
    SAVE BUDGET
    SAVE HEAD FOR ALL LAYERS
    PRINT HEAD FOR ALL LAYERS
 UBDSV2 SAVING "STREAMFLOW OUT  " ON UNIT  50 AT TIME STEP  1, STRESS PERIOD   7



 STREAM LISTING     PERIOD      7   STEP        1

 LAYER ROW COL. STREAM  RCH.  FLOW INTO     FLOW TO   FLOW OUT OF   OVRLND.     DIRECT     STREAM       STREAM     STREAM     STREAM   STREAMBED  STREAMBED
                SEG.NO.  NO.  STRM. RCH.    AQUIFER    STRM. RCH.    RUNOFF     PRECIP       ET          HEAD       DEPTH      WIDTH   CONDCTNC.   GRADIENT

   1   13    1     1     1    1.0000E+05 -1.4837E+03   1.0148E+05  0.000E+00  0.000E+00  0.000E+00  4.84067E+01  1.453E-01  2.000E+01  2.000E+04 -7.418E-02
   1   13    2     1     2    1.0148E+05 -2.4255E+03   1.0391E+05  0.000E+00  0.000E+00  0.000E+00  4.79311E+01  1.470E-01  2.000E+01  2.000E+04 -1.213E-01
   1   14    3     1     3    1.0391E+05 -3.7698E+02   1.0429E+05  0.000E+00  0.000E+00  0.000E+00  4.74550E+01  1.482E-01  2.000E+01  2.000E+04 -1.885E-02
   1   15    4     1     4    1.0429E+05 -3.4894E+02   1.0464E+05  0.000E+00  0.000E+00  0.000E+00  4.69780E+01  1.485E-01  2.000E+01  2.000E+04 -1.745E-02
   1   16    5     1     5    1.0464E+05 -1.3716E+03   1.0601E+05  0.000E+00  0.000E+00  0.000E+00  4.65015E+01  1.492E-01  2.000E+01  2.000E+04 -6.858E-02
   1   16    6     1     6    1.0601E+05 -8.6027E+02   1.0687E+05  0.000E+00  0.000E+00  0.000E+00  4.60252E+01  1.502E-01  2.000E+01  2.000E+04 -4.301E-02
   1   16    7     1     7    1.0687E+05 -8.3000E+02   1.0770E+05  0.000E+00  0.000E+00  0.000E+00  4.55486E+01  1.509E-01  2.000E+01  2.000E+04 -4.150E-02
   1   16    8     1     8    1.0770E+05 -8.0066E+02   1.0850E+05  0.000E+00  0.000E+00  0.000E+00  4.50720E+01  1.516E-01  2.000E+01  2.000E+04 -4.003E-02
   1   16    9     1     9    1.0850E+05 -7.5436E+02   1.0925E+05  0.000E+00  0.000E+00  0.000E+00  4.45954E+01  1.522E-01  2.000E+01  2.000E+04 -3.772E-02
   1   16   10     1    10    1.0925E+05 -6.8521E+02   1.0994E+05  0.000E+00  0.000E+00  0.000E+00  4.41187E+01  1.528E-01  2.000E+01  2.000E+04 -3.426E-02
   1   16   11     1    11    1.0994E+05 -5.8895E+02   1.1053E+05  0.000E+00  0.000E+00  0.000E+00  4.36420E+01  1.534E-01  2.000E+01  2.000E+04 -2.945E-02
   1   16   12     1    12    1.1053E+05 -6.2567E+02   1.1115E+05  0.000E+00  0.000E+00  0.000E+00  4.31652E+01  1.539E-01  2.000E+01  2.000E+04 -3.128E-02
   1   15   13     1    13    1.1115E+05 -2.4357E+02   1.1140E+05  0.000E+00  0.000E+00  0.000E+00  4.26883E+01  1.542E-01  2.000E+01  2.000E+04 -1.218E-02
   1   14   14     1    14    1.1140E+05 -1.7401E+02   1.1157E+05  0.000E+00  0.000E+00  0.000E+00  4.22112E+01  1.544E-01  2.000E+01  2.000E+04 -8.700E-03
   1   13   15     1    15    1.1157E+05 -1.2222E+02   1.1169E+05  0.000E+00  0.000E+00  0.000E+00  4.17341E+01  1.545E-01  2.000E+01  2.000E+04 -6.111E-03
   1   12   16     1    16    1.1169E+05 -7.2981E+01   1.1176E+05  0.000E+00  0.000E+00  0.000E+00  4.12569E+01  1.546E-01  2.000E+01  2.000E+04 -3.649E-03
   1   12   17     1    17    1.1176E+05  7.9175E+01   1.1169E+05  0.000E+00  0.000E+00  0.000E+00  4.07796E+01  1.546E-01  2.000E+01  2.000E+04  3.959E-03
   1   12   18     1    18    1.1169E+05 -8.2875E+01   1.1177E+05  0.000E+00  0.000E+00  0.000E+00  4.03023E+01  1.546E-01  2.000E+01  2.000E+04 -4.144E-03
   1   12   19     1    19    1.1177E+05 -7.0043E+02   1.1247E+05  0.000E+00  0.000E+00  0.000E+00  3.98254E+01  1.549E-01  2.000E+01  2.000E+04 -3.502E-02
   1   13   20     1    20    1.1247E+05  1.0670E+02   1.1236E+05  0.000E+00  0.000E+00  0.000E+00  3.93484E+01  1.552E-01  2.000E+01  2.000E+04  5.335E-03
   1   14   21     1    21    1.1236E+05  9.7358E+02   1.1139E+05  0.000E+00  0.000E+00  0.000E+00  3.88706E+01  1.547E-01  2.000E+01  2.000E+04  4.868E-02
   1   14   22     1    22    1.1139E+05  5.2472E+03   1.0614E+05  0.000E+00  0.000E+00  0.000E+00  3.83908E+01  1.521E-01  2.000E+01  2.000E+04  2.624E-01
   1    9   30     2     1    5.0000E+04 -4.2356E+02   5.0424E+04  0.000E+00  0.000E+00  0.000E+00  4.02412E+01  1.162E-01  2.000E+01  2.000E+04 -2.118E-02
   1    9   29     2     2    5.0424E+04 -7.1296E+02   5.1137E+04  0.000E+00  0.000E+00  0.000E+00  3.99919E+01  1.169E-01  2.000E+01  2.000E+04 -3.565E-02
   1    9   28     2     3    5.1137E+04 -9.4044E+02   5.2077E+04  0.000E+00  0.000E+00  0.000E+00  3.97431E+01  1.181E-01  2.000E+01  2.000E+04 -4.702E-02
   1    9   27     2     4    5.2077E+04 -1.9790E+03   5.4056E+04  0.000E+00  0.000E+00  0.000E+00  3.94951E+01  1.201E-01  2.000E+01  2.000E+04 -9.895E-02
   1   10   26     2     5    5.4056E+04 -1.1772E+03   5.5233E+04  0.000E+00  0.000E+00  0.000E+00  3.92472E+01  1.222E-01  2.000E+01  2.000E+04 -5.886E-02
   1   11   25     2     6    5.5233E+04 -9.6292E+02   5.6196E+04  0.000E+00  0.000E+00  0.000E+00  3.89986E+01  1.236E-01  2.000E+01  2.000E+04 -4.815E-02
   1   12   24     2     7    5.6196E+04 -1.0169E+03   5.7213E+04  0.000E+00  0.000E+00  0.000E+00  3.87500E+01  1.250E-01  2.000E+01  2.000E+04 -5.084E-02
   1   13   23     2     8    5.7213E+04 -1.3098E+02   5.7344E+04  0.000E+00  0.000E+00  0.000E+00  3.85007E+01  1.257E-01  2.000E+01  2.000E+04 -6.549E-03
   1   14   22     2     9    5.7344E+04  2.4159E+03   5.4928E+04  0.000E+00  0.000E+00  0.000E+00  3.82492E+01  1.242E-01  2.000E+01  2.000E+04  1.208E-01
   1   14   22     3     1    1.6107E+05 -8.2129E+03   1.6928E+05  0.000E+00  0.000E+00  0.000E+00  3.77178E+01  1.622E-01  2.000E+01  2.000E+04 -4.106E-01
   1   15   23     3     2    1.6928E+05 -9.9077E+01   1.6938E+05  0.000E+00  0.000E+00  0.000E+00  3.68313E+01  1.646E-01  2.000E+01  2.000E+04 -4.954E-03
   1   15   24     3     3    1.6938E+05 -1.3051E+02   1.6951E+05  0.000E+00  0.000E+00  0.000E+00  3.59425E+01  1.647E-01  2.000E+01  2.000E+04 -6.525E-03
   1   15   25     3     4    1.6951E+05 -1.5875E+02   1.6967E+05  0.000E+00  0.000E+00  0.000E+00  3.50537E+01  1.648E-01  2.000E+01  2.000E+04 -7.937E-03
   1   15   26     3     5    1.6967E+05 -2.3051E+02   1.6990E+05  0.000E+00  0.000E+00  0.000E+00  3.41649E+01  1.649E-01  2.000E+01  2.000E+04 -1.153E-02
   1   16   27     3     6    1.6990E+05 -2.3318E+02   1.7013E+05  0.000E+00  0.000E+00  0.000E+00  3.32762E+01  1.650E-01  2.000E+01  2.000E+04 -1.166E-02
   1   17   28     3     7    1.7013E+05 -1.1606E+03   1.7129E+05  0.000E+00  0.000E+00  0.000E+00  3.23877E+01  1.654E-01  2.000E+01  2.000E+04 -5.803E-02
   1   18   29     3     8    1.7129E+05 -2.3049E+03   1.7360E+05  0.000E+00  0.000E+00  0.000E+00  3.14998E+01  1.665E-01  2.000E+01  2.000E+04 -1.152E-01
   1   18   30     3     9    1.7360E+05 -2.7790E+03   1.7638E+05  0.000E+00  0.000E+00  0.000E+00  3.06124E+01  1.679E-01  2.000E+01  2.000E+04 -1.390E-01



1
              HEAD IN LAYER   1 AT END OF TIME STEP   1 IN STRESS PERIOD    7
  ---------------------------------------------------------------------------

          1      2      3      4      5      6      7      8      9     10
         11     12     13     14     15     16     17     18     19     20
         21     22     23     24     25     26     27     28     29     30
 .........................................................................
   1  ****** ****** ****** ****** ****** ****** ****** ****** ****** ******
      ****** ****** ****** ****** ****** ****** ****** ****** ****** ******
      ****** ****** ****** ****** ****** ****** ****** ****** ****** ******
   2  ****** ****** ****** ****** ****** ****** ****** ****** ****** ******
      ****** ****** ****** ****** ****** ****** ****** ****** ****** ******
      ****** ****** ****** ****** ****** ****** ****** ****** ****** ******
   3  ****** ****** ****** ****** ****** ****** ****** ****** ****** ******
      ****** ****** ****** ****** ****** ****** ****** ****** ****** ******
      ****** ****** ****** ****** ****** ****** ****** ****** ****** ******
   4  ****** ****** ****** ****** ****** ****** ****** ****** ****** ******
      ****** ****** ****** ****** ****** ****** ****** ****** ****** ******
      ****** ****** ****** ****** ****** ****** ****** ****** ****** ******
   5  ****** ****** ****** ****** ****** ****** ****** ****** ****** ******
      ****** ****** ****** ****** ****** ****** ****** ****** ****** ******
      ****** ****** ****** ****** ****** ****** ****** ****** ****** ******
   6  ****** ****** ****** ****** ****** ****** ****** ****** ****** ******
      ****** ****** ****** ****** ****** ****** ****** ****** ****** ******
      ****** ****** ****** ****** ****** ****** ****** ****** ****** ******
   7  ****** ****** ****** ****** ****** ****** ****** ****** ****** ******
      ****** ****** ****** ****** ****** ****** ****** ****** ****** ******
      ****** ****** ****** ****** ****** ****** ****** ****** ****** ******
   8  ****** ****** ****** ****** ****** ****** ****** ****** ****** ******
      ****** ****** ****** ****** ****** ****** ****** ****** ****** ******
      ****** ****** ****** ****** ****** ****** ****** ****** ****** ******
   9  ****** ****** ****** ****** ****** ****** ****** ****** ****** ******
      ****** ****** ****** ****** ****** ****** ****** ****** ****** ******
      ****** ****** ****** ****** ****** ****** ****** ****** ****** ******
  10  ****** ****** ****** ****** ****** ****** ****** ****** ****** ******
      ****** ****** ****** ****** ****** ****** ****** ****** ****** ******
      ****** ****** ****** ****** ****** ****** ****** ****** ****** ******
  11  ****** ****** ****** ****** ****** ****** ****** ****** ****** ******
      ****** ****** ****** ****** ****** ****** ****** ****** ****** ******
      ****** ****** ****** ****** ****** ****** ****** ****** ****** ******
  12  ****** ****** ****** ****** ****** ****** ****** ****** ****** ******
      ****** ****** ****** ****** ****** ****** ****** ****** ****** ******
      ****** ****** ****** ****** ****** ****** ****** ****** ****** ******
  13  ****** ****** ****** ****** ****** ****** ****** ****** ****** ******
      ****** ****** ****** ****** ****** ****** ****** ****** ****** ******
      ****** ****** ****** ****** ****** ****** ****** ****** ****** ******
  14  ****** ****** ****** ****** ****** ****** ****** ****** ****** ******
      ****** ****** ****** ****** ****** ****** ****** ****** ****** ******
      ****** ****** ****** ****** ****** ****** ****** ****** ****** ******
  15  ****** ****** ****** ****** ****** ****** ****** ****** ****** ******
      ****** ****** ****** ****** ****** ****** ****** ****** ****** ******
      ****** ****** ****** ****** ****** ****** ****** ****** ****** ******
  16  ****** ****** ****** ****** ****** ****** ****** ****** ****** ******
      ****** ****** ****** ****** ****** ****** ****** ****** ****** ******
      ****** ****** ****** ****** ****** ****** ****** ****** ****** ******
  17  ****** ****** ****** ****** ****** ****** ****** ****** ****** ******
      ****** ****** ****** ****** ****** ****** ****** ****** ****** ******
      ****** ****** ****** ****** ****** ****** ****** ****** ****** ******
  18  ****** ****** ****** ****** ****** ****** ****** ****** ****** ******
      ****** ****** ****** ****** ****** ****** ****** ****** ****** ******
      ****** ****** ****** ****** ****** ****** ****** ****** ****** ******
  19  ****** ****** ****** ****** ****** ****** ****** ****** ****** ******
      ****** ****** ****** ****** ****** ****** ****** ****** ****** ******
      ****** ****** ****** ****** ****** ****** ****** ****** ****** ******
  20  ****** ****** ****** ****** ****** ****** ****** ****** ****** ******
      ****** ****** ****** ****** ****** ****** ****** ****** ****** ******
      ****** ****** ****** ****** ****** ****** ****** ****** ****** ******
  21  ****** ****** ****** ****** ****** ****** ****** ****** ****** ******
      ****** ****** ****** ****** ****** ****** ****** ****** ****** ******
      ****** ****** ****** ****** ****** ****** ****** ****** ****** ******
  22  ****** ****** ****** ****** ****** ****** ****** ****** ****** ******
      ****** ****** ****** ****** ****** ****** ****** ****** ****** ******
      ****** ****** ****** ****** ****** ****** ****** ****** ****** ******
  23  ****** ****** ****** ****** ****** ****** ****** ****** ****** ******
      ****** ****** ****** ****** ****** ****** ****** ****** ****** ******
      ****** ****** ****** ****** ****** ****** ****** ****** ****** ******
  24  ****** ****** ****** ****** ****** ****** ****** ****** ****** ******
      ****** ****** ****** ****** ****** ****** ****** ****** ****** ******
      ****** ****** ****** ****** ****** ****** ****** ****** ****** ******
  25  ****** ****** ****** ****** ****** ****** ****** ****** ****** ******
      ****** ****** ****** ****** ****** ****** ****** ****** ****** ******
      ****** ****** ****** ****** ****** ****** ****** ****** ****** ******

 HEAD WILL BE SAVED ON UNIT   51 AT END OF TIME STEP    1, STRESS PERIOD    7
1
  VOLUMETRIC BUDGET FOR ENTIRE MODEL AT END OF TIME STEP    1, STRESS PERIOD   7
  ------------------------------------------------------------------------------

     CUMULATIVE VOLUMES      L**3       RATES FOR THIS TIME STEP      L**3/T
     ------------------                 ------------------------

           IN:                                      IN:
           ---                                      ---
             STORAGE =    34668253.8772               STORAGE =       23108.9789
       CONSTANT HEAD =    17089794.7676         CONSTANT HEAD =       35252.1274
               WELLS =           0.0000                 WELLS =           0.0000
            RECHARGE =    15097200.0000              RECHARGE =           0.0000
      STREAM LEAKAGE =     4549517.6066        STREAM LEAKAGE =        8822.5387

            TOTAL IN =    71404766.2513              TOTAL IN =       67183.6450

          OUT:                                     OUT:
          ----                                     ----
             STORAGE =      706464.1880               STORAGE =           0.0000
       CONSTANT HEAD =           0.0000         CONSTANT HEAD =           0.0000
               WELLS =    20436657.3313                 WELLS =       31982.2493
            RECHARGE =           0.0000              RECHARGE =           0.0000
      STREAM LEAKAGE =    50261647.3262        STREAM LEAKAGE =       35201.4012

           TOTAL OUT =    71404768.8455             TOTAL OUT =       67183.6506

            IN - OUT =          -2.5942              IN - OUT =      -5.5890E-03

 PERCENT DISCREPANCY =          -0.00     PERCENT DISCREPANCY =          -0.00






         TIME SUMMARY AT END OF TIME STEP    1 IN STRESS PERIOD    7
                    SECONDS     MINUTES      HOURS       DAYS        YEARS
                    -----------------------------------------------------------
   TIME STEP LENGTH 7.86240E+06 1.31040E+05  2184.0      91.000     0.24914    
 STRESS PERIOD TIME 7.86240E+06 1.31040E+05  2184.0      91.000     0.24914    
         TOTAL TIME 5.52096E+07 9.20160E+05  15336.      639.00      1.7495    
1
1
                            STRESS PERIOD NO.    8, LENGTH =   91.00000    
                            -----------------------------------------------

                              NUMBER OF TIME STEPS =     1

                               MULTIPLIER FOR DELT =     1.500

                            INITIAL TIME STEP SIZE =   91.00000    

 WELL NO.  LAYER   ROW   COL   STRESS RATE         
 --------------------------------------------------
      1      1      5     13      -7278.    
      2      1      9     16      -9144.    
      3      1     16     19      -5032.    
      4      1     18     19     -0.1053E+05

      4 WELLS

                 RECHARGE =  1.000000E-03

 REUSING STREAM SEGMENT DATA FROM LAST STRESS PERIOD
 
 SOLVING FOR HEAD 


     6 CALLS TO PCG ROUTINE FOR TIME STEP   1 IN STRESS PERIOD    8
    22 TOTAL ITERATIONS

 OUTPUT CONTROL FOR STRESS PERIOD    8   TIME STEP    1
    SAVE BUDGET
    SAVE HEAD FOR ALL LAYERS
    PRINT HEAD FOR ALL LAYERS
 UBDSV2 SAVING "STREAMFLOW OUT  " ON UNIT  50 AT TIME STEP  1, STRESS PERIOD   8



 STREAM LISTING     PERIOD      8   STEP        1

 LAYER ROW COL. STREAM  RCH.  FLOW INTO     FLOW TO   FLOW OUT OF   OVRLND.     DIRECT     STREAM       STREAM     STREAM     STREAM   STREAMBED  STREAMBED
                SEG.NO.  NO.  STRM. RCH.    AQUIFER    STRM. RCH.    RUNOFF     PRECIP       ET          HEAD       DEPTH      WIDTH   CONDCTNC.   GRADIENT

   1   13    1     1     1    1.0000E+05 -1.5423E+03   1.0154E+05  0.000E+00  0.000E+00  0.000E+00  4.84067E+01  1.453E-01  2.000E+01  2.000E+04 -7.712E-02
   1   13    2     1     2    1.0154E+05 -2.4814E+03   1.0402E+05  0.000E+00  0.000E+00  0.000E+00  4.79311E+01  1.471E-01  2.000E+01  2.000E+04 -1.241E-01
   1   14    3     1     3    1.0402E+05 -4.3853E+02   1.0446E+05  0.000E+00  0.000E+00  0.000E+00  4.74551E+01  1.483E-01  2.000E+01  2.000E+04 -2.193E-02
   1   15    4     1     4    1.0446E+05 -4.1558E+02   1.0488E+05  0.000E+00  0.000E+00  0.000E+00  4.69782E+01  1.487E-01  2.000E+01  2.000E+04 -2.078E-02
   1   16    5     1     5    1.0488E+05 -1.5428E+03   1.0642E+05  0.000E+00  0.000E+00  0.000E+00  4.65018E+01  1.495E-01  2.000E+01  2.000E+04 -7.714E-02
   1   16    6     1     6    1.0642E+05 -9.6470E+02   1.0739E+05  0.000E+00  0.000E+00  0.000E+00  4.60256E+01  1.506E-01  2.000E+01  2.000E+04 -4.824E-02
   1   16    7     1     7    1.0739E+05 -9.2922E+02   1.0831E+05  0.000E+00  0.000E+00  0.000E+00  4.55491E+01  1.514E-01  2.000E+01  2.000E+04 -4.646E-02
   1   16    8     1     8    1.0831E+05 -8.9896E+02   1.0921E+05  0.000E+00  0.000E+00  0.000E+00  4.50726E+01  1.521E-01  2.000E+01  2.000E+04 -4.495E-02
   1   16    9     1     9    1.0921E+05 -8.5390E+02   1.1007E+05  0.000E+00  0.000E+00  0.000E+00  4.45960E+01  1.529E-01  2.000E+01  2.000E+04 -4.270E-02
   1   16   10     1    10    1.1007E+05 -7.8747E+02   1.1085E+05  0.000E+00  0.000E+00  0.000E+00  4.41195E+01  1.536E-01  2.000E+01  2.000E+04 -3.937E-02
   1   16   11     1    11    1.1085E+05 -6.9449E+02   1.1155E+05  0.000E+00  0.000E+00  0.000E+00  4.36428E+01  1.542E-01  2.000E+01  2.000E+04 -3.472E-02
   1   16   12     1    12    1.1155E+05 -7.8179E+02   1.1233E+05  0.000E+00  0.000E+00  0.000E+00  4.31661E+01  1.548E-01  2.000E+01  2.000E+04 -3.909E-02
   1   15   13     1    13    1.1233E+05 -4.0360E+02   1.1273E+05  0.000E+00  0.000E+00  0.000E+00  4.26894E+01  1.553E-01  2.000E+01  2.000E+04 -2.018E-02
   1   14   14     1    14    1.1273E+05 -3.2472E+02   1.1306E+05  0.000E+00  0.000E+00  0.000E+00  4.22124E+01  1.556E-01  2.000E+01  2.000E+04 -1.624E-02
   1   13   15     1    15    1.1306E+05 -2.5820E+02   1.1332E+05  0.000E+00  0.000E+00  0.000E+00  4.17354E+01  1.558E-01  2.000E+01  2.000E+04 -1.291E-02
   1   12   16     1    16    1.1332E+05 -1.6760E+02   1.1349E+05  0.000E+00  0.000E+00  0.000E+00  4.12583E+01  1.560E-01  2.000E+01  2.000E+04 -8.380E-03
   1   12   17     1    17    1.1349E+05 -2.3218E+01   1.1351E+05  0.000E+00  0.000E+00  0.000E+00  4.07811E+01  1.561E-01  2.000E+01  2.000E+04 -1.161E-03
   1   12   18     1    18    1.1351E+05 -1.9329E+02   1.1370E+05  0.000E+00  0.000E+00  0.000E+00  4.03039E+01  1.562E-01  2.000E+01  2.000E+04 -9.665E-03
   1   12   19     1    19    1.1370E+05 -8.4058E+02   1.1454E+05  0.000E+00  0.000E+00  0.000E+00  3.98270E+01  1.566E-01  2.000E+01  2.000E+04 -4.203E-02
   1   13   20     1    20    1.1454E+05 -6.6199E+01   1.1461E+05  0.000E+00  0.000E+00  0.000E+00  3.93501E+01  1.570E-01  2.000E+01  2.000E+04 -3.310E-03
   1   14   21     1    21    1.1461E+05  8.1972E+02   1.1379E+05  0.000E+00  0.000E+00  0.000E+00  3.88726E+01  1.566E-01  2.000E+01  2.000E+04  4.099E-02
   1   14   22     1    22    1.1379E+05  5.2008E+03   1.0859E+05  0.000E+00  0.000E+00  0.000E+00  3.83928E+01  1.542E-01  2.000E+01  2.000E+04  2.600E-01
   1    9   30     2     1    5.0000E+04 -5.8503E+02   5.0585E+04  0.000E+00  0.000E+00  0.000E+00  4.02413E+01  1.163E-01  2.000E+01  2.000E+04 -2.925E-02
   1    9   29     2     2    5.0585E+04 -8.7149E+02   5.1457E+04  0.000E+00  0.000E+00  0.000E+00  3.99923E+01  1.173E-01  2.000E+01  2.000E+04 -4.357E-02
   1    9   28     2     3    5.1457E+04 -1.0930E+03   5.2550E+04  0.000E+00  0.000E+00  0.000E+00  3.97436E+01  1.186E-01  2.000E+01  2.000E+04 -5.465E-02
   1    9   27     2     4    5.2550E+04 -2.1521E+03   5.4702E+04  0.000E+00  0.000E+00  0.000E+00  3.94958E+01  1.208E-01  2.000E+01  2.000E+04 -1.076E-01
   1   10   26     2     5    5.4702E+04 -1.3781E+03   5.6080E+04  0.000E+00  0.000E+00  0.000E+00  3.92482E+01  1.232E-01  2.000E+01  2.000E+04 -6.890E-02
   1   11   25     2     6    5.6080E+04 -1.1625E+03   5.7242E+04  0.000E+00  0.000E+00  0.000E+00  3.89999E+01  1.249E-01  2.000E+01  2.000E+04 -5.812E-02
   1   12   24     2     7    5.7242E+04 -1.1976E+03   5.8440E+04  0.000E+00  0.000E+00  0.000E+00  3.87514E+01  1.264E-01  2.000E+01  2.000E+04 -5.988E-02
   1   13   23     2     8    5.8440E+04 -2.0459E+02   5.8644E+04  0.000E+00  0.000E+00  0.000E+00  3.85024E+01  1.274E-01  2.000E+01  2.000E+04 -1.023E-02
   1   14   22     2     9    5.8644E+04  2.3640E+03   5.6280E+04  0.000E+00  0.000E+00  0.000E+00  3.82510E+01  1.260E-01  2.000E+01  2.000E+04  1.182E-01
   1   14   22     3     1    1.6487E+05 -8.2550E+03   1.7312E+05  0.000E+00  0.000E+00  0.000E+00  3.77200E+01  1.644E-01  2.000E+01  2.000E+04 -4.128E-01
   1   15   23     3     2    1.7312E+05 -1.6234E+02   1.7329E+05  0.000E+00  0.000E+00  0.000E+00  3.68336E+01  1.669E-01  2.000E+01  2.000E+04 -8.117E-03
   1   15   24     3     3    1.7329E+05 -1.9047E+02   1.7348E+05  0.000E+00  0.000E+00  0.000E+00  3.59448E+01  1.670E-01  2.000E+01  2.000E+04 -9.523E-03
   1   15   25     3     4    1.7348E+05 -2.2050E+02   1.7370E+05  0.000E+00  0.000E+00  0.000E+00  3.50560E+01  1.671E-01  2.000E+01  2.000E+04 -1.102E-02
   1   15   26     3     5    1.7370E+05 -3.0485E+02   1.7400E+05  0.000E+00  0.000E+00  0.000E+00  3.41673E+01  1.673E-01  2.000E+01  2.000E+04 -1.524E-02
   1   16   27     3     6    1.7400E+05 -3.1443E+02   1.7432E+05  0.000E+00  0.000E+00  0.000E+00  3.32786E+01  1.674E-01  2.000E+01  2.000E+04 -1.572E-02
   1   17   28     3     7    1.7432E+05 -1.3624E+03   1.7568E+05  0.000E+00  0.000E+00  0.000E+00  3.23901E+01  1.679E-01  2.000E+01  2.000E+04 -6.812E-02
   1   18   29     3     8    1.7568E+05 -2.4663E+03   1.7814E+05  0.000E+00  0.000E+00  0.000E+00  3.15024E+01  1.690E-01  2.000E+01  2.000E+04 -1.233E-01
   1   18   30     3     9    1.7814E+05 -2.9232E+03   1.8107E+05  0.000E+00  0.000E+00  0.000E+00  3.06150E+01  1.706E-01  2.000E+01  2.000E+04 -1.462E-01



1
              HEAD IN LAYER   1 AT END OF TIME STEP   1 IN STRESS PERIOD    8
  ---------------------------------------------------------------------------

          1      2      3      4      5      6      7      8      9     10
         11     12     13     14     15     16     17     18     19     20
         21     22     23     24     25     26     27     28     29     30
 .........................................................................
   1  ****** ****** ****** ****** ****** ****** ****** ****** ****** ******
      ****** ****** ****** ****** ****** ****** ****** ****** ****** ******
      ****** ****** ****** ****** ****** ****** ****** ****** ****** ******
   2  ****** ****** ****** ****** ****** ****** ****** ****** ****** ******
      ****** ****** ****** ****** ****** ****** ****** ****** ****** ******
      ****** ****** ****** ****** ****** ****** ****** ****** ****** ******
   3  ****** ****** ****** ****** ****** ****** ****** ****** ****** ******
      ****** ****** ****** ****** ****** ****** ****** ****** ****** ******
      ****** ****** ****** ****** ****** ****** ****** ****** ****** ******
   4  ****** ****** ****** ****** ****** ****** ****** ****** ****** ******
      ****** ****** ****** ****** ****** ****** ****** ****** ****** ******
      ****** ****** ****** ****** ****** ****** ****** ****** ****** ******
   5  ****** ****** ****** ****** ****** ****** ****** ****** ****** ******
      ****** ****** ****** ****** ****** ****** ****** ****** ****** ******
      ****** ****** ****** ****** ****** ****** ****** ****** ****** ******
   6  ****** ****** ****** ****** ****** ****** ****** ****** ****** ******
      ****** ****** ****** ****** ****** ****** ****** ****** ****** ******
      ****** ****** ****** ****** ****** ****** ****** ****** ****** ******
   7  ****** ****** ****** ****** ****** ****** ****** ****** ****** ******
      ****** ****** ****** ****** ****** ****** ****** ****** ****** ******
      ****** ****** ****** ****** ****** ****** ****** ****** ****** ******
   8  ****** ****** ****** ****** ****** ****** ****** ****** ****** ******
      ****** ****** ****** ****** ****** ****** ****** ****** ****** ******
      ****** ****** ****** ****** ****** ****** ****** ****** ****** ******
   9  ****** ****** ****** ****** ****** ****** ****** ****** ****** ******
      ****** ****** ****** ****** ****** ****** ****** ****** ****** ******
      ****** ****** ****** ****** ****** ****** ****** ****** ****** ******
  10  ****** ****** ****** ****** ****** ****** ****** ****** ****** ******
      ****** ****** ****** ****** ****** ****** ****** ****** ****** ******
      ****** ****** ****** ****** ****** ****** ****** ****** ****** ******
  11  ****** ****** ****** ****** ****** ****** ****** ****** ****** ******
      ****** ****** ****** ****** ****** ****** ****** ****** ****** ******
      ****** ****** ****** ****** ****** ****** ****** ****** ****** ******
  12  ****** ****** ****** ****** ****** ****** ****** ****** ****** ******
      ****** ****** ****** ****** ****** ****** ****** ****** ****** ******
      ****** ****** ****** ****** ****** ****** ****** ****** ****** ******
  13  ****** ****** ****** ****** ****** ****** ****** ****** ****** ******
      ****** ****** ****** ****** ****** ****** ****** ****** ****** ******
      ****** ****** ****** ****** ****** ****** ****** ****** ****** ******
  14  ****** ****** ****** ****** ****** ****** ****** ****** ****** ******
      ****** ****** ****** ****** ****** ****** ****** ****** ****** ******
      ****** ****** ****** ****** ****** ****** ****** ****** ****** ******
  15  ****** ****** ****** ****** ****** ****** ****** ****** ****** ******
      ****** ****** ****** ****** ****** ****** ****** ****** ****** ******
      ****** ****** ****** ****** ****** ****** ****** ****** ****** ******
  16  ****** ****** ****** ****** ****** ****** ****** ****** ****** ******
      ****** ****** ****** ****** ****** ****** ****** ****** ****** ******
      ****** ****** ****** ****** ****** ****** ****** ****** ****** ******
  17  ****** ****** ****** ****** ****** ****** ****** ****** ****** ******
      ****** ****** ****** ****** ****** ****** ****** ****** ****** ******
      ****** ****** ****** ****** ****** ****** ****** ****** ****** ******
  18  ****** ****** ****** ****** ****** ****** ****** ****** ****** ******
      ****** ****** ****** ****** ****** ****** ****** ****** ****** ******
      ****** ****** ****** ****** ****** ****** ****** ****** ****** ******
  19  ****** ****** ****** ****** ****** ****** ****** ****** ****** ******
      ****** ****** ****** ****** ****** ****** ****** ****** ****** ******
      ****** ****** ****** ****** ****** ****** ****** ****** ****** ******
  20  ****** ****** ****** ****** ****** ****** ****** ****** ****** ******
      ****** ****** ****** ****** ****** ****** ****** ****** ****** ******
      ****** ****** ****** ****** ****** ****** ****** ****** ****** ******
  21  ****** ****** ****** ****** ****** ****** ****** ****** ****** ******
      ****** ****** ****** ****** ****** ****** ****** ****** ****** ******
      ****** ****** ****** ****** ****** ****** ****** ****** ****** ******
  22  ****** ****** ****** ****** ****** ****** ****** ****** ****** ******
      ****** ****** ****** ****** ****** ****** ****** ****** ****** ******
      ****** ****** ****** ****** ****** ****** ****** ****** ****** ******
  23  ****** ****** ****** ****** ****** ****** ****** ****** ****** ******
      ****** ****** ****** ****** ****** ****** ****** ****** ****** ******
      ****** ****** ****** ****** ****** ****** ****** ****** ****** ******
  24  ****** ****** ****** ****** ****** ****** ****** ****** ****** ******
      ****** ****** ****** ****** ****** ****** ****** ****** ****** ******
      ****** ****** ****** ****** ****** ****** ****** ****** ****** ******
  25  ****** ****** ****** ****** ****** ****** ****** ****** ****** ******
      ****** ****** ****** ****** ****** ****** ****** ****** ****** ******
      ****** ****** ****** ****** ****** ****** ****** ****** ****** ******

 HEAD WILL BE SAVED ON UNIT   51 AT END OF TIME STEP    1, STRESS PERIOD    8
1
  VOLUMETRIC BUDGET FOR ENTIRE MODEL AT END OF TIME STEP    1, STRESS PERIOD   8
  ------------------------------------------------------------------------------

     CUMULATIVE VOLUMES      L**3       RATES FOR THIS TIME STEP      L**3/T
     ------------------                 ------------------------

           IN:                                      IN:
           ---                                      ---
             STORAGE =    34839722.9966               STORAGE =        1884.2760
       CONSTANT HEAD =    20276705.0485         CONSTANT HEAD =       35020.9921
               WELLS =           0.0000                 WELLS =           0.0000
            RECHARGE =    17608800.0000              RECHARGE =       27600.0000
      STREAM LEAKAGE =     5312502.6006        STREAM LEAKAGE =        8384.4505

            TOTAL IN =    78037730.6458              TOTAL IN =       72889.7186

          OUT:                                     OUT:
          ----                                     ----
             STORAGE =      838869.7951               STORAGE =        1455.0067
       CONSTANT HEAD =           0.0000         CONSTANT HEAD =           0.0000
               WELLS =    23347042.0217                 WELLS =       31982.2493
            RECHARGE =           0.0000              RECHARGE =           0.0000
      STREAM LEAKAGE =    53851820.7213        STREAM LEAKAGE =       39452.4549

           TOTAL OUT =    78037732.5381             TOTAL OUT =       72889.7109

            IN - OUT =          -1.8923              IN - OUT =       7.7133E-03

 PERCENT DISCREPANCY =          -0.00     PERCENT DISCREPANCY =           0.00






         TIME SUMMARY AT END OF TIME STEP    1 IN STRESS PERIOD    8
                    SECONDS     MINUTES      HOURS       DAYS        YEARS
                    -----------------------------------------------------------
   TIME STEP LENGTH 7.86240E+06 1.31040E+05  2184.0      91.000     0.24914    
 STRESS PERIOD TIME 7.86240E+06 1.31040E+05  2184.0      91.000     0.24914    
         TOTAL TIME 6.30720E+07 1.05120E+06  17520.      730.00      1.9986    
1
1
                            STRESS PERIOD NO.    9, LENGTH =   92.00000    
                            -----------------------------------------------

                              NUMBER OF TIME STEPS =     1

                               MULTIPLIER FOR DELT =     1.500

                            INITIAL TIME STEP SIZE =   92.00000    

 WELL NO.  LAYER   ROW   COL   STRESS RATE         
 --------------------------------------------------
      1      1      5     13      -7278.    
      2      1      9     16      -9144.    
      3      1     16     19      -5032.    
      4      1     18     19     -0.1053E+05

      4 WELLS

                 RECHARGE =  5.000000E-04

 REUSING STREAM SEGMENT DATA FROM LAST STRESS PERIOD
 
 SOLVING FOR HEAD 


     6 CALLS TO PCG ROUTINE FOR TIME STEP   1 IN STRESS PERIOD    9
    23 TOTAL ITERATIONS

 OUTPUT CONTROL FOR STRESS PERIOD    9   TIME STEP    1
    SAVE BUDGET
    SAVE HEAD FOR ALL LAYERS
    PRINT HEAD FOR ALL LAYERS
 UBDSV2 SAVING "STREAMFLOW OUT  " ON UNIT  50 AT TIME STEP  1, STRESS PERIOD   9



 STREAM LISTING     PERIOD      9   STEP        1

 LAYER ROW COL. STREAM  RCH.  FLOW INTO     FLOW TO   FLOW OUT OF   OVRLND.     DIRECT     STREAM       STREAM     STREAM     STREAM   STREAMBED  STREAMBED
                SEG.NO.  NO.  STRM. RCH.    AQUIFER    STRM. RCH.    RUNOFF     PRECIP       ET          HEAD       DEPTH      WIDTH   CONDCTNC.   GRADIENT

   1   13    1     1     1    1.0000E+05 -1.3170E+03   1.0132E+05  0.000E+00  0.000E+00  0.000E+00  4.84066E+01  1.452E-01  2.000E+01  2.000E+04 -6.585E-02
   1   13    2     1     2    1.0132E+05 -2.2259E+03   1.0354E+05  0.000E+00  0.000E+00  0.000E+00  4.79308E+01  1.468E-01  2.000E+01  2.000E+04 -1.113E-01
   1   14    3     1     3    1.0354E+05 -3.6580E+02   1.0391E+05  0.000E+00  0.000E+00  0.000E+00  4.74547E+01  1.479E-01  2.000E+01  2.000E+04 -1.829E-02
   1   15    4     1     4    1.0391E+05 -3.4218E+02   1.0425E+05  0.000E+00  0.000E+00  0.000E+00  4.69777E+01  1.482E-01  2.000E+01  2.000E+04 -1.711E-02
   1   16    5     1     5    1.0425E+05 -1.3486E+03   1.0560E+05  0.000E+00  0.000E+00  0.000E+00  4.65012E+01  1.489E-01  2.000E+01  2.000E+04 -6.743E-02
   1   16    6     1     6    1.0560E+05 -8.4300E+02   1.0644E+05  0.000E+00  0.000E+00  0.000E+00  4.60248E+01  1.498E-01  2.000E+01  2.000E+04 -4.215E-02
   1   16    7     1     7    1.0644E+05 -8.1108E+02   1.0725E+05  0.000E+00  0.000E+00  0.000E+00  4.55482E+01  1.505E-01  2.000E+01  2.000E+04 -4.055E-02
   1   16    8     1     8    1.0725E+05 -7.8234E+02   1.0804E+05  0.000E+00  0.000E+00  0.000E+00  4.50716E+01  1.512E-01  2.000E+01  2.000E+04 -3.912E-02
   1   16    9     1     9    1.0804E+05 -7.3899E+02   1.0877E+05  0.000E+00  0.000E+00  0.000E+00  4.45950E+01  1.518E-01  2.000E+01  2.000E+04 -3.695E-02
   1   16   10     1    10    1.0877E+05 -6.7479E+02   1.0945E+05  0.000E+00  0.000E+00  0.000E+00  4.41183E+01  1.524E-01  2.000E+01  2.000E+04 -3.374E-02
   1   16   11     1    11    1.0945E+05 -5.8306E+02   1.1003E+05  0.000E+00  0.000E+00  0.000E+00  4.36416E+01  1.529E-01  2.000E+01  2.000E+04 -2.915E-02
   1   16   12     1    12    1.1003E+05 -5.9036E+02   1.1062E+05  0.000E+00  0.000E+00  0.000E+00  4.31648E+01  1.534E-01  2.000E+01  2.000E+04 -2.952E-02
   1   15   13     1    13    1.1062E+05 -1.8878E+02   1.1081E+05  0.000E+00  0.000E+00  0.000E+00  4.26879E+01  1.538E-01  2.000E+01  2.000E+04 -9.439E-03
   1   14   14     1    14    1.1081E+05 -9.4926E+01   1.1091E+05  0.000E+00  0.000E+00  0.000E+00  4.22107E+01  1.539E-01  2.000E+01  2.000E+04 -4.746E-03
   1   13   15     1    15    1.1091E+05 -2.1366E+01   1.1093E+05  0.000E+00  0.000E+00  0.000E+00  4.17335E+01  1.539E-01  2.000E+01  2.000E+04 -1.068E-03
   1   12   16     1    16    1.1093E+05  7.9561E+01   1.1085E+05  0.000E+00  0.000E+00  0.000E+00  4.12562E+01  1.539E-01  2.000E+01  2.000E+04  3.978E-03
   1   12   17     1    17    1.1085E+05  1.4484E+02   1.1070E+05  0.000E+00  0.000E+00  0.000E+00  4.07788E+01  1.538E-01  2.000E+01  2.000E+04  7.242E-03
   1   12   18     1    18    1.1070E+05 -3.3556E+01   1.1074E+05  0.000E+00  0.000E+00  0.000E+00  4.03015E+01  1.538E-01  2.000E+01  2.000E+04 -1.678E-03
   1   12   19     1    19    1.1074E+05 -6.4858E+02   1.1139E+05  0.000E+00  0.000E+00  0.000E+00  3.98245E+01  1.541E-01  2.000E+01  2.000E+04 -3.243E-02
   1   13   20     1    20    1.1139E+05  1.1017E+02   1.1128E+05  0.000E+00  0.000E+00  0.000E+00  3.93475E+01  1.543E-01  2.000E+01  2.000E+04  5.509E-03
   1   14   21     1    21    1.1128E+05  9.9360E+02   1.1028E+05  0.000E+00  0.000E+00  0.000E+00  3.88697E+01  1.538E-01  2.000E+01  2.000E+04  4.968E-02
   1   14   22     1    22    1.1028E+05  5.2381E+03   1.0504E+05  0.000E+00  0.000E+00  0.000E+00  3.83898E+01  1.512E-01  2.000E+01  2.000E+04  2.619E-01
   1    9   30     2     1    5.0000E+04 -4.6072E+02   5.0461E+04  0.000E+00  0.000E+00  0.000E+00  4.02412E+01  1.162E-01  2.000E+01  2.000E+04 -2.304E-02
   1    9   29     2     2    5.0461E+04 -7.4686E+02   5.1208E+04  0.000E+00  0.000E+00  0.000E+00  3.99920E+01  1.170E-01  2.000E+01  2.000E+04 -3.734E-02
   1    9   28     2     3    5.1208E+04 -9.6622E+02   5.2174E+04  0.000E+00  0.000E+00  0.000E+00  3.97432E+01  1.182E-01  2.000E+01  2.000E+04 -4.831E-02
   1    9   27     2     4    5.2174E+04 -1.9727E+03   5.4146E+04  0.000E+00  0.000E+00  0.000E+00  3.94952E+01  1.202E-01  2.000E+01  2.000E+04 -9.863E-02
   1   10   26     2     5    5.4146E+04 -1.2019E+03   5.5348E+04  0.000E+00  0.000E+00  0.000E+00  3.92473E+01  1.223E-01  2.000E+01  2.000E+04 -6.010E-02
   1   11   25     2     6    5.5348E+04 -9.9392E+02   5.6342E+04  0.000E+00  0.000E+00  0.000E+00  3.89988E+01  1.238E-01  2.000E+01  2.000E+04 -4.970E-02
   1   12   24     2     7    5.6342E+04 -1.0424E+03   5.7385E+04  0.000E+00  0.000E+00  0.000E+00  3.87502E+01  1.252E-01  2.000E+01  2.000E+04 -5.212E-02
   1   13   23     2     8    5.7385E+04 -1.5709E+02   5.7542E+04  0.000E+00  0.000E+00  0.000E+00  3.85010E+01  1.260E-01  2.000E+01  2.000E+04 -7.855E-03
   1   14   22     2     9    5.7542E+04  2.4303E+03   5.5112E+04  0.000E+00  0.000E+00  0.000E+00  3.82495E+01  1.245E-01  2.000E+01  2.000E+04  1.215E-01
   1   14   22     3     1    1.6016E+05 -8.2143E+03   1.6837E+05  0.000E+00  0.000E+00  0.000E+00  3.77172E+01  1.617E-01  2.000E+01  2.000E+04 -4.107E-01
   1   15   23     3     2    1.6837E+05 -1.0933E+02   1.6848E+05  0.000E+00  0.000E+00  0.000E+00  3.68308E+01  1.641E-01  2.000E+01  2.000E+04 -5.467E-03
   1   15   24     3     3    1.6848E+05 -1.4721E+02   1.6863E+05  0.000E+00  0.000E+00  0.000E+00  3.59420E+01  1.642E-01  2.000E+01  2.000E+04 -7.360E-03
   1   15   25     3     4    1.6863E+05 -1.7701E+02   1.6880E+05  0.000E+00  0.000E+00  0.000E+00  3.50532E+01  1.643E-01  2.000E+01  2.000E+04 -8.850E-03
   1   15   26     3     5    1.6880E+05 -2.5711E+02   1.6906E+05  0.000E+00  0.000E+00  0.000E+00  3.41644E+01  1.644E-01  2.000E+01  2.000E+04 -1.286E-02
   1   16   27     3     6    1.6906E+05 -2.5817E+02   1.6932E+05  0.000E+00  0.000E+00  0.000E+00  3.32757E+01  1.646E-01  2.000E+01  2.000E+04 -1.291E-02
   1   17   28     3     7    1.6932E+05 -1.2080E+03   1.7053E+05  0.000E+00  0.000E+00  0.000E+00  3.23872E+01  1.650E-01  2.000E+01  2.000E+04 -6.040E-02
   1   18   29     3     8    1.7053E+05 -2.2884E+03   1.7282E+05  0.000E+00  0.000E+00  0.000E+00  3.14993E+01  1.660E-01  2.000E+01  2.000E+04 -1.144E-01
   1   18   30     3     9    1.7282E+05 -2.7898E+03   1.7561E+05  0.000E+00  0.000E+00  0.000E+00  3.06119E+01  1.675E-01  2.000E+01  2.000E+04 -1.395E-01



1
              HEAD IN LAYER   1 AT END OF TIME STEP   1 IN STRESS PERIOD    9
  ---------------------------------------------------------------------------

          1      2      3      4      5      6      7      8      9     10
         11     12     13     14     15     16     17     18     19     20
         21     22     23     24     25     26     27     28     29     30
 .........................................................................
   1  ****** ****** ****** ****** ****** ****** ****** ****** ****** ******
      ****** ****** ****** ****** ****** ****** ****** ****** ****** ******
      ****** ****** ****** ****** ****** ****** ****** ****** ****** ******
   2  ****** ****** ****** ****** ****** ****** ****** ****** ****** ******
      ****** ****** ****** ****** ****** ****** ****** ****** ****** ******
      ****** ****** ****** ****** ****** ****** ****** ****** ****** ******
   3  ****** ****** ****** ****** ****** ****** ****** ****** ****** ******
      ****** ****** ****** ****** ****** ****** ****** ****** ****** ******
      ****** ****** ****** ****** ****** ****** ****** ****** ****** ******
   4  ****** ****** ****** ****** ****** ****** ****** ****** ****** ******
      ****** ****** ****** ****** ****** ****** ****** ****** ****** ******
      ****** ****** ****** ****** ****** ****** ****** ****** ****** ******
   5  ****** ****** ****** ****** ****** ****** ****** ****** ****** ******
      ****** ****** ****** ****** ****** ****** ****** ****** ****** ******
      ****** ****** ****** ****** ****** ****** ****** ****** ****** ******
   6  ****** ****** ****** ****** ****** ****** ****** ****** ****** ******
      ****** ****** ****** ****** ****** ****** ****** ****** ****** ******
      ****** ****** ****** ****** ****** ****** ****** ****** ****** ******
   7  ****** ****** ****** ****** ****** ****** ****** ****** ****** ******
      ****** ****** ****** ****** ****** ****** ****** ****** ****** ******
      ****** ****** ****** ****** ****** ****** ****** ****** ****** ******
   8  ****** ****** ****** ****** ****** ****** ****** ****** ****** ******
      ****** ****** ****** ****** ****** ****** ****** ****** ****** ******
      ****** ****** ****** ****** ****** ****** ****** ****** ****** ******
   9  ****** ****** ****** ****** ****** ****** ****** ****** ****** ******
      ****** ****** ****** ****** ****** ****** ****** ****** ****** ******
      ****** ****** ****** ****** ****** ****** ****** ****** ****** ******
  10  ****** ****** ****** ****** ****** ****** ****** ****** ****** ******
      ****** ****** ****** ****** ****** ****** ****** ****** ****** ******
      ****** ****** ****** ****** ****** ****** ****** ****** ****** ******
  11  ****** ****** ****** ****** ****** ****** ****** ****** ****** ******
      ****** ****** ****** ****** ****** ****** ****** ****** ****** ******
      ****** ****** ****** ****** ****** ****** ****** ****** ****** ******
  12  ****** ****** ****** ****** ****** ****** ****** ****** ****** ******
      ****** ****** ****** ****** ****** ****** ****** ****** ****** ******
      ****** ****** ****** ****** ****** ****** ****** ****** ****** ******
  13  ****** ****** ****** ****** ****** ****** ****** ****** ****** ******
      ****** ****** ****** ****** ****** ****** ****** ****** ****** ******
      ****** ****** ****** ****** ****** ****** ****** ****** ****** ******
  14  ****** ****** ****** ****** ****** ****** ****** ****** ****** ******
      ****** ****** ****** ****** ****** ****** ****** ****** ****** ******
      ****** ****** ****** ****** ****** ****** ****** ****** ****** ******
  15  ****** ****** ****** ****** ****** ****** ****** ****** ****** ******
      ****** ****** ****** ****** ****** ****** ****** ****** ****** ******
      ****** ****** ****** ****** ****** ****** ****** ****** ****** ******
  16  ****** ****** ****** ****** ****** ****** ****** ****** ****** ******
      ****** ****** ****** ****** ****** ****** ****** ****** ****** ******
      ****** ****** ****** ****** ****** ****** ****** ****** ****** ******
  17  ****** ****** ****** ****** ****** ****** ****** ****** ****** ******
      ****** ****** ****** ****** ****** ****** ****** ****** ****** ******
      ****** ****** ****** ****** ****** ****** ****** ****** ****** ******
  18  ****** ****** ****** ****** ****** ****** ****** ****** ****** ******
      ****** ****** ****** ****** ****** ****** ****** ****** ****** ******
      ****** ****** ****** ****** ****** ****** ****** ****** ****** ******
  19  ****** ****** ****** ****** ****** ****** ****** ****** ****** ******
      ****** ****** ****** ****** ****** ****** ****** ****** ****** ******
      ****** ****** ****** ****** ****** ****** ****** ****** ****** ******
  20  ****** ****** ****** ****** ****** ****** ****** ****** ****** ******
      ****** ****** ****** ****** ****** ****** ****** ****** ****** ******
      ****** ****** ****** ****** ****** ****** ****** ****** ****** ******
  21  ****** ****** ****** ****** ****** ****** ****** ****** ****** ******
      ****** ****** ****** ****** ****** ****** ****** ****** ****** ******
      ****** ****** ****** ****** ****** ****** ****** ****** ****** ******
  22  ****** ****** ****** ****** ****** ****** ****** ****** ****** ******
      ****** ****** ****** ****** ****** ****** ****** ****** ****** ******
      ****** ****** ****** ****** ****** ****** ****** ****** ****** ******
  23  ****** ****** ****** ****** ****** ****** ****** ****** ****** ******
      ****** ****** ****** ****** ****** ****** ****** ****** ****** ******
      ****** ****** ****** ****** ****** ****** ****** ****** ****** ******
  24  ****** ****** ****** ****** ****** ****** ****** ****** ****** ******
      ****** ****** ****** ****** ****** ****** ****** ****** ****** ******
      ****** ****** ****** ****** ****** ****** ****** ****** ****** ******
  25  ****** ****** ****** ****** ****** ****** ****** ****** ****** ******
      ****** ****** ****** ****** ****** ****** ****** ****** ****** ******
      ****** ****** ****** ****** ****** ****** ****** ****** ****** ******

 HEAD WILL BE SAVED ON UNIT   51 AT END OF TIME STEP    1, STRESS PERIOD    9
1
  VOLUMETRIC BUDGET FOR ENTIRE MODEL AT END OF TIME STEP    1, STRESS PERIOD   9
  ------------------------------------------------------------------------------

     CUMULATIVE VOLUMES      L**3       RATES FOR THIS TIME STEP      L**3/T
     ------------------                 ------------------------

           IN:                                      IN:
           ---                                      ---
             STORAGE =    35534947.6631               STORAGE =        7556.7899
       CONSTANT HEAD =    23609915.4583         CONSTANT HEAD =       36230.5479
               WELLS =           0.0000                 WELLS =           0.0000
            RECHARGE =    18878400.0000              RECHARGE =       13800.0000
      STREAM LEAKAGE =     6140181.2001        STREAM LEAKAGE =        8996.5065

            TOTAL IN =    84163444.3215              TOTAL IN =       66583.8443

          OUT:                                     OUT:
          ----                                     ----
             STORAGE =      838869.7951               STORAGE =           0.0000
       CONSTANT HEAD =           0.0000         CONSTANT HEAD =           0.0000
               WELLS =    26289408.9614                 WELLS =       31982.2493
            RECHARGE =           0.0000              RECHARGE =           0.0000
      STREAM LEAKAGE =    57035167.5315        STREAM LEAKAGE =       34601.5958

           TOTAL OUT =    84163446.2881             TOTAL OUT =       66583.8451

            IN - OUT =          -1.9666              IN - OUT =      -8.0761E-04

 PERCENT DISCREPANCY =          -0.00     PERCENT DISCREPANCY =          -0.00






         TIME SUMMARY AT END OF TIME STEP    1 IN STRESS PERIOD    9
                    SECONDS     MINUTES      HOURS       DAYS        YEARS
                    -----------------------------------------------------------
   TIME STEP LENGTH 7.94880E+06 1.32480E+05  2208.0      92.000     0.25188    
 STRESS PERIOD TIME 7.94880E+06 1.32480E+05  2208.0      92.000     0.25188    
         TOTAL TIME 7.10208E+07 1.18368E+06  19728.      822.00      2.2505    
1
1
                            STRESS PERIOD NO.   10, LENGTH =   91.00000    
                            -----------------------------------------------

                              NUMBER OF TIME STEPS =     1

                               MULTIPLIER FOR DELT =     1.500

                            INITIAL TIME STEP SIZE =   91.00000    

 WELL NO.  LAYER   ROW   COL   STRESS RATE         
 --------------------------------------------------
      1      1      5     13      -7278.    
      2      1      9     16      -9144.    
      3      1     16     19      -5032.    
      4      1     18     19     -0.1053E+05

      4 WELLS

                 RECHARGE =  2.000000E-03

 REUSING STREAM SEGMENT DATA FROM LAST STRESS PERIOD
 
 SOLVING FOR HEAD 


     7 CALLS TO PCG ROUTINE FOR TIME STEP   1 IN STRESS PERIOD   10
    26 TOTAL ITERATIONS

 OUTPUT CONTROL FOR STRESS PERIOD   10   TIME STEP    1
    SAVE BUDGET
    SAVE HEAD FOR ALL LAYERS
    PRINT HEAD FOR ALL LAYERS
 UBDSV2 SAVING "STREAMFLOW OUT  " ON UNIT  50 AT TIME STEP  1, STRESS PERIOD  10



 STREAM LISTING     PERIOD     10   STEP        1

 LAYER ROW COL. STREAM  RCH.  FLOW INTO     FLOW TO   FLOW OUT OF   OVRLND.     DIRECT     STREAM       STREAM     STREAM     STREAM   STREAMBED  STREAMBED
                SEG.NO.  NO.  STRM. RCH.    AQUIFER    STRM. RCH.    RUNOFF     PRECIP       ET          HEAD       DEPTH      WIDTH   CONDCTNC.   GRADIENT

   1   13    1     1     1    1.0000E+05 -1.7617E+03   1.0176E+05  0.000E+00  0.000E+00  0.000E+00  4.84068E+01  1.454E-01  2.000E+01  2.000E+04 -8.808E-02
   1   13    2     1     2    1.0176E+05 -2.7181E+03   1.0448E+05  0.000E+00  0.000E+00  0.000E+00  4.79314E+01  1.473E-01  2.000E+01  2.000E+04 -1.359E-01
   1   14    3     1     3    1.0448E+05 -5.5092E+02   1.0503E+05  0.000E+00  0.000E+00  0.000E+00  4.74556E+01  1.487E-01  2.000E+01  2.000E+04 -2.755E-02
   1   15    4     1     4    1.0503E+05 -5.4046E+02   1.0557E+05  0.000E+00  0.000E+00  0.000E+00  4.69788E+01  1.492E-01  2.000E+01  2.000E+04 -2.702E-02
   1   16    5     1     5    1.0557E+05 -1.9665E+03   1.0754E+05  0.000E+00  0.000E+00  0.000E+00  4.65025E+01  1.503E-01  2.000E+01  2.000E+04 -9.832E-02
   1   16    6     1     6    1.0754E+05 -1.2040E+03   1.0874E+05  0.000E+00  0.000E+00  0.000E+00  4.60266E+01  1.516E-01  2.000E+01  2.000E+04 -6.020E-02
   1   16    7     1     7    1.0874E+05 -1.1542E+03   1.0990E+05  0.000E+00  0.000E+00  0.000E+00  4.55503E+01  1.526E-01  2.000E+01  2.000E+04 -5.771E-02
   1   16    8     1     8    1.0990E+05 -1.1200E+03   1.1102E+05  0.000E+00  0.000E+00  0.000E+00  4.50740E+01  1.535E-01  2.000E+01  2.000E+04 -5.600E-02
   1   16    9     1     9    1.1102E+05 -1.0752E+03   1.1209E+05  0.000E+00  0.000E+00  0.000E+00  4.45976E+01  1.545E-01  2.000E+01  2.000E+04 -5.376E-02
   1   16   10     1    10    1.1209E+05 -1.0114E+03   1.1310E+05  0.000E+00  0.000E+00  0.000E+00  4.41212E+01  1.553E-01  2.000E+01  2.000E+04 -5.057E-02
   1   16   11     1    11    1.1310E+05 -9.2332E+02   1.1403E+05  0.000E+00  0.000E+00  0.000E+00  4.36448E+01  1.561E-01  2.000E+01  2.000E+04 -4.617E-02
   1   16   12     1    12    1.1403E+05 -1.1579E+03   1.1518E+05  0.000E+00  0.000E+00  0.000E+00  4.31683E+01  1.570E-01  2.000E+01  2.000E+04 -5.789E-02
   1   15   13     1    13    1.1518E+05 -7.7179E+02   1.1596E+05  0.000E+00  0.000E+00  0.000E+00  4.26919E+01  1.578E-01  2.000E+01  2.000E+04 -3.859E-02
   1   14   14     1    14    1.1596E+05 -6.8406E+02   1.1664E+05  0.000E+00  0.000E+00  0.000E+00  4.22152E+01  1.584E-01  2.000E+01  2.000E+04 -3.420E-02
   1   13   15     1    15    1.1664E+05 -5.9966E+02   1.1724E+05  0.000E+00  0.000E+00  0.000E+00  4.17384E+01  1.589E-01  2.000E+01  2.000E+04 -2.998E-02
   1   12   16     1    16    1.1724E+05 -4.7581E+02   1.1771E+05  0.000E+00  0.000E+00  0.000E+00  4.12616E+01  1.593E-01  2.000E+01  2.000E+04 -2.379E-02
   1   12   17     1    17    1.1771E+05 -2.7728E+02   1.1799E+05  0.000E+00  0.000E+00  0.000E+00  4.07846E+01  1.596E-01  2.000E+01  2.000E+04 -1.386E-02
   1   12   18     1    18    1.1799E+05 -4.5208E+02   1.1844E+05  0.000E+00  0.000E+00  0.000E+00  4.03077E+01  1.599E-01  2.000E+01  2.000E+04 -2.260E-02
   1   12   19     1    19    1.1844E+05 -1.1639E+03   1.1961E+05  0.000E+00  0.000E+00  0.000E+00  3.98310E+01  1.606E-01  2.000E+01  2.000E+04 -5.819E-02
   1   13   20     1    20    1.1961E+05 -4.0931E+02   1.2002E+05  0.000E+00  0.000E+00  0.000E+00  3.93544E+01  1.612E-01  2.000E+01  2.000E+04 -2.047E-02
   1   14   21     1    21    1.2002E+05  4.7004E+02   1.1955E+05  0.000E+00  0.000E+00  0.000E+00  3.88771E+01  1.612E-01  2.000E+01  2.000E+04  2.350E-02
   1   14   22     1    22    1.1955E+05  5.1142E+03   1.1443E+05  0.000E+00  0.000E+00  0.000E+00  3.83976E+01  1.589E-01  2.000E+01  2.000E+04  2.557E-01
   1    9   30     2     1    5.0000E+04 -8.7431E+02   5.0874E+04  0.000E+00  0.000E+00  0.000E+00  4.02415E+01  1.165E-01  2.000E+01  2.000E+04 -4.372E-02
   1    9   29     2     2    5.0874E+04 -1.1581E+03   5.2032E+04  0.000E+00  0.000E+00  0.000E+00  3.99929E+01  1.179E-01  2.000E+01  2.000E+04 -5.791E-02
   1    9   28     2     3    5.2032E+04 -1.3765E+03   5.3409E+04  0.000E+00  0.000E+00  0.000E+00  3.97446E+01  1.196E-01  2.000E+01  2.000E+04 -6.883E-02
   1    9   27     2     4    5.3409E+04 -2.5238E+03   5.5933E+04  0.000E+00  0.000E+00  0.000E+00  3.94972E+01  1.222E-01  2.000E+01  2.000E+04 -1.262E-01
   1   10   26     2     5    5.5933E+04 -1.7533E+03   5.7686E+04  0.000E+00  0.000E+00  0.000E+00  3.92501E+01  1.251E-01  2.000E+01  2.000E+04 -8.767E-02
   1   11   25     2     6    5.7686E+04 -1.5209E+03   5.9207E+04  0.000E+00  0.000E+00  0.000E+00  3.90022E+01  1.272E-01  2.000E+01  2.000E+04 -7.604E-02
   1   12   24     2     7    5.9207E+04 -1.5192E+03   6.0726E+04  0.000E+00  0.000E+00  0.000E+00  3.87542E+01  1.292E-01  2.000E+01  2.000E+04 -7.596E-02
   1   13   23     2     8    6.0726E+04 -3.0558E+02   6.1032E+04  0.000E+00  0.000E+00  0.000E+00  3.85054E+01  1.304E-01  2.000E+01  2.000E+04 -1.528E-02
   1   14   22     2     9    6.1032E+04  2.2456E+03   5.8786E+04  0.000E+00  0.000E+00  0.000E+00  3.82541E+01  1.291E-01  2.000E+01  2.000E+04  1.123E-01
   1   14   22     3     1    1.7322E+05 -8.3401E+03   1.8156E+05  0.000E+00  0.000E+00  0.000E+00  3.77249E+01  1.693E-01  2.000E+01  2.000E+04 -4.170E-01
   1   15   23     3     2    1.8156E+05 -2.7162E+02   1.8183E+05  0.000E+00  0.000E+00  0.000E+00  3.68384E+01  1.718E-01  2.000E+01  2.000E+04 -1.358E-02
   1   15   24     3     3    1.8183E+05 -2.8423E+02   1.8212E+05  0.000E+00  0.000E+00  0.000E+00  3.59497E+01  1.719E-01  2.000E+01  2.000E+04 -1.421E-02
   1   15   25     3     4    1.8212E+05 -3.1746E+02   1.8243E+05  0.000E+00  0.000E+00  0.000E+00  3.50610E+01  1.721E-01  2.000E+01  2.000E+04 -1.587E-02
   1   15   26     3     5    1.8243E+05 -4.1927E+02   1.8285E+05  0.000E+00  0.000E+00  0.000E+00  3.41723E+01  1.723E-01  2.000E+01  2.000E+04 -2.096E-02
   1   16   27     3     6    1.8285E+05 -4.4388E+02   1.8330E+05  0.000E+00  0.000E+00  0.000E+00  3.32836E+01  1.725E-01  2.000E+01  2.000E+04 -2.219E-02
   1   17   28     3     7    1.8330E+05 -1.7281E+03   1.8502E+05  0.000E+00  0.000E+00  0.000E+00  3.23954E+01  1.731E-01  2.000E+01  2.000E+04 -8.641E-02
   1   18   29     3     8    1.8502E+05 -2.8387E+03   1.8786E+05  0.000E+00  0.000E+00  0.000E+00  3.15078E+01  1.744E-01  2.000E+01  2.000E+04 -1.419E-01
   1   18   30     3     9    1.8786E+05 -3.2145E+03   1.9108E+05  0.000E+00  0.000E+00  0.000E+00  3.06206E+01  1.761E-01  2.000E+01  2.000E+04 -1.607E-01



1
              HEAD IN LAYER   1 AT END OF TIME STEP   1 IN STRESS PERIOD   10
  ---------------------------------------------------------------------------

          1      2      3      4      5      6      7      8      9     10
         11     12     13     14     15     16     17     18     19     20
         21     22     23     24     25     26     27     28     29     30
 .........................................................................
   1  ****** ****** ****** ****** ****** ****** ****** ****** ****** ******
      ****** ****** ****** ****** ****** ****** ****** ****** ****** ******
      ****** ****** ****** ****** ****** ****** ****** ****** ****** ******
   2  ****** ****** ****** ****** ****** ****** ****** ****** ****** ******
      ****** ****** ****** ****** ****** ****** ****** ****** ****** ******
      ****** ****** ****** ****** ****** ****** ****** ****** ****** ******
   3  ****** ****** ****** ****** ****** ****** ****** ****** ****** ******
      ****** ****** ****** ****** ****** ****** ****** ****** ****** ******
      ****** ****** ****** ****** ****** ****** ****** ****** ****** ******
   4  ****** ****** ****** ****** ****** ****** ****** ****** ****** ******
      ****** ****** ****** ****** ****** ****** ****** ****** ****** ******
      ****** ****** ****** ****** ****** ****** ****** ****** ****** ******
   5  ****** ****** ****** ****** ****** ****** ****** ****** ****** ******
      ****** ****** ****** ****** ****** ****** ****** ****** ****** ******
      ****** ****** ****** ****** ****** ****** ****** ****** ****** ******
   6  ****** ****** ****** ****** ****** ****** ****** ****** ****** ******
      ****** ****** ****** ****** ****** ****** ****** ****** ****** ******
      ****** ****** ****** ****** ****** ****** ****** ****** ****** ******
   7  ****** ****** ****** ****** ****** ****** ****** ****** ****** ******
      ****** ****** ****** ****** ****** ****** ****** ****** ****** ******
      ****** ****** ****** ****** ****** ****** ****** ****** ****** ******
   8  ****** ****** ****** ****** ****** ****** ****** ****** ****** ******
      ****** ****** ****** ****** ****** ****** ****** ****** ****** ******
      ****** ****** ****** ****** ****** ****** ****** ****** ****** ******
   9  ****** ****** ****** ****** ****** ****** ****** ****** ****** ******
      ****** ****** ****** ****** ****** ****** ****** ****** ****** ******
      ****** ****** ****** ****** ****** ****** ****** ****** ****** ******
  10  ****** ****** ****** ****** ****** ****** ****** ****** ****** ******
      ****** ****** ****** ****** ****** ****** ****** ****** ****** ******
      ****** ****** ****** ****** ****** ****** ****** ****** ****** ******
  11  ****** ****** ****** ****** ****** ****** ****** ****** ****** ******
      ****** ****** ****** ****** ****** ****** ****** ****** ****** ******
      ****** ****** ****** ****** ****** ****** ****** ****** ****** ******
  12  ****** ****** ****** ****** ****** ****** ****** ****** ****** ******
      ****** ****** ****** ****** ****** ****** ****** ****** ****** ******
      ****** ****** ****** ****** ****** ****** ****** ****** ****** ******
  13  ****** ****** ****** ****** ****** ****** ****** ****** ****** ******
      ****** ****** ****** ****** ****** ****** ****** ****** ****** ******
      ****** ****** ****** ****** ****** ****** ****** ****** ****** ******
  14  ****** ****** ****** ****** ****** ****** ****** ****** ****** ******
      ****** ****** ****** ****** ****** ****** ****** ****** ****** ******
      ****** ****** ****** ****** ****** ****** ****** ****** ****** ******
  15  ****** ****** ****** ****** ****** ****** ****** ****** ****** ******
      ****** ****** ****** ****** ****** ****** ****** ****** ****** ******
      ****** ****** ****** ****** ****** ****** ****** ****** ****** ******
  16  ****** ****** ****** ****** ****** ****** ****** ****** ****** ******
      ****** ****** ****** ****** ****** ****** ****** ****** ****** ******
      ****** ****** ****** ****** ****** ****** ****** ****** ****** ******
  17  ****** ****** ****** ****** ****** ****** ****** ****** ****** ******
      ****** ****** ****** ****** ****** ****** ****** ****** ****** ******
      ****** ****** ****** ****** ****** ****** ****** ****** ****** ******
  18  ****** ****** ****** ****** ****** ****** ****** ****** ****** ******
      ****** ****** ****** ****** ****** ****** ****** ****** ****** ******
      ****** ****** ****** ****** ****** ****** ****** ****** ****** ******
  19  ****** ****** ****** ****** ****** ****** ****** ****** ****** ******
      ****** ****** ****** ****** ****** ****** ****** ****** ****** ******
      ****** ****** ****** ****** ****** ****** ****** ****** ****** ******
  20  ****** ****** ****** ****** ****** ****** ****** ****** ****** ******
      ****** ****** ****** ****** ****** ****** ****** ****** ****** ******
      ****** ****** ****** ****** ****** ****** ****** ****** ****** ******
  21  ****** ****** ****** ****** ****** ****** ****** ****** ****** ******
      ****** ****** ****** ****** ****** ****** ****** ****** ****** ******
      ****** ****** ****** ****** ****** ****** ****** ****** ****** ******
  22  ****** ****** ****** ****** ****** ****** ****** ****** ****** ******
      ****** ****** ****** ****** ****** ****** ****** ****** ****** ******
      ****** ****** ****** ****** ****** ****** ****** ****** ****** ******
  23  ****** ****** ****** ****** ****** ****** ****** ****** ****** ******
      ****** ****** ****** ****** ****** ****** ****** ****** ****** ******
      ****** ****** ****** ****** ****** ****** ****** ****** ****** ******
  24  ****** ****** ****** ****** ****** ****** ****** ****** ****** ******
      ****** ****** ****** ****** ****** ****** ****** ****** ****** ******
      ****** ****** ****** ****** ****** ****** ****** ****** ****** ******
  25  ****** ****** ****** ****** ****** ****** ****** ****** ****** ******
      ****** ****** ****** ****** ****** ****** ****** ****** ****** ******
      ****** ****** ****** ****** ****** ****** ****** ****** ****** ******

 HEAD WILL BE SAVED ON UNIT   51 AT END OF TIME STEP    1, STRESS PERIOD   10
1
  VOLUMETRIC BUDGET FOR ENTIRE MODEL AT END OF TIME STEP    1, STRESS PERIOD  10
  ------------------------------------------------------------------------------

     CUMULATIVE VOLUMES      L**3       RATES FOR THIS TIME STEP      L**3/T
     ------------------                 ------------------------

           IN:                                      IN:
           ---                                      ---
             STORAGE =    35534947.6631               STORAGE =           0.0000
       CONSTANT HEAD =    26640782.9163         CONSTANT HEAD =       33306.2358
               WELLS =           0.0000                 WELLS =           0.0000
            RECHARGE =    23901600.0000              RECHARGE =       55200.0000
      STREAM LEAKAGE =     6852698.1077        STREAM LEAKAGE =        7829.8561

            TOTAL IN =    92930028.6871              TOTAL IN =       96336.0919

          OUT:                                     OUT:
          ----                                     ----
             STORAGE =     2244507.3001               STORAGE =       15446.5660
       CONSTANT HEAD =           0.0000         CONSTANT HEAD =           0.0000
               WELLS =    29199793.6518                 WELLS =       31982.2493
            RECHARGE =           0.0000              RECHARGE =           0.0000
      STREAM LEAKAGE =    61485729.3514        STREAM LEAKAGE =       48907.2727

           TOTAL OUT =    92930030.3033             TOTAL OUT =       96336.0881

            IN - OUT =          -1.6161              IN - OUT =       3.8514E-03

 PERCENT DISCREPANCY =          -0.00     PERCENT DISCREPANCY =           0.00






         TIME SUMMARY AT END OF TIME STEP    1 IN STRESS PERIOD   10
                    SECONDS     MINUTES      HOURS       DAYS        YEARS
                    -----------------------------------------------------------
   TIME STEP LENGTH 7.86240E+06 1.31040E+05  2184.0      91.000     0.24914    
 STRESS PERIOD TIME 7.86240E+06 1.31040E+05  2184.0      91.000     0.24914    
         TOTAL TIME 7.88832E+07 1.31472E+06  21912.      913.00      2.4997    
1
1
                            STRESS PERIOD NO.   11, LENGTH =   91.00000    
                            -----------------------------------------------

                              NUMBER OF TIME STEPS =     1

                               MULTIPLIER FOR DELT =     1.500

                            INITIAL TIME STEP SIZE =   91.00000    

 WELL NO.  LAYER   ROW   COL   STRESS RATE         
 --------------------------------------------------
      1      1      5     13      -7278.    
      2      1      9     16      -9144.    
      3      1     16     19      -5032.    
      4      1     18     19     -0.1053E+05

      4 WELLS

                 RECHARGE =   0.00000    

 REUSING STREAM SEGMENT DATA FROM LAST STRESS PERIOD
 
 SOLVING FOR HEAD 


     7 CALLS TO PCG ROUTINE FOR TIME STEP   1 IN STRESS PERIOD   11
    26 TOTAL ITERATIONS

 OUTPUT CONTROL FOR STRESS PERIOD   11   TIME STEP    1
    SAVE BUDGET
    SAVE HEAD FOR ALL LAYERS
    PRINT HEAD FOR ALL LAYERS
 UBDSV2 SAVING "STREAMFLOW OUT  " ON UNIT  50 AT TIME STEP  1, STRESS PERIOD  11



 STREAM LISTING     PERIOD     11   STEP        1

 LAYER ROW COL. STREAM  RCH.  FLOW INTO     FLOW TO   FLOW OUT OF   OVRLND.     DIRECT     STREAM       STREAM     STREAM     STREAM   STREAMBED  STREAMBED
                SEG.NO.  NO.  STRM. RCH.    AQUIFER    STRM. RCH.    RUNOFF     PRECIP       ET          HEAD       DEPTH      WIDTH   CONDCTNC.   GRADIENT

   1   13    1     1     1    1.0000E+05 -1.1883E+03   1.0119E+05  0.000E+00  0.000E+00  0.000E+00  4.84065E+01  1.452E-01  2.000E+01  2.000E+04 -5.941E-02
   1   13    2     1     2    1.0119E+05 -2.0792E+03   1.0327E+05  0.000E+00  0.000E+00  0.000E+00  4.79307E+01  1.466E-01  2.000E+01  2.000E+04 -1.040E-01
   1   14    3     1     3    1.0327E+05 -3.1898E+02   1.0359E+05  0.000E+00  0.000E+00  0.000E+00  4.74544E+01  1.476E-01  2.000E+01  2.000E+04 -1.595E-02
   1   15    4     1     4    1.0359E+05 -2.9770E+02   1.0388E+05  0.000E+00  0.000E+00  0.000E+00  4.69774E+01  1.479E-01  2.000E+01  2.000E+04 -1.489E-02
   1   16    5     1     5    1.0388E+05 -1.2779E+03   1.0516E+05  0.000E+00  0.000E+00  0.000E+00  4.65008E+01  1.485E-01  2.000E+01  2.000E+04 -6.389E-02
   1   16    6     1     6    1.0516E+05 -7.8887E+02   1.0595E+05  0.000E+00  0.000E+00  0.000E+00  4.60244E+01  1.494E-01  2.000E+01  2.000E+04 -3.944E-02
   1   16    7     1     7    1.0595E+05 -7.5658E+02   1.0671E+05  0.000E+00  0.000E+00  0.000E+00  4.55478E+01  1.501E-01  2.000E+01  2.000E+04 -3.783E-02
   1   16    8     1     8    1.0671E+05 -7.2791E+02   1.0744E+05  0.000E+00  0.000E+00  0.000E+00  4.50712E+01  1.507E-01  2.000E+01  2.000E+04 -3.640E-02
   1   16    9     1     9    1.0744E+05 -6.8544E+02   1.0812E+05  0.000E+00  0.000E+00  0.000E+00  4.45945E+01  1.513E-01  2.000E+01  2.000E+04 -3.427E-02
   1   16   10     1    10    1.0812E+05 -6.2282E+02   1.0874E+05  0.000E+00  0.000E+00  0.000E+00  4.41178E+01  1.519E-01  2.000E+01  2.000E+04 -3.114E-02
   1   16   11     1    11    1.0874E+05 -5.3312E+02   1.0928E+05  0.000E+00  0.000E+00  0.000E+00  4.36410E+01  1.523E-01  2.000E+01  2.000E+04 -2.666E-02
   1   16   12     1    12    1.0928E+05 -5.1099E+02   1.0979E+05  0.000E+00  0.000E+00  0.000E+00  4.31641E+01  1.528E-01  2.000E+01  2.000E+04 -2.555E-02
   1   15   13     1    13    1.0979E+05 -8.0912E+01   1.0987E+05  0.000E+00  0.000E+00  0.000E+00  4.26871E+01  1.530E-01  2.000E+01  2.000E+04 -4.046E-03
   1   14   14     1    14    1.0987E+05  2.5325E+01   1.0984E+05  0.000E+00  0.000E+00  0.000E+00  4.22099E+01  1.530E-01  2.000E+01  2.000E+04  1.266E-03
   1   13   15     1    15    1.0984E+05  1.0473E+02   1.0974E+05  0.000E+00  0.000E+00  0.000E+00  4.17325E+01  1.530E-01  2.000E+01  2.000E+04  5.237E-03
   1   12   16     1    16    1.0974E+05  2.0614E+02   1.0953E+05  0.000E+00  0.000E+00  0.000E+00  4.12551E+01  1.529E-01  2.000E+01  2.000E+04  1.031E-02
   1   12   17     1    17    1.0953E+05  2.3178E+02   1.0930E+05  0.000E+00  0.000E+00  0.000E+00  4.07777E+01  1.527E-01  2.000E+01  2.000E+04  1.159E-02
   1   12   18     1    18    1.0930E+05  4.8874E+01   1.0925E+05  0.000E+00  0.000E+00  0.000E+00  4.03003E+01  1.526E-01  2.000E+01  2.000E+04  2.444E-03
   1   12   19     1    19    1.0925E+05 -5.4910E+02   1.0980E+05  0.000E+00  0.000E+00  0.000E+00  3.98232E+01  1.528E-01  2.000E+01  2.000E+04 -2.746E-02
   1   13   20     1    20    1.0980E+05  2.0401E+02   1.0960E+05  0.000E+00  0.000E+00  0.000E+00  3.93461E+01  1.529E-01  2.000E+01  2.000E+04  1.020E-02
   1   14   21     1    21    1.0960E+05  1.0675E+03   1.0853E+05  0.000E+00  0.000E+00  0.000E+00  3.88683E+01  1.524E-01  2.000E+01  2.000E+04  5.337E-02
   1   14   22     1    22    1.0853E+05  5.2571E+03   1.0327E+05  0.000E+00  0.000E+00  0.000E+00  3.83884E+01  1.497E-01  2.000E+01  2.000E+04  2.629E-01
   1    9   30     2     1    5.0000E+04 -3.8587E+02   5.0386E+04  0.000E+00  0.000E+00  0.000E+00  4.02411E+01  1.161E-01  2.000E+01  2.000E+04 -1.929E-02
   1    9   29     2     2    5.0386E+04 -6.7267E+02   5.1059E+04  0.000E+00  0.000E+00  0.000E+00  3.99919E+01  1.169E-01  2.000E+01  2.000E+04 -3.363E-02
   1    9   28     2     3    5.1059E+04 -8.9317E+02   5.1952E+04  0.000E+00  0.000E+00  0.000E+00  3.97429E+01  1.179E-01  2.000E+01  2.000E+04 -4.466E-02
   1    9   27     2     4    5.1952E+04 -1.8829E+03   5.3835E+04  0.000E+00  0.000E+00  0.000E+00  3.94948E+01  1.198E-01  2.000E+01  2.000E+04 -9.415E-02
   1   10   26     2     5    5.3835E+04 -1.0981E+03   5.4933E+04  0.000E+00  0.000E+00  0.000E+00  3.92469E+01  1.219E-01  2.000E+01  2.000E+04 -5.491E-02
   1   11   25     2     6    5.4933E+04 -8.8950E+02   5.5822E+04  0.000E+00  0.000E+00  0.000E+00  3.89982E+01  1.232E-01  2.000E+01  2.000E+04 -4.448E-02
   1   12   24     2     7    5.5822E+04 -9.4482E+02   5.6767E+04  0.000E+00  0.000E+00  0.000E+00  3.87494E+01  1.244E-01  2.000E+01  2.000E+04 -4.724E-02
   1   13   23     2     8    5.6767E+04 -1.1952E+02   5.6887E+04  0.000E+00  0.000E+00  0.000E+00  3.85001E+01  1.251E-01  2.000E+01  2.000E+04 -5.976E-03
   1   14   22     2     9    5.6887E+04  2.4613E+03   5.4425E+04  0.000E+00  0.000E+00  0.000E+00  3.82486E+01  1.236E-01  2.000E+01  2.000E+04  1.231E-01
   1   14   22     3     1    1.5770E+05 -8.1946E+03   1.6589E+05  0.000E+00  0.000E+00  0.000E+00  3.77158E+01  1.602E-01  2.000E+01  2.000E+04 -4.097E-01
   1   15   23     3     2    1.6589E+05 -7.9475E+01   1.6597E+05  0.000E+00  0.000E+00  0.000E+00  3.68293E+01  1.627E-01  2.000E+01  2.000E+04 -3.974E-03
   1   15   24     3     3    1.6597E+05 -1.1905E+02   1.6609E+05  0.000E+00  0.000E+00  0.000E+00  3.59405E+01  1.627E-01  2.000E+01  2.000E+04 -5.953E-03
   1   15   25     3     4    1.6609E+05 -1.4846E+02   1.6624E+05  0.000E+00  0.000E+00  0.000E+00  3.50517E+01  1.628E-01  2.000E+01  2.000E+04 -7.423E-03
   1   15   26     3     5    1.6624E+05 -2.2355E+02   1.6646E+05  0.000E+00  0.000E+00  0.000E+00  3.41629E+01  1.629E-01  2.000E+01  2.000E+04 -1.118E-02
   1   16   27     3     6    1.6646E+05 -2.2081E+02   1.6668E+05  0.000E+00  0.000E+00  0.000E+00  3.32741E+01  1.630E-01  2.000E+01  2.000E+04 -1.104E-02
   1   17   28     3     7    1.6668E+05 -1.1182E+03   1.6780E+05  0.000E+00  0.000E+00  0.000E+00  3.23856E+01  1.634E-01  2.000E+01  2.000E+04 -5.591E-02
   1   18   29     3     8    1.6780E+05 -2.2163E+03   1.7002E+05  0.000E+00  0.000E+00  0.000E+00  3.14977E+01  1.644E-01  2.000E+01  2.000E+04 -1.108E-01
   1   18   30     3     9    1.7002E+05 -2.7251E+03   1.7274E+05  0.000E+00  0.000E+00  0.000E+00  3.06103E+01  1.658E-01  2.000E+01  2.000E+04 -1.363E-01



1
              HEAD IN LAYER   1 AT END OF TIME STEP   1 IN STRESS PERIOD   11
  ---------------------------------------------------------------------------

          1      2      3      4      5      6      7      8      9     10
         11     12     13     14     15     16     17     18     19     20
         21     22     23     24     25     26     27     28     29     30
 .........................................................................
   1  ****** ****** ****** ****** ****** ****** ****** ****** ****** ******
      ****** ****** ****** ****** ****** ****** ****** ****** ****** ******
      ****** ****** ****** ****** ****** ****** ****** ****** ****** ******
   2  ****** ****** ****** ****** ****** ****** ****** ****** ****** ******
      ****** ****** ****** ****** ****** ****** ****** ****** ****** ******
      ****** ****** ****** ****** ****** ****** ****** ****** ****** ******
   3  ****** ****** ****** ****** ****** ****** ****** ****** ****** ******
      ****** ****** ****** ****** ****** ****** ****** ****** ****** ******
      ****** ****** ****** ****** ****** ****** ****** ****** ****** ******
   4  ****** ****** ****** ****** ****** ****** ****** ****** ****** ******
      ****** ****** ****** ****** ****** ****** ****** ****** ****** ******
      ****** ****** ****** ****** ****** ****** ****** ****** ****** ******
   5  ****** ****** ****** ****** ****** ****** ****** ****** ****** ******
      ****** ****** ****** ****** ****** ****** ****** ****** ****** ******
      ****** ****** ****** ****** ****** ****** ****** ****** ****** ******
   6  ****** ****** ****** ****** ****** ****** ****** ****** ****** ******
      ****** ****** ****** ****** ****** ****** ****** ****** ****** ******
      ****** ****** ****** ****** ****** ****** ****** ****** ****** ******
   7  ****** ****** ****** ****** ****** ****** ****** ****** ****** ******
      ****** ****** ****** ****** ****** ****** ****** ****** ****** ******
      ****** ****** ****** ****** ****** ****** ****** ****** ****** ******
   8  ****** ****** ****** ****** ****** ****** ****** ****** ****** ******
      ****** ****** ****** ****** ****** ****** ****** ****** ****** ******
      ****** ****** ****** ****** ****** ****** ****** ****** ****** ******
   9  ****** ****** ****** ****** ****** ****** ****** ****** ****** ******
      ****** ****** ****** ****** ****** ****** ****** ****** ****** ******
      ****** ****** ****** ****** ****** ****** ****** ****** ****** ******
  10  ****** ****** ****** ****** ****** ****** ****** ****** ****** ******
      ****** ****** ****** ****** ****** ****** ****** ****** ****** ******
      ****** ****** ****** ****** ****** ****** ****** ****** ****** ******
  11  ****** ****** ****** ****** ****** ****** ****** ****** ****** ******
      ****** ****** ****** ****** ****** ****** ****** ****** ****** ******
      ****** ****** ****** ****** ****** ****** ****** ****** ****** ******
  12  ****** ****** ****** ****** ****** ****** ****** ****** ****** ******
      ****** ****** ****** ****** ****** ****** ****** ****** ****** ******
      ****** ****** ****** ****** ****** ****** ****** ****** ****** ******
  13  ****** ****** ****** ****** ****** ****** ****** ****** ****** ******
      ****** ****** ****** ****** ****** ****** ****** ****** ****** ******
      ****** ****** ****** ****** ****** ****** ****** ****** ****** ******
  14  ****** ****** ****** ****** ****** ****** ****** ****** ****** ******
      ****** ****** ****** ****** ****** ****** ****** ****** ****** ******
      ****** ****** ****** ****** ****** ****** ****** ****** ****** ******
  15  ****** ****** ****** ****** ****** ****** ****** ****** ****** ******
      ****** ****** ****** ****** ****** ****** ****** ****** ****** ******
      ****** ****** ****** ****** ****** ****** ****** ****** ****** ******
  16  ****** ****** ****** ****** ****** ****** ****** ****** ****** ******
      ****** ****** ****** ****** ****** ****** ****** ****** ****** ******
      ****** ****** ****** ****** ****** ****** ****** ****** ****** ******
  17  ****** ****** ****** ****** ****** ****** ****** ****** ****** ******
      ****** ****** ****** ****** ****** ****** ****** ****** ****** ******
      ****** ****** ****** ****** ****** ****** ****** ****** ****** ******
  18  ****** ****** ****** ****** ****** ****** ****** ****** ****** ******
      ****** ****** ****** ****** ****** ****** ****** ****** ****** ******
      ****** ****** ****** ****** ****** ****** ****** ****** ****** ******
  19  ****** ****** ****** ****** ****** ****** ****** ****** ****** ******
      ****** ****** ****** ****** ****** ****** ****** ****** ****** ******
      ****** ****** ****** ****** ****** ****** ****** ****** ****** ******
  20  ****** ****** ****** ****** ****** ****** ****** ****** ****** ******
      ****** ****** ****** ****** ****** ****** ****** ****** ****** ******
      ****** ****** ****** ****** ****** ****** ****** ****** ****** ******
  21  ****** ****** ****** ****** ****** ****** ****** ****** ****** ******
      ****** ****** ****** ****** ****** ****** ****** ****** ****** ******
      ****** ****** ****** ****** ****** ****** ****** ****** ****** ******
  22  ****** ****** ****** ****** ****** ****** ****** ****** ****** ******
      ****** ****** ****** ****** ****** ****** ****** ****** ****** ******
      ****** ****** ****** ****** ****** ****** ****** ****** ****** ******
  23  ****** ****** ****** ****** ****** ****** ****** ****** ****** ******
      ****** ****** ****** ****** ****** ****** ****** ****** ****** ******
      ****** ****** ****** ****** ****** ****** ****** ****** ****** ******
  24  ****** ****** ****** ****** ****** ****** ****** ****** ****** ******
      ****** ****** ****** ****** ****** ****** ****** ****** ****** ******
      ****** ****** ****** ****** ****** ****** ****** ****** ****** ******
  25  ****** ****** ****** ****** ****** ****** ****** ****** ****** ******
      ****** ****** ****** ****** ****** ****** ****** ****** ****** ******
      ****** ****** ****** ****** ****** ****** ****** ****** ****** ******

 HEAD WILL BE SAVED ON UNIT   51 AT END OF TIME STEP    1, STRESS PERIOD   11
1
  VOLUMETRIC BUDGET FOR ENTIRE MODEL AT END OF TIME STEP    1, STRESS PERIOD  11
  ------------------------------------------------------------------------------

     CUMULATIVE VOLUMES      L**3       RATES FOR THIS TIME STEP      L**3/T
     ------------------                 ------------------------

           IN:                                      IN:
           ---                                      ---
             STORAGE =    37183276.6483               STORAGE =       18113.5053
       CONSTANT HEAD =    29972471.3364         CONSTANT HEAD =       36611.9607
               WELLS =           0.0000                 WELLS =           0.0000
            RECHARGE =    23901600.0000              RECHARGE =           0.0000
      STREAM LEAKAGE =     7726915.7276        STREAM LEAKAGE =        9606.7870

            TOTAL IN =    98784263.7123              TOTAL IN =       64332.2530

          OUT:                                     OUT:
          ----                                     ----
             STORAGE =     2244507.3001               STORAGE =           0.0000
       CONSTANT HEAD =           0.0000         CONSTANT HEAD =           0.0000
               WELLS =    32110178.3422                 WELLS =       31982.2493
            RECHARGE =           0.0000              RECHARGE =           0.0000
      STREAM LEAKAGE =    64429580.1391        STREAM LEAKAGE =       32350.0087

           TOTAL OUT =    98784265.7813             TOTAL OUT =       64332.2580

            IN - OUT =          -2.0691              IN - OUT =      -4.9772E-03

 PERCENT DISCREPANCY =          -0.00     PERCENT DISCREPANCY =          -0.00






         TIME SUMMARY AT END OF TIME STEP    1 IN STRESS PERIOD   11
                    SECONDS     MINUTES      HOURS       DAYS        YEARS
                    -----------------------------------------------------------
   TIME STEP LENGTH 7.86240E+06 1.31040E+05  2184.0      91.000     0.24914    
 STRESS PERIOD TIME 7.86240E+06 1.31040E+05  2184.0      91.000     0.24914    
         TOTAL TIME 8.67456E+07 1.44576E+06  24096.      1004.0      2.7488    
1
1
                            STRESS PERIOD NO.   12, LENGTH =   91.00000    
                            -----------------------------------------------

                              NUMBER OF TIME STEPS =     1

                               MULTIPLIER FOR DELT =     1.500

                            INITIAL TIME STEP SIZE =   91.00000    

 WELL NO.  LAYER   ROW   COL   STRESS RATE         
 --------------------------------------------------
      1      1      5     13      -7278.    
      2      1      9     16      -9144.    
      3      1     16     19      -5032.    
      4      1     18     19     -0.1053E+05

      4 WELLS

                 RECHARGE =  1.000000E-03

 REUSING STREAM SEGMENT DATA FROM LAST STRESS PERIOD
 
 SOLVING FOR HEAD 


     7 CALLS TO PCG ROUTINE FOR TIME STEP   1 IN STRESS PERIOD   12
    24 TOTAL ITERATIONS

 OUTPUT CONTROL FOR STRESS PERIOD   12   TIME STEP    1
    SAVE BUDGET
    SAVE HEAD FOR ALL LAYERS
    PRINT HEAD FOR ALL LAYERS
 UBDSV2 SAVING "STREAMFLOW OUT  " ON UNIT  50 AT TIME STEP  1, STRESS PERIOD  12



 STREAM LISTING     PERIOD     12   STEP        1

 LAYER ROW COL. STREAM  RCH.  FLOW INTO     FLOW TO   FLOW OUT OF   OVRLND.     DIRECT     STREAM       STREAM     STREAM     STREAM   STREAMBED  STREAMBED
                SEG.NO.  NO.  STRM. RCH.    AQUIFER    STRM. RCH.    RUNOFF     PRECIP       ET          HEAD       DEPTH      WIDTH   CONDCTNC.   GRADIENT

   1   13    1     1     1    1.0000E+05 -1.3284E+03   1.0133E+05  0.000E+00  0.000E+00  0.000E+00  4.84066E+01  1.452E-01  2.000E+01  2.000E+04 -6.642E-02
   1   13    2     1     2    1.0133E+05 -2.2294E+03   1.0356E+05  0.000E+00  0.000E+00  0.000E+00  4.79309E+01  1.468E-01  2.000E+01  2.000E+04 -1.115E-01
   1   14    3     1     3    1.0356E+05 -3.9676E+02   1.0395E+05  0.000E+00  0.000E+00  0.000E+00  4.74547E+01  1.479E-01  2.000E+01  2.000E+04 -1.984E-02
   1   15    4     1     4    1.0395E+05 -3.7943E+02   1.0433E+05  0.000E+00  0.000E+00  0.000E+00  4.69778E+01  1.482E-01  2.000E+01  2.000E+04 -1.897E-02
   1   16    5     1     5    1.0433E+05 -1.4871E+03   1.0582E+05  0.000E+00  0.000E+00  0.000E+00  4.65013E+01  1.490E-01  2.000E+01  2.000E+04 -7.436E-02
   1   16    6     1     6    1.0582E+05 -9.1871E+02   1.0674E+05  0.000E+00  0.000E+00  0.000E+00  4.60250E+01  1.500E-01  2.000E+01  2.000E+04 -4.594E-02
   1   16    7     1     7    1.0674E+05 -8.8128E+02   1.0762E+05  0.000E+00  0.000E+00  0.000E+00  4.55485E+01  1.508E-01  2.000E+01  2.000E+04 -4.406E-02
   1   16    8     1     8    1.0762E+05 -8.5157E+02   1.0847E+05  0.000E+00  0.000E+00  0.000E+00  4.50720E+01  1.515E-01  2.000E+01  2.000E+04 -4.258E-02
   1   16    9     1     9    1.0847E+05 -8.0960E+02   1.0928E+05  0.000E+00  0.000E+00  0.000E+00  4.45954E+01  1.522E-01  2.000E+01  2.000E+04 -4.048E-02
   1   16   10     1    10    1.0928E+05 -7.4841E+02   1.1003E+05  0.000E+00  0.000E+00  0.000E+00  4.41188E+01  1.529E-01  2.000E+01  2.000E+04 -3.742E-02
   1   16   11     1    11    1.1003E+05 -6.6107E+02   1.1069E+05  0.000E+00  0.000E+00  0.000E+00  4.36421E+01  1.535E-01  2.000E+01  2.000E+04 -3.305E-02
   1   16   12     1    12    1.1069E+05 -7.1188E+02   1.1140E+05  0.000E+00  0.000E+00  0.000E+00  4.31654E+01  1.540E-01  2.000E+01  2.000E+04 -3.559E-02
   1   15   13     1    13    1.1140E+05 -2.9624E+02   1.1170E+05  0.000E+00  0.000E+00  0.000E+00  4.26885E+01  1.545E-01  2.000E+01  2.000E+04 -1.481E-02
   1   14   14     1    14    1.1170E+05 -1.9003E+02   1.1189E+05  0.000E+00  0.000E+00  0.000E+00  4.22115E+01  1.547E-01  2.000E+01  2.000E+04 -9.502E-03
   1   13   15     1    15    1.1189E+05 -1.0290E+02   1.1199E+05  0.000E+00  0.000E+00  0.000E+00  4.17343E+01  1.548E-01  2.000E+01  2.000E+04 -5.145E-03
   1   12   16     1    16    1.1199E+05  2.5704E+01   1.1197E+05  0.000E+00  0.000E+00  0.000E+00  4.12571E+01  1.548E-01  2.000E+01  2.000E+04  1.285E-03
   1   12   17     1    17    1.1197E+05  7.9847E+01   1.1189E+05  0.000E+00  0.000E+00  0.000E+00  4.07798E+01  1.548E-01  2.000E+01  2.000E+04  3.992E-03
   1   12   18     1    18    1.1189E+05 -1.0550E+02   1.1199E+05  0.000E+00  0.000E+00  0.000E+00  4.03025E+01  1.548E-01  2.000E+01  2.000E+04 -5.275E-03
   1   12   19     1    19    1.1199E+05 -7.4010E+02   1.1273E+05  0.000E+00  0.000E+00  0.000E+00  3.98256E+01  1.551E-01  2.000E+01  2.000E+04 -3.700E-02
   1   13   20     1    20    1.1273E+05 -5.6385E+00   1.1274E+05  0.000E+00  0.000E+00  0.000E+00  3.93486E+01  1.554E-01  2.000E+01  2.000E+04 -2.819E-04
   1   14   21     1    21    1.1274E+05  8.7389E+02   1.1186E+05  0.000E+00  0.000E+00  0.000E+00  3.88710E+01  1.551E-01  2.000E+01  2.000E+04  4.369E-02
   1   14   22     1    22    1.1186E+05  5.2053E+03   1.0666E+05  0.000E+00  0.000E+00  0.000E+00  3.83912E+01  1.525E-01  2.000E+01  2.000E+04  2.603E-01
   1    9   30     2     1    5.0000E+04 -5.6201E+02   5.0562E+04  0.000E+00  0.000E+00  0.000E+00  4.02413E+01  1.163E-01  2.000E+01  2.000E+04 -2.810E-02
   1    9   29     2     2    5.0562E+04 -8.4674E+02   5.1409E+04  0.000E+00  0.000E+00  0.000E+00  3.99922E+01  1.172E-01  2.000E+01  2.000E+04 -4.234E-02
   1    9   28     2     3    5.1409E+04 -1.0636E+03   5.2472E+04  0.000E+00  0.000E+00  0.000E+00  3.97435E+01  1.185E-01  2.000E+01  2.000E+04 -5.318E-02
   1    9   27     2     4    5.2472E+04 -2.0913E+03   5.4564E+04  0.000E+00  0.000E+00  0.000E+00  3.94957E+01  1.207E-01  2.000E+01  2.000E+04 -1.046E-01
   1   10   26     2     5    5.4564E+04 -1.3273E+03   5.5891E+04  0.000E+00  0.000E+00  0.000E+00  3.92480E+01  1.230E-01  2.000E+01  2.000E+04 -6.636E-02
   1   11   25     2     6    5.5891E+04 -1.1148E+03   5.7006E+04  0.000E+00  0.000E+00  0.000E+00  3.89996E+01  1.246E-01  2.000E+01  2.000E+04 -5.574E-02
   1   12   24     2     7    5.7006E+04 -1.1504E+03   5.8156E+04  0.000E+00  0.000E+00  0.000E+00  3.87511E+01  1.261E-01  2.000E+01  2.000E+04 -5.752E-02
   1   13   23     2     8    5.8156E+04 -1.9707E+02   5.8353E+04  0.000E+00  0.000E+00  0.000E+00  3.85020E+01  1.270E-01  2.000E+01  2.000E+04 -9.853E-03
   1   14   22     2     9    5.8353E+04  2.3926E+03   5.5961E+04  0.000E+00  0.000E+00  0.000E+00  3.82505E+01  1.255E-01  2.000E+01  2.000E+04  1.196E-01
   1   14   22     3     1    1.6262E+05 -8.2448E+03   1.7086E+05  0.000E+00  0.000E+00  0.000E+00  3.77187E+01  1.631E-01  2.000E+01  2.000E+04 -4.122E-01
   1   15   23     3     2    1.7086E+05 -1.5143E+02   1.7102E+05  0.000E+00  0.000E+00  0.000E+00  3.68322E+01  1.656E-01  2.000E+01  2.000E+04 -7.572E-03
   1   15   24     3     3    1.7102E+05 -1.8409E+02   1.7120E+05  0.000E+00  0.000E+00  0.000E+00  3.59435E+01  1.657E-01  2.000E+01  2.000E+04 -9.205E-03
   1   15   25     3     4    1.7120E+05 -2.1478E+02   1.7141E+05  0.000E+00  0.000E+00  0.000E+00  3.50547E+01  1.658E-01  2.000E+01  2.000E+04 -1.074E-02
   1   15   26     3     5    1.7141E+05 -3.0101E+02   1.7172E+05  0.000E+00  0.000E+00  0.000E+00  3.41659E+01  1.659E-01  2.000E+01  2.000E+04 -1.505E-02
   1   16   27     3     6    1.7172E+05 -3.0755E+02   1.7202E+05  0.000E+00  0.000E+00  0.000E+00  3.32772E+01  1.661E-01  2.000E+01  2.000E+04 -1.538E-02
   1   17   28     3     7    1.7202E+05 -1.3388E+03   1.7336E+05  0.000E+00  0.000E+00  0.000E+00  3.23888E+01  1.666E-01  2.000E+01  2.000E+04 -6.694E-02
   1   18   29     3     8    1.7336E+05 -2.4167E+03   1.7578E+05  0.000E+00  0.000E+00  0.000E+00  3.15010E+01  1.677E-01  2.000E+01  2.000E+04 -1.208E-01
   1   18   30     3     9    1.7578E+05 -2.8930E+03   1.7867E+05  0.000E+00  0.000E+00  0.000E+00  3.06137E+01  1.692E-01  2.000E+01  2.000E+04 -1.447E-01



1
              HEAD IN LAYER   1 AT END OF TIME STEP   1 IN STRESS PERIOD   12
  ---------------------------------------------------------------------------

          1      2      3      4      5      6      7      8      9     10
         11     12     13     14     15     16     17     18     19     20
         21     22     23     24     25     26     27     28     29     30
 .........................................................................
   1  ****** ****** ****** ****** ****** ****** ****** ****** ****** ******
      ****** ****** ****** ****** ****** ****** ****** ****** ****** ******
      ****** ****** ****** ****** ****** ****** ****** ****** ****** ******
   2  ****** ****** ****** ****** ****** ****** ****** ****** ****** ******
      ****** ****** ****** ****** ****** ****** ****** ****** ****** ******
      ****** ****** ****** ****** ****** ****** ****** ****** ****** ******
   3  ****** ****** ****** ****** ****** ****** ****** ****** ****** ******
      ****** ****** ****** ****** ****** ****** ****** ****** ****** ******
      ****** ****** ****** ****** ****** ****** ****** ****** ****** ******
   4  ****** ****** ****** ****** ****** ****** ****** ****** ****** ******
      ****** ****** ****** ****** ****** ****** ****** ****** ****** ******
      ****** ****** ****** ****** ****** ****** ****** ****** ****** ******
   5  ****** ****** ****** ****** ****** ****** ****** ****** ****** ******
      ****** ****** ****** ****** ****** ****** ****** ****** ****** ******
      ****** ****** ****** ****** ****** ****** ****** ****** ****** ******
   6  ****** ****** ****** ****** ****** ****** ****** ****** ****** ******
      ****** ****** ****** ****** ****** ****** ****** ****** ****** ******
      ****** ****** ****** ****** ****** ****** ****** ****** ****** ******
   7  ****** ****** ****** ****** ****** ****** ****** ****** ****** ******
      ****** ****** ****** ****** ****** ****** ****** ****** ****** ******
      ****** ****** ****** ****** ****** ****** ****** ****** ****** ******
   8  ****** ****** ****** ****** ****** ****** ****** ****** ****** ******
      ****** ****** ****** ****** ****** ****** ****** ****** ****** ******
      ****** ****** ****** ****** ****** ****** ****** ****** ****** ******
   9  ****** ****** ****** ****** ****** ****** ****** ****** ****** ******
      ****** ****** ****** ****** ****** ****** ****** ****** ****** ******
      ****** ****** ****** ****** ****** ****** ****** ****** ****** ******
  10  ****** ****** ****** ****** ****** ****** ****** ****** ****** ******
      ****** ****** ****** ****** ****** ****** ****** ****** ****** ******
      ****** ****** ****** ****** ****** ****** ****** ****** ****** ******
  11  ****** ****** ****** ****** ****** ****** ****** ****** ****** ******
      ****** ****** ****** ****** ****** ****** ****** ****** ****** ******
      ****** ****** ****** ****** ****** ****** ****** ****** ****** ******
  12  ****** ****** ****** ****** ****** ****** ****** ****** ****** ******
      ****** ****** ****** ****** ****** ****** ****** ****** ****** ******
      ****** ****** ****** ****** ****** ****** ****** ****** ****** ******
  13  ****** ****** ****** ****** ****** ****** ****** ****** ****** ******
      ****** ****** ****** ****** ****** ****** ****** ****** ****** ******
      ****** ****** ****** ****** ****** ****** ****** ****** ****** ******
  14  ****** ****** ****** ****** ****** ****** ****** ****** ****** ******
      ****** ****** ****** ****** ****** ****** ****** ****** ****** ******
      ****** ****** ****** ****** ****** ****** ****** ****** ****** ******
  15  ****** ****** ****** ****** ****** ****** ****** ****** ****** ******
      ****** ****** ****** ****** ****** ****** ****** ****** ****** ******
      ****** ****** ****** ****** ****** ****** ****** ****** ****** ******
  16  ****** ****** ****** ****** ****** ****** ****** ****** ****** ******
      ****** ****** ****** ****** ****** ****** ****** ****** ****** ******
      ****** ****** ****** ****** ****** ****** ****** ****** ****** ******
  17  ****** ****** ****** ****** ****** ****** ****** ****** ****** ******
      ****** ****** ****** ****** ****** ****** ****** ****** ****** ******
      ****** ****** ****** ****** ****** ****** ****** ****** ****** ******
  18  ****** ****** ****** ****** ****** ****** ****** ****** ****** ******
      ****** ****** ****** ****** ****** ****** ****** ****** ****** ******
      ****** ****** ****** ****** ****** ****** ****** ****** ****** ******
  19  ****** ****** ****** ****** ****** ****** ****** ****** ****** ******
      ****** ****** ****** ****** ****** ****** ****** ****** ****** ******
      ****** ****** ****** ****** ****** ****** ****** ****** ****** ******
  20  ****** ****** ****** ****** ****** ****** ****** ****** ****** ******
      ****** ****** ****** ****** ****** ****** ****** ****** ****** ******
      ****** ****** ****** ****** ****** ****** ****** ****** ****** ******
  21  ****** ****** ****** ****** ****** ****** ****** ****** ****** ******
      ****** ****** ****** ****** ****** ****** ****** ****** ****** ******
      ****** ****** ****** ****** ****** ****** ****** ****** ****** ******
  22  ****** ****** ****** ****** ****** ****** ****** ****** ****** ******
      ****** ****** ****** ****** ****** ****** ****** ****** ****** ******
      ****** ****** ****** ****** ****** ****** ****** ****** ****** ******
  23  ****** ****** ****** ****** ****** ****** ****** ****** ****** ******
      ****** ****** ****** ****** ****** ****** ****** ****** ****** ******
      ****** ****** ****** ****** ****** ****** ****** ****** ****** ******
  24  ****** ****** ****** ****** ****** ****** ****** ****** ****** ******
      ****** ****** ****** ****** ****** ****** ****** ****** ****** ******
      ****** ****** ****** ****** ****** ****** ****** ****** ****** ******
  25  ****** ****** ****** ****** ****** ****** ****** ****** ****** ******
      ****** ****** ****** ****** ****** ****** ****** ****** ****** ******
      ****** ****** ****** ****** ****** ****** ****** ****** ****** ******

 HEAD WILL BE SAVED ON UNIT   51 AT END OF TIME STEP    1, STRESS PERIOD   12
1
  VOLUMETRIC BUDGET FOR ENTIRE MODEL AT END OF TIME STEP    1, STRESS PERIOD  12
  ------------------------------------------------------------------------------

     CUMULATIVE VOLUMES      L**3       RATES FOR THIS TIME STEP      L**3/T
     ------------------                 ------------------------

           IN:                                      IN:
           ---                                      ---
             STORAGE =    37186995.7654               STORAGE =          40.8694
       CONSTANT HEAD =    33242093.3579         CONSTANT HEAD =       35929.9123
               WELLS =           0.0000                 WELLS =           0.0000
            RECHARGE =    26413200.0000              RECHARGE =       27600.0000
      STREAM LEAKAGE =     8507448.0877        STREAM LEAKAGE =        8577.2787

            TOTAL IN =   105349737.2109              TOTAL IN =       72148.0604

          OUT:                                     OUT:
          ----                                     ----
             STORAGE =     2509909.4282               STORAGE =        2916.5069
       CONSTANT HEAD =           0.0000         CONSTANT HEAD =           0.0000
               WELLS =    35020563.0326                 WELLS =       31982.2493
            RECHARGE =           0.0000              RECHARGE =           0.0000
      STREAM LEAKAGE =    67819266.7337        STREAM LEAKAGE =       37249.3032

           TOTAL OUT =   105349739.1944             TOTAL OUT =       72148.0595

            IN - OUT =          -1.9835              IN - OUT =       9.4087E-04

 PERCENT DISCREPANCY =          -0.00     PERCENT DISCREPANCY =           0.00






         TIME SUMMARY AT END OF TIME STEP    1 IN STRESS PERIOD   12
                    SECONDS     MINUTES      HOURS       DAYS        YEARS
                    -----------------------------------------------------------
   TIME STEP LENGTH 7.86240E+06 1.31040E+05  2184.0      91.000     0.24914    
 STRESS PERIOD TIME 7.86240E+06 1.31040E+05  2184.0      91.000     0.24914    
         TOTAL TIME 9.46080E+07 1.57680E+06  26280.      1095.0      2.9979    
1

 Run end date and time (yyyy/mm/dd hh:mm:ss): 2019/06/07 22:25:25
 Elapsed run time:  0.092 Seconds

