                                  MODFLOW-2005     
      U.S. GEOLOGICAL SURVEY MODULAR FINITE-DIFFERENCE GROUND-WATER FLOW MODEL
                            VERSION 1.11.00 8/8/2013

 LIST FILE: supply2.lst
                         UNIT   10

 OPENING ..\data\supply.dis
 FILE TYPE:DIS   UNIT   11   STATUS:OLD    
 FORMAT:FORMATTED              ACCESS:SEQUENTIAL          

 OPENING ..\data\supply.ba6
 FILE TYPE:BAS6   UNIT   12   STATUS:OLD    
 FORMAT:FORMATTED              ACCESS:SEQUENTIAL          

 OPENING ..\data\supply_het.bc6
 FILE TYPE:BCF6   UNIT   13   STATUS:OLD    
 FORMAT:FORMATTED              ACCESS:SEQUENTIAL          

 OPENING ..\data\supply.rch
 FILE TYPE:RCH   UNIT   15   STATUS:OLD    
 FORMAT:FORMATTED              ACCESS:SEQUENTIAL          

 OPENING ..\data\supply2.sfr
 FILE TYPE:SFR   UNIT   16   STATUS:OLD    
 FORMAT:FORMATTED              ACCESS:SEQUENTIAL          

 OPENING ..\data\supply.oc
 FILE TYPE:OC   UNIT   17   STATUS:OLD    
 FORMAT:FORMATTED              ACCESS:SEQUENTIAL          

 OPENING ..\data\supply.pcg
 FILE TYPE:PCG   UNIT   18   STATUS:OLD    
 FORMAT:FORMATTED              ACCESS:SEQUENTIAL          

 OPENING supply2.wel
 FILE TYPE:WEL   UNIT   19   STATUS:OLD    
 FORMAT:FORMATTED              ACCESS:SEQUENTIAL          

 OPENING supply2sf.cbc
 FILE TYPE:DATA(BINARY)   UNIT   50   STATUS:UNKNOWN
 FORMAT:BINARY                 ACCESS:SEQUENTIAL          

 OPENING supply2hd.bhd
 FILE TYPE:DATA(BINARY)   UNIT   51   STATUS:UNKNOWN
 FORMAT:BINARY                 ACCESS:SEQUENTIAL          

 BAS -- BASIC PACKAGE, VERSION 7, 5/2/2005 INPUT READ FROM UNIT   12
 
 MODFLOW was compiled using uniform precision
 Precision of REAL and DOUBLE PRECISION variables:          15

 DISCRETIZATION INPUT DATA READ FROM UNIT   11
    1 LAYERS        25 ROWS        30 COLUMNS
   12 STRESS PERIOD(S) IN SIMULATION
 MODEL TIME UNIT IS DAYS
 MODEL LENGTH UNIT IS UNDEFINED
  Confining bed flag for each layer:
   0

                     DELR =   200.000    

                     DELC =   200.000    

 TOP ELEVATION OF LAYER 1 =  100.0000    

   MODEL LAYER BOTTOM EL. =   0.00000     FOR LAYER   1


 STRESS PERIOD     LENGTH       TIME STEPS     MULTIPLIER FOR DELT    SS FLAG
 ----------------------------------------------------------------------------
        1         92.00000          1                    1.500         TR
        2         91.00000          1                    1.500         TR
        3         91.00000          1                    1.500         TR
        4         91.00000          1                    1.500         TR
        5         92.00000          1                    1.500         TR
        6         91.00000          1                    1.500         TR
        7         91.00000          1                    1.500         TR
        8         91.00000          1                    1.500         TR
        9         92.00000          1                    1.500         TR
       10         91.00000          1                    1.500         TR
       11         91.00000          1                    1.500         TR
       12         91.00000          1                    1.500         TR

 TRANSIENT SIMULATION



 
 #MODOFC transient water supply sample problem                                   
 #                                                                               
 THE FREE FORMAT OPTION HAS BEEN SELECTED



                     BOUNDARY ARRAY FOR LAYER   1
 READING ON UNIT   12 WITH FORMAT: (20I4)              

 AQUIFER HEAD WILL BE SET TO   0.0000     AT ALL NO-FLOW NODES (IBOUND=0).



                       INITIAL HEAD FOR LAYER   1
 READING ON UNIT   12 WITH FORMAT: (10F13.0)           

 OUTPUT CONTROL IS SPECIFIED ONLY AT TIME STEPS FOR WHICH OUTPUT IS DESIRED
 COMPACT CELL-BY-CELL BUDGET FILES WILL BE WRITTEN
 HEAD PRINT FORMAT CODE IS  18    DRAWDOWN PRINT FORMAT CODE IS   0
 HEADS WILL BE SAVED ON UNIT   51    DRAWDOWNS WILL BE SAVED ON UNIT    0

 BCF -- BLOCK-CENTERED FLOW PACKAGE, VERSION 7, 5/2/2005
         INPUT READ FROM UNIT 13
 TRANSIENT SIMULATION
 HEAD AT CELLS THAT CONVERT TO DRY=   0.0000    
 WETTING CAPABILITY IS NOT ACTIVE
      LAYER  LAYER-TYPE CODE     INTERBLOCK T
      --------------------------------------------
         1            0          0 -- HARMONIC    

 COLUMN TO ROW ANISOTROPY =  1.000000    

     PRIMARY STORAGE COEF =  5.000000E-02 FOR LAYER   1



               TRANSMIS. ALONG ROWS FOR LAYER   1
 READING ON UNIT   13 WITH FORMAT: (FREE)              

 WEL -- WELL PACKAGE, VERSION 7, 5/2/2005 INPUT READ FROM UNIT   19
 # Well package input file written by MMProc
 No named parameters
 MAXIMUM OF      4 ACTIVE WELLS AT ONE TIME


     0 Well parameters

 RCH -- RECHARGE PACKAGE, VERSION 7, 5/2/2005 INPUT READ FROM UNIT   15
 No named parameters
 OPTION 1 -- RECHARGE TO TOP LAYER


     0 Recharge parameters

 SFR7 -- STREAMFLOW ROUTING PACKAGE, VERSION 1.0.7, 2013-01-15
         INPUT READ FROM UNIT  16
 #  Supply2 test problem for GWM-VI
 #  The eighth entry in the first data line is ISTCB2 -
 #    Setting this to a negative number indicates that
 #    streamflows out of the reach will be saved to a
 #    binary file.  The absolute value of ISTCB2 is the
 #    unit to which unformatted flows will be written.
 #
 No named parameters
 Segment information will not be 
 read by reach
 No named parameters
 No specifed inflow files


 NUMBER OF STREAM REACHES IS   40

 NUMBER OF STREAM SEGMENTS IS    3

 NUMBER OF STREAM PARAMETERS IS    0

 NUMBER OF STREAM SEGMENTS DEFINED USING PARAMETERS IS              0

 MAXIMUM ERROR FOR STREAM LEAKAGE RATES IS  1.00E-04

 CONSTANT FOR MANNINGS EQUATION IS  1.2839E+05





   STREAM NETWORK DESCRIPTION: 

   LAYER    ROW    COL   SEGMENT   REACH     LENGTH
                          NUMBER   NUMBER    IN CELL        
   --------------------------------------------------
      1     13      1       1        1    2.0000E+02
      1     13      2       1        2    2.0000E+02
      1     14      3       1        3    2.0000E+02
      1     15      4       1        4    2.0000E+02
      1     16      5       1        5    2.0000E+02
      1     16      6       1        6    2.0000E+02
      1     16      7       1        7    2.0000E+02
      1     16      8       1        8    2.0000E+02
      1     16      9       1        9    2.0000E+02
      1     16     10       1       10    2.0000E+02
      1     16     11       1       11    2.0000E+02
      1     16     12       1       12    2.0000E+02
      1     15     13       1       13    2.0000E+02
      1     14     14       1       14    2.0000E+02
      1     13     15       1       15    2.0000E+02
      1     12     16       1       16    2.0000E+02
      1     12     17       1       17    2.0000E+02
      1     12     18       1       18    2.0000E+02
      1     12     19       1       19    2.0000E+02
      1     13     20       1       20    2.0000E+02
      1     14     21       1       21    2.0000E+02
      1     14     22       1       22    2.0000E+02
      1      9     30       2        1    2.0000E+02
      1      9     29       2        2    2.0000E+02
      1      9     28       2        3    2.0000E+02
      1      9     27       2        4    2.0000E+02
      1     10     26       2        5    2.0000E+02
      1     11     25       2        6    2.0000E+02
      1     12     24       2        7    2.0000E+02
      1     13     23       2        8    2.0000E+02
      1     14     22       2        9    2.0000E+02
      1     14     22       3        1    2.0000E+02
      1     15     23       3        2    2.0000E+02
      1     15     24       3        3    2.0000E+02
      1     15     25       3        4    2.0000E+02
      1     15     26       3        5    2.0000E+02
      1     16     27       3        6    2.0000E+02
      1     17     28       3        7    2.0000E+02
      1     18     29       3        8    2.0000E+02
      1     18     30       3        9    2.0000E+02




 PCG -- CONJUGATE-GRADIENT SOLUTION PACKAGE, VERSION 7, 5/2/2005
 MAXIMUM OF    500 CALLS OF SOLUTION ROUTINE
 MAXIMUM OF      5 INTERNAL ITERATIONS PER CALL TO SOLUTION ROUTINE
 MATRIX PRECONDITIONING TYPE :    1



                                    SOLUTION BY THE CONJUGATE-GRADIENT METHOD
                                   -------------------------------------------
                    MAXIMUM NUMBER OF CALLS TO PCG ROUTINE =      500
                        MAXIMUM ITERATIONS PER CALL TO PCG =        5
                               MATRIX PRECONDITIONING TYPE =        1
        RELAXATION FACTOR (ONLY USED WITH PRECOND. TYPE 1) =    0.10000E+01
 PARAMETER OF POLYNOMIAL PRECOND. = 2 (2) OR IS CALCULATED :        0
                         HEAD CHANGE CRITERION FOR CLOSURE =    0.10000E-05
                     RESIDUAL CHANGE CRITERION FOR CLOSURE =    0.10000E+01
            PCG HEAD AND RESIDUAL CHANGE PRINTOUT INTERVAL =        1
     PRINTING FROM SOLVER IS LIMITED(1) OR SUPPRESSED (>1) =        1
                            STEADY-STATE DAMPING PARAMETER =    0.10000E+01
                               TRANSIENT DAMPING PARAMETER =    0.10000E+01
1
                            STRESS PERIOD NO.    1, LENGTH =   92.00000    
                            -----------------------------------------------

                              NUMBER OF TIME STEPS =     1

                               MULTIPLIER FOR DELT =     1.500

                            INITIAL TIME STEP SIZE =   92.00000    

 WELL NO.  LAYER   ROW   COL   STRESS RATE         
 --------------------------------------------------
      1      1     19     29     -0.1190E+05
      2      1     13     22     -0.1207E+05
      3      1     11     24     -0.1308E+05
      4      1     17     29     -0.1750E+05

      4 WELLS

                 RECHARGE =  5.000000E-04



 CLASSIFICATION & COUNT OF STREAM SEGMENTS BASED ON SOURCE OF INFLOW:

                HEADWATER     DIVERSION     RECEIVES TRIBUTARY FLOW
                ---------     ---------     -----------------------
                     2              0               1



                    INPUT DATA FOR EACH STREAM SEGMENT
 ---------------------------------------------------------------------------------------------

 SEGMENT    SEG.     INFLOW   OVERLAND   STREAM    STREAM   ICALC  OUTFLOW  DIVERSION PRIORITY
    NO.    LENGTH     RATE     RUNOFF      ET       PPT.    METH.  TO SEG.  FROM SEG.    NO.

      1  4.400E+03 1.000E+05 0.000E+00 0.000E+00 0.000E+00    1        3        0        0
      2  1.800E+03 5.000E+04 0.000E+00 0.000E+00 0.000E+00    1        3        0        0
      3  1.800E+03 0.000E+00 0.000E+00 0.000E+00 0.000E+00    1        0        0        0


         STREAMBED PROPERTIES AND STREAM DIMENSIONS

 SEGMENT     BED HYD. COND.      BED THICKNESS     ELEV.-TOP OF BED     WIDTH OF STREAM     DEPTH OF STREAM    STREAM ROUGHNESS
    No.     UPPER     LOWER     UPPER     LOWER     UPPER     LOWER     UPPER     LOWER     UPPER     LOWER   CHANNEL      BANK

     1  5.000E+00 5.000E+00 1.000E+00 1.000E+00 4.850E+01 3.800E+01 2.000E+01 2.000E+01                     5.000E-02
     2  5.000E+00 5.000E+00 1.000E+00 1.000E+00 4.025E+01 3.800E+01 2.000E+01 2.000E+01                     5.000E-02
     3  5.000E+00 5.000E+00 1.000E+00 1.000E+00 3.800E+01 3.000E+01 2.000E+01 2.000E+01                     5.000E-02



 
 SOLVING FOR HEAD 


     9 CALLS TO PCG ROUTINE FOR TIME STEP   1 IN STRESS PERIOD    1
    36 TOTAL ITERATIONS

 OUTPUT CONTROL FOR STRESS PERIOD    1   TIME STEP    1
    SAVE BUDGET
    SAVE HEAD FOR ALL LAYERS
    PRINT HEAD FOR ALL LAYERS
 UBDSV2 SAVING "STREAMFLOW OUT  " ON UNIT  50 AT TIME STEP  1, STRESS PERIOD   1



 STREAM LISTING     PERIOD      1   STEP        1

 LAYER ROW COL. STREAM  RCH.  FLOW INTO     FLOW TO   FLOW OUT OF   OVRLND.     DIRECT     STREAM       STREAM     STREAM     STREAM   STREAMBED  STREAMBED
                SEG.NO.  NO.  STRM. RCH.    AQUIFER    STRM. RCH.    RUNOFF     PRECIP       ET          HEAD       DEPTH      WIDTH   CONDCTNC.   GRADIENT

   1   13    1     1     1    1.0000E+05 -6.1243E+03   1.0612E+05  0.000E+00  0.000E+00  0.000E+00  4.84087E+01  1.473E-01  2.000E+01  2.000E+04 -3.062E-01
   1   13    2     1     2    1.0612E+05 -7.5940E+03   1.1372E+05  0.000E+00  0.000E+00  0.000E+00  4.79372E+01  1.531E-01  2.000E+01  2.000E+04 -3.797E-01
   1   14    3     1     3    1.1372E+05 -2.1992E+03   1.1592E+05  0.000E+00  0.000E+00  0.000E+00  4.74640E+01  1.572E-01  2.000E+01  2.000E+04 -1.100E-01
   1   15    4     1     4    1.1592E+05 -2.2705E+03   1.1819E+05  0.000E+00  0.000E+00  0.000E+00  4.69885E+01  1.590E-01  2.000E+01  2.000E+04 -1.135E-01
   1   16    5     1     5    1.1819E+05 -7.1867E+03   1.2537E+05  0.000E+00  0.000E+00  0.000E+00  4.65151E+01  1.628E-01  2.000E+01  2.000E+04 -3.593E-01
   1   16    6     1     6    1.2537E+05 -4.3050E+03   1.2968E+05  0.000E+00  0.000E+00  0.000E+00  4.60424E+01  1.674E-01  2.000E+01  2.000E+04 -2.152E-01
   1   16    7     1     7    1.2968E+05 -4.1402E+03   1.3382E+05  0.000E+00  0.000E+00  0.000E+00  4.55684E+01  1.707E-01  2.000E+01  2.000E+04 -2.070E-01
   1   16    8     1     8    1.3382E+05 -4.0999E+03   1.3792E+05  0.000E+00  0.000E+00  0.000E+00  4.50943E+01  1.739E-01  2.000E+01  2.000E+04 -2.050E-01
   1   16    9     1     9    1.3792E+05 -4.0901E+03   1.4201E+05  0.000E+00  0.000E+00  0.000E+00  4.46202E+01  1.770E-01  2.000E+01  2.000E+04 -2.045E-01
   1   16   10     1    10    1.4201E+05 -4.0885E+03   1.4610E+05  0.000E+00  0.000E+00  0.000E+00  4.41460E+01  1.801E-01  2.000E+01  2.000E+04 -2.044E-01
   1   16   11     1    11    1.4610E+05 -4.1258E+03   1.5022E+05  0.000E+00  0.000E+00  0.000E+00  4.36718E+01  1.831E-01  2.000E+01  2.000E+04 -2.063E-01
   1   16   12     1    12    1.5022E+05 -7.0164E+03   1.5724E+05  0.000E+00  0.000E+00  0.000E+00  4.31986E+01  1.872E-01  2.000E+01  2.000E+04 -3.508E-01
   1   15   13     1    13    1.5724E+05 -7.3408E+03   1.6458E+05  0.000E+00  0.000E+00  0.000E+00  4.27265E+01  1.924E-01  2.000E+01  2.000E+04 -3.670E-01
   1   14   14     1    14    1.6458E+05 -7.8428E+03   1.7242E+05  0.000E+00  0.000E+00  0.000E+00  4.22546E+01  1.978E-01  2.000E+01  2.000E+04 -3.921E-01
   1   13   15     1    15    1.7242E+05 -8.1889E+03   1.8061E+05  0.000E+00  0.000E+00  0.000E+00  4.17830E+01  2.034E-01  2.000E+01  2.000E+04 -4.094E-01
   1   12   16     1    16    1.8061E+05 -8.8266E+03   1.8944E+05  0.000E+00  0.000E+00  0.000E+00  4.13115E+01  2.092E-01  2.000E+01  2.000E+04 -4.413E-01
   1   12   17     1    17    1.8944E+05 -6.2417E+03   1.9568E+05  0.000E+00  0.000E+00  0.000E+00  4.08393E+01  2.143E-01  2.000E+01  2.000E+04 -3.121E-01
   1   12   18     1    18    1.9568E+05 -6.0100E+03   2.0169E+05  0.000E+00  0.000E+00  0.000E+00  4.03661E+01  2.184E-01  2.000E+01  2.000E+04 -3.005E-01
   1   12   19     1    19    2.0169E+05 -7.0077E+03   2.0870E+05  0.000E+00  0.000E+00  0.000E+00  3.98931E+01  2.227E-01  2.000E+01  2.000E+04 -3.504E-01
   1   13   20     1    20    2.0870E+05 -4.8812E+03   2.1358E+05  0.000E+00  0.000E+00  0.000E+00  3.94197E+01  2.265E-01  2.000E+01  2.000E+04 -2.441E-01
   1   14   21     1    21    2.1358E+05 -4.8764E+03   2.1846E+05  0.000E+00  0.000E+00  0.000E+00  3.89455E+01  2.296E-01  2.000E+01  2.000E+04 -2.438E-01
   1   14   22     1    22    2.1846E+05  5.4100E+03   2.1305E+05  0.000E+00  0.000E+00  0.000E+00  3.84681E+01  2.295E-01  2.000E+01  2.000E+04  2.705E-01
   1    9   30     2     1    5.0000E+04 -4.6563E+03   5.4656E+04  0.000E+00  0.000E+00  0.000E+00  4.02441E+01  1.191E-01  2.000E+01  2.000E+04 -2.328E-01
   1    9   29     2     2    5.4656E+04 -4.9577E+03   5.9614E+04  0.000E+00  0.000E+00  0.000E+00  4.00005E+01  1.255E-01  2.000E+01  2.000E+04 -2.479E-01
   1    9   28     2     3    5.9614E+04 -5.2456E+03   6.4860E+04  0.000E+00  0.000E+00  0.000E+00  3.97571E+01  1.321E-01  2.000E+01  2.000E+04 -2.623E-01
   1    9   27     2     4    6.4860E+04 -7.9140E+03   7.2774E+04  0.000E+00  0.000E+00  0.000E+00  3.95153E+01  1.403E-01  2.000E+01  2.000E+04 -3.957E-01
   1   10   26     2     5    7.2774E+04 -6.3638E+03   7.9137E+04  0.000E+00  0.000E+00  0.000E+00  3.92739E+01  1.489E-01  2.000E+01  2.000E+04 -3.182E-01
   1   11   25     2     6    7.9137E+04 -2.0426E+03   8.1180E+04  0.000E+00  0.000E+00  0.000E+00  3.90288E+01  1.538E-01  2.000E+01  2.000E+04 -1.021E-01
   1   12   24     2     7    8.1180E+04 -7.9938E+02   8.1979E+04  0.000E+00  0.000E+00  0.000E+00  3.87804E+01  1.554E-01  2.000E+01  2.000E+04 -3.997E-02
   1   13   23     2     8    8.1979E+04 -4.8643E+02   8.2466E+04  0.000E+00  0.000E+00  0.000E+00  3.85312E+01  1.562E-01  2.000E+01  2.000E+04 -2.432E-02
   1   14   22     2     9    8.2466E+04  1.6580E+03   8.0808E+04  0.000E+00  0.000E+00  0.000E+00  3.82805E+01  1.555E-01  2.000E+01  2.000E+04  8.290E-02
   1   14   22     3     1    2.9385E+05 -8.2187E+03   3.0207E+05  0.000E+00  0.000E+00  0.000E+00  3.77867E+01  2.311E-01  2.000E+01  2.000E+04 -4.109E-01
   1   15   23     3     2    3.0207E+05 -1.9738E+03   3.0405E+05  0.000E+00  0.000E+00  0.000E+00  3.69001E+01  2.335E-01  2.000E+01  2.000E+04 -9.869E-02
   1   15   24     3     3    3.0405E+05 -1.5207E+03   3.0557E+05  0.000E+00  0.000E+00  0.000E+00  3.60120E+01  2.343E-01  2.000E+01  2.000E+04 -7.603E-02
   1   15   25     3     4    3.0557E+05 -1.5650E+03   3.0713E+05  0.000E+00  0.000E+00  0.000E+00  3.51239E+01  2.350E-01  2.000E+01  2.000E+04 -7.825E-02
   1   15   26     3     5    3.0713E+05 -1.7995E+03   3.0893E+05  0.000E+00  0.000E+00  0.000E+00  3.42358E+01  2.358E-01  2.000E+01  2.000E+04 -8.997E-02
   1   16   27     3     6    3.0893E+05 -1.8348E+03   3.1077E+05  0.000E+00  0.000E+00  0.000E+00  3.33477E+01  2.366E-01  2.000E+01  2.000E+04 -9.174E-02
   1   17   28     3     7    3.1077E+05  1.0163E+03   3.0975E+05  0.000E+00  0.000E+00  0.000E+00  3.24590E+01  2.368E-01  2.000E+01  2.000E+04  5.081E-02
   1   18   29     3     8    3.0975E+05  2.8599E+03   3.0689E+05  0.000E+00  0.000E+00  0.000E+00  3.15692E+01  2.359E-01  2.000E+01  2.000E+04  1.430E-01
   1   18   30     3     9    3.0689E+05 -2.0494E+03   3.0894E+05  0.000E+00  0.000E+00  0.000E+00  3.06801E+01  2.357E-01  2.000E+01  2.000E+04 -1.025E-01



1
              HEAD IN LAYER   1 AT END OF TIME STEP   1 IN STRESS PERIOD    1
  ---------------------------------------------------------------------------

          1      2      3      4      5      6      7      8      9     10
         11     12     13     14     15     16     17     18     19     20
         21     22     23     24     25     26     27     28     29     30
 .........................................................................
   1  ****** ****** ****** ****** ****** ****** ****** ****** ****** ******
      ****** ****** ****** ****** ****** ****** ****** ****** ****** ******
      ****** ****** ****** ****** ****** ****** ****** ****** ****** ******
   2  ****** ****** ****** ****** ****** ****** ****** ****** ****** ******
      ****** ****** ****** ****** ****** ****** ****** ****** ****** ******
      ****** ****** ****** ****** ****** ****** ****** ****** ****** ******
   3  ****** ****** ****** ****** ****** ****** ****** ****** ****** ******
      ****** ****** ****** ****** ****** ****** ****** ****** ****** ******
      ****** ****** ****** ****** ****** ****** ****** ****** ****** ******
   4  ****** ****** ****** ****** ****** ****** ****** ****** ****** ******
      ****** ****** ****** ****** ****** ****** ****** ****** ****** ******
      ****** ****** ****** ****** ****** ****** ****** ****** ****** ******
   5  ****** ****** ****** ****** ****** ****** ****** ****** ****** ******
      ****** ****** ****** ****** ****** ****** ****** ****** ****** ******
      ****** ****** ****** ****** ****** ****** ****** ****** ****** ******
   6  ****** ****** ****** ****** ****** ****** ****** ****** ****** ******
      ****** ****** ****** ****** ****** ****** ****** ****** ****** ******
      ****** ****** ****** ****** ****** ****** ****** ****** ****** ******
   7  ****** ****** ****** ****** ****** ****** ****** ****** ****** ******
      ****** ****** ****** ****** ****** ****** ****** ****** ****** ******
      ****** ****** ****** ****** ****** ****** ****** ****** ****** ******
   8  ****** ****** ****** ****** ****** ****** ****** ****** ****** ******
      ****** ****** ****** ****** ****** ****** ****** ****** ****** ******
      ****** ****** ****** ****** ****** ****** ****** ****** ****** ******
   9  ****** ****** ****** ****** ****** ****** ****** ****** ****** ******
      ****** ****** ****** ****** ****** ****** ****** ****** ****** ******
      ****** ****** ****** ****** ****** ****** ****** ****** ****** ******
  10  ****** ****** ****** ****** ****** ****** ****** ****** ****** ******
      ****** ****** ****** ****** ****** ****** ****** ****** ****** ******
      ****** ****** ****** ****** ****** ****** ****** ****** ****** ******
  11  ****** ****** ****** ****** ****** ****** ****** ****** ****** ******
      ****** ****** ****** ****** ****** ****** ****** ****** ****** ******
      ****** ****** ****** ****** ****** ****** ****** ****** ****** ******
  12  ****** ****** ****** ****** ****** ****** ****** ****** ****** ******
      ****** ****** ****** ****** ****** ****** ****** ****** ****** ******
      ****** ****** ****** ****** ****** ****** ****** ****** ****** ******
  13  ****** ****** ****** ****** ****** ****** ****** ****** ****** ******
      ****** ****** ****** ****** ****** ****** ****** ****** ****** ******
      ****** ****** ****** ****** ****** ****** ****** ****** ****** ******
  14  ****** ****** ****** ****** ****** ****** ****** ****** ****** ******
      ****** ****** ****** ****** ****** ****** ****** ****** ****** ******
      ****** ****** ****** ****** ****** ****** ****** ****** ****** ******
  15  ****** ****** ****** ****** ****** ****** ****** ****** ****** ******
      ****** ****** ****** ****** ****** ****** ****** ****** ****** ******
      ****** ****** ****** ****** ****** ****** ****** ****** ****** ******
  16  ****** ****** ****** ****** ****** ****** ****** ****** ****** ******
      ****** ****** ****** ****** ****** ****** ****** ****** ****** ******
      ****** ****** ****** ****** ****** ****** ****** ****** ****** ******
  17  ****** ****** ****** ****** ****** ****** ****** ****** ****** ******
      ****** ****** ****** ****** ****** ****** ****** ****** ****** ******
      ****** ****** ****** ****** ****** ****** ****** ****** ****** ******
  18  ****** ****** ****** ****** ****** ****** ****** ****** ****** ******
      ****** ****** ****** ****** ****** ****** ****** ****** ****** ******
      ****** ****** ****** ****** ****** ****** ****** ****** ****** ******
  19  ****** ****** ****** ****** ****** ****** ****** ****** ****** ******
      ****** ****** ****** ****** ****** ****** ****** ****** ****** ******
      ****** ****** ****** ****** ****** ****** ****** ****** ****** ******
  20  ****** ****** ****** ****** ****** ****** ****** ****** ****** ******
      ****** ****** ****** ****** ****** ****** ****** ****** ****** ******
      ****** ****** ****** ****** ****** ****** ****** ****** ****** ******
  21  ****** ****** ****** ****** ****** ****** ****** ****** ****** ******
      ****** ****** ****** ****** ****** ****** ****** ****** ****** ******
      ****** ****** ****** ****** ****** ****** ****** ****** ****** ******
  22  ****** ****** ****** ****** ****** ****** ****** ****** ****** ******
      ****** ****** ****** ****** ****** ****** ****** ****** ****** ******
      ****** ****** ****** ****** ****** ****** ****** ****** ****** ******
  23  ****** ****** ****** ****** ****** ****** ****** ****** ****** ******
      ****** ****** ****** ****** ****** ****** ****** ****** ****** ******
      ****** ****** ****** ****** ****** ****** ****** ****** ****** ******
  24  ****** ****** ****** ****** ****** ****** ****** ****** ****** ******
      ****** ****** ****** ****** ****** ****** ****** ****** ****** ******
      ****** ****** ****** ****** ****** ****** ****** ****** ****** ******
  25  ****** ****** ****** ****** ****** ****** ****** ****** ****** ******
      ****** ****** ****** ****** ****** ****** ****** ****** ****** ******
      ****** ****** ****** ****** ****** ****** ****** ****** ****** ******

 HEAD WILL BE SAVED ON UNIT   51 AT END OF TIME STEP    1, STRESS PERIOD    1
1
  VOLUMETRIC BUDGET FOR ENTIRE MODEL AT END OF TIME STEP    1, STRESS PERIOD   1
  ------------------------------------------------------------------------------

     CUMULATIVE VOLUMES      L**3       RATES FOR THIS TIME STEP      L**3/T
     ------------------                 ------------------------

           IN:                                      IN:
           ---                                      ---
             STORAGE =    17252782.1161               STORAGE =      187530.2404
       CONSTANT HEAD =     1118711.4976         CONSTANT HEAD =       12159.9076
               WELLS =           0.0000                 WELLS =           0.0000
            RECHARGE =     1269600.0000              RECHARGE =       13800.0000
      STREAM LEAKAGE =     1006869.6371        STREAM LEAKAGE =       10944.2352

            TOTAL IN =    20647963.2509              TOTAL IN =      224434.3832

          OUT:                                     OUT:
          ----                                     ----
             STORAGE =           0.0000               STORAGE =           0.0000
       CONSTANT HEAD =           0.0000         CONSTANT HEAD =           0.0000
               WELLS =     5018598.3111                 WELLS =       54549.9816
            RECHARGE =           0.0000              RECHARGE =           0.0000
      STREAM LEAKAGE =    15629365.2286        STREAM LEAKAGE =      169884.4047

           TOTAL OUT =    20647963.5397             TOTAL OUT =      224434.3863

            IN - OUT =          -0.2888              IN - OUT =      -3.1392E-03

 PERCENT DISCREPANCY =          -0.00     PERCENT DISCREPANCY =          -0.00






         TIME SUMMARY AT END OF TIME STEP    1 IN STRESS PERIOD    1
                    SECONDS     MINUTES      HOURS       DAYS        YEARS
                    -----------------------------------------------------------
   TIME STEP LENGTH 7.94880E+06 1.32480E+05  2208.0      92.000     0.25188    
 STRESS PERIOD TIME 7.94880E+06 1.32480E+05  2208.0      92.000     0.25188    
         TOTAL TIME 7.94880E+06 1.32480E+05  2208.0      92.000     0.25188    
1
1
                            STRESS PERIOD NO.    2, LENGTH =   91.00000    
                            -----------------------------------------------

                              NUMBER OF TIME STEPS =     1

                               MULTIPLIER FOR DELT =     1.500

                            INITIAL TIME STEP SIZE =   91.00000    

 WELL NO.  LAYER   ROW   COL   STRESS RATE         
 --------------------------------------------------
      1      1     19     29     -0.1190E+05
      2      1     13     22     -0.1207E+05
      3      1     11     24     -0.1308E+05
      4      1     17     29     -0.1750E+05

      4 WELLS

                 RECHARGE =  2.000000E-03

 REUSING STREAM SEGMENT DATA FROM LAST STRESS PERIOD
 
 SOLVING FOR HEAD 


     7 CALLS TO PCG ROUTINE FOR TIME STEP   1 IN STRESS PERIOD    2
    27 TOTAL ITERATIONS

 OUTPUT CONTROL FOR STRESS PERIOD    2   TIME STEP    1
    SAVE BUDGET
    SAVE HEAD FOR ALL LAYERS
    PRINT HEAD FOR ALL LAYERS
 UBDSV2 SAVING "STREAMFLOW OUT  " ON UNIT  50 AT TIME STEP  1, STRESS PERIOD   2



 STREAM LISTING     PERIOD      2   STEP        1

 LAYER ROW COL. STREAM  RCH.  FLOW INTO     FLOW TO   FLOW OUT OF   OVRLND.     DIRECT     STREAM       STREAM     STREAM     STREAM   STREAMBED  STREAMBED
                SEG.NO.  NO.  STRM. RCH.    AQUIFER    STRM. RCH.    RUNOFF     PRECIP       ET          HEAD       DEPTH      WIDTH   CONDCTNC.   GRADIENT

   1   13    1     1     1    1.0000E+05 -4.0151E+03   1.0402E+05  0.000E+00  0.000E+00  0.000E+00  4.84078E+01  1.464E-01  2.000E+01  2.000E+04 -2.008E-01
   1   13    2     1     2    1.0402E+05 -5.2777E+03   1.0929E+05  0.000E+00  0.000E+00  0.000E+00  4.79344E+01  1.504E-01  2.000E+01  2.000E+04 -2.639E-01
   1   14    3     1     3    1.0929E+05 -1.1171E+03   1.1041E+05  0.000E+00  0.000E+00  0.000E+00  4.74599E+01  1.530E-01  2.000E+01  2.000E+04 -5.586E-02
   1   15    4     1     4    1.1041E+05 -1.1450E+03   1.1155E+05  0.000E+00  0.000E+00  0.000E+00  4.69835E+01  1.540E-01  2.000E+01  2.000E+04 -5.725E-02
   1   16    5     1     5    1.1155E+05 -4.2590E+03   1.1581E+05  0.000E+00  0.000E+00  0.000E+00  4.65085E+01  1.562E-01  2.000E+01  2.000E+04 -2.130E-01
   1   16    6     1     6    1.1581E+05 -2.5117E+03   1.1833E+05  0.000E+00  0.000E+00  0.000E+00  4.60340E+01  1.590E-01  2.000E+01  2.000E+04 -1.256E-01
   1   16    7     1     7    1.1833E+05 -2.4183E+03   1.2074E+05  0.000E+00  0.000E+00  0.000E+00  4.55587E+01  1.610E-01  2.000E+01  2.000E+04 -1.209E-01
   1   16    8     1     8    1.2074E+05 -2.3903E+03   1.2313E+05  0.000E+00  0.000E+00  0.000E+00  4.50834E+01  1.629E-01  2.000E+01  2.000E+04 -1.195E-01
   1   16    9     1     9    1.2313E+05 -2.3711E+03   1.2551E+05  0.000E+00  0.000E+00  0.000E+00  4.46080E+01  1.648E-01  2.000E+01  2.000E+04 -1.186E-01
   1   16   10     1    10    1.2551E+05 -2.3487E+03   1.2785E+05  0.000E+00  0.000E+00  0.000E+00  4.41326E+01  1.667E-01  2.000E+01  2.000E+04 -1.174E-01
   1   16   11     1    11    1.2785E+05 -2.3576E+03   1.3021E+05  0.000E+00  0.000E+00  0.000E+00  4.36572E+01  1.686E-01  2.000E+01  2.000E+04 -1.179E-01
   1   16   12     1    12    1.3021E+05 -4.1546E+03   1.3437E+05  0.000E+00  0.000E+00  0.000E+00  4.31825E+01  1.711E-01  2.000E+01  2.000E+04 -2.077E-01
   1   15   13     1    13    1.3437E+05 -4.1438E+03   1.3851E+05  0.000E+00  0.000E+00  0.000E+00  4.27084E+01  1.743E-01  2.000E+01  2.000E+04 -2.072E-01
   1   14   14     1    14    1.3851E+05 -4.5382E+03   1.4305E+05  0.000E+00  0.000E+00  0.000E+00  4.22344E+01  1.776E-01  2.000E+01  2.000E+04 -2.269E-01
   1   13   15     1    15    1.4305E+05 -4.8974E+03   1.4795E+05  0.000E+00  0.000E+00  0.000E+00  4.17607E+01  1.811E-01  2.000E+01  2.000E+04 -2.449E-01
   1   12   16     1    16    1.4795E+05 -5.7327E+03   1.5368E+05  0.000E+00  0.000E+00  0.000E+00  4.12874E+01  1.851E-01  2.000E+01  2.000E+04 -2.866E-01
   1   12   17     1    17    1.5368E+05 -3.7706E+03   1.5745E+05  0.000E+00  0.000E+00  0.000E+00  4.08136E+01  1.886E-01  2.000E+01  2.000E+04 -1.885E-01
   1   12   18     1    18    1.5745E+05 -3.5173E+03   1.6097E+05  0.000E+00  0.000E+00  0.000E+00  4.03389E+01  1.912E-01  2.000E+01  2.000E+04 -1.759E-01
   1   12   19     1    19    1.6097E+05 -3.8261E+03   1.6479E+05  0.000E+00  0.000E+00  0.000E+00  3.98643E+01  1.938E-01  2.000E+01  2.000E+04 -1.913E-01
   1   13   20     1    20    1.6479E+05 -1.6628E+03   1.6646E+05  0.000E+00  0.000E+00  0.000E+00  3.93890E+01  1.958E-01  2.000E+01  2.000E+04 -8.314E-02
   1   14   21     1    21    1.6646E+05 -2.0821E+03   1.6854E+05  0.000E+00  0.000E+00  0.000E+00  3.89130E+01  1.971E-01  2.000E+01  2.000E+04 -1.041E-01
   1   14   22     1    22    1.6854E+05  6.2403E+03   1.6230E+05  0.000E+00  0.000E+00  0.000E+00  3.84343E+01  1.956E-01  2.000E+01  2.000E+04  3.120E-01
   1    9   30     2     1    5.0000E+04 -1.8646E+03   5.1865E+04  0.000E+00  0.000E+00  0.000E+00  4.02422E+01  1.172E-01  2.000E+01  2.000E+04 -9.323E-02
   1    9   29     2     2    5.1865E+04 -2.1834E+03   5.4048E+04  0.000E+00  0.000E+00  0.000E+00  3.99949E+01  1.199E-01  2.000E+01  2.000E+04 -1.092E-01
   1    9   28     2     3    5.4048E+04 -2.4952E+03   5.6543E+04  0.000E+00  0.000E+00  0.000E+00  3.97481E+01  1.231E-01  2.000E+01  2.000E+04 -1.248E-01
   1    9   27     2     4    5.6543E+04 -4.3728E+03   6.0916E+04  0.000E+00  0.000E+00  0.000E+00  3.95026E+01  1.276E-01  2.000E+01  2.000E+04 -2.186E-01
   1   10   26     2     5    6.0916E+04 -2.6232E+03   6.3539E+04  0.000E+00  0.000E+00  0.000E+00  3.92571E+01  1.321E-01  2.000E+01  2.000E+04 -1.312E-01
   1   11   25     2     6    6.3539E+04  1.6204E+03   6.1919E+04  0.000E+00  0.000E+00  0.000E+00  3.90078E+01  1.328E-01  2.000E+01  2.000E+04  8.102E-02
   1   12   24     2     7    6.1919E+04  2.5401E+03   5.9379E+04  0.000E+00  0.000E+00  0.000E+00  3.87551E+01  1.301E-01  2.000E+01  2.000E+04  1.270E-01
   1   13   23     2     8    5.9379E+04  6.0587E+02   5.8773E+04  0.000E+00  0.000E+00  0.000E+00  3.85031E+01  1.281E-01  2.000E+01  2.000E+04  3.029E-02
   1   14   22     2     9    5.8773E+04  2.5743E+03   5.6198E+04  0.000E+00  0.000E+00  0.000E+00  3.82510E+01  1.260E-01  2.000E+01  2.000E+04  1.287E-01
   1   14   22     3     1    2.1850E+05 -7.4580E+03   2.2595E+05  0.000E+00  0.000E+00  0.000E+00  3.77494E+01  1.938E-01  2.000E+01  2.000E+04 -3.729E-01
   1   15   23     3     2    2.2595E+05 -1.0286E+03   2.2698E+05  0.000E+00  0.000E+00  0.000E+00  3.68627E+01  1.960E-01  2.000E+01  2.000E+04 -5.143E-02
   1   15   24     3     3    2.2698E+05 -6.4706E+02   2.2763E+05  0.000E+00  0.000E+00  0.000E+00  3.59742E+01  1.965E-01  2.000E+01  2.000E+04 -3.235E-02
   1   15   25     3     4    2.2763E+05 -6.4438E+02   2.2827E+05  0.000E+00  0.000E+00  0.000E+00  3.50857E+01  1.968E-01  2.000E+01  2.000E+04 -3.222E-02
   1   15   26     3     5    2.2827E+05 -6.5387E+02   2.2893E+05  0.000E+00  0.000E+00  0.000E+00  3.41971E+01  1.971E-01  2.000E+01  2.000E+04 -3.269E-02
   1   16   27     3     6    2.2893E+05 -4.9781E+02   2.2943E+05  0.000E+00  0.000E+00  0.000E+00  3.33085E+01  1.974E-01  2.000E+01  2.000E+04 -2.489E-02
   1   17   28     3     7    2.2943E+05  4.8685E+03   2.2456E+05  0.000E+00  0.000E+00  0.000E+00  3.24185E+01  1.963E-01  2.000E+01  2.000E+04  2.434E-01
   1   18   29     3     8    2.2456E+05  6.4822E+03   2.1807E+05  0.000E+00  0.000E+00  0.000E+00  3.15267E+01  1.933E-01  2.000E+01  2.000E+04  3.241E-01
   1   18   30     3     9    2.1807E+05  9.6333E+02   2.1711E+05  0.000E+00  0.000E+00  0.000E+00  3.06358E+01  1.914E-01  2.000E+01  2.000E+04  4.817E-02



1
              HEAD IN LAYER   1 AT END OF TIME STEP   1 IN STRESS PERIOD    2
  ---------------------------------------------------------------------------

          1      2      3      4      5      6      7      8      9     10
         11     12     13     14     15     16     17     18     19     20
         21     22     23     24     25     26     27     28     29     30
 .........................................................................
   1  ****** ****** ****** ****** ****** ****** ****** ****** ****** ******
      ****** ****** ****** ****** ****** ****** ****** ****** ****** ******
      ****** ****** ****** ****** ****** ****** ****** ****** ****** ******
   2  ****** ****** ****** ****** ****** ****** ****** ****** ****** ******
      ****** ****** ****** ****** ****** ****** ****** ****** ****** ******
      ****** ****** ****** ****** ****** ****** ****** ****** ****** ******
   3  ****** ****** ****** ****** ****** ****** ****** ****** ****** ******
      ****** ****** ****** ****** ****** ****** ****** ****** ****** ******
      ****** ****** ****** ****** ****** ****** ****** ****** ****** ******
   4  ****** ****** ****** ****** ****** ****** ****** ****** ****** ******
      ****** ****** ****** ****** ****** ****** ****** ****** ****** ******
      ****** ****** ****** ****** ****** ****** ****** ****** ****** ******
   5  ****** ****** ****** ****** ****** ****** ****** ****** ****** ******
      ****** ****** ****** ****** ****** ****** ****** ****** ****** ******
      ****** ****** ****** ****** ****** ****** ****** ****** ****** ******
   6  ****** ****** ****** ****** ****** ****** ****** ****** ****** ******
      ****** ****** ****** ****** ****** ****** ****** ****** ****** ******
      ****** ****** ****** ****** ****** ****** ****** ****** ****** ******
   7  ****** ****** ****** ****** ****** ****** ****** ****** ****** ******
      ****** ****** ****** ****** ****** ****** ****** ****** ****** ******
      ****** ****** ****** ****** ****** ****** ****** ****** ****** ******
   8  ****** ****** ****** ****** ****** ****** ****** ****** ****** ******
      ****** ****** ****** ****** ****** ****** ****** ****** ****** ******
      ****** ****** ****** ****** ****** ****** ****** ****** ****** ******
   9  ****** ****** ****** ****** ****** ****** ****** ****** ****** ******
      ****** ****** ****** ****** ****** ****** ****** ****** ****** ******
      ****** ****** ****** ****** ****** ****** ****** ****** ****** ******
  10  ****** ****** ****** ****** ****** ****** ****** ****** ****** ******
      ****** ****** ****** ****** ****** ****** ****** ****** ****** ******
      ****** ****** ****** ****** ****** ****** ****** ****** ****** ******
  11  ****** ****** ****** ****** ****** ****** ****** ****** ****** ******
      ****** ****** ****** ****** ****** ****** ****** ****** ****** ******
      ****** ****** ****** ****** ****** ****** ****** ****** ****** ******
  12  ****** ****** ****** ****** ****** ****** ****** ****** ****** ******
      ****** ****** ****** ****** ****** ****** ****** ****** ****** ******
      ****** ****** ****** ****** ****** ****** ****** ****** ****** ******
  13  ****** ****** ****** ****** ****** ****** ****** ****** ****** ******
      ****** ****** ****** ****** ****** ****** ****** ****** ****** ******
      ****** ****** ****** ****** ****** ****** ****** ****** ****** ******
  14  ****** ****** ****** ****** ****** ****** ****** ****** ****** ******
      ****** ****** ****** ****** ****** ****** ****** ****** ****** ******
      ****** ****** ****** ****** ****** ****** ****** ****** ****** ******
  15  ****** ****** ****** ****** ****** ****** ****** ****** ****** ******
      ****** ****** ****** ****** ****** ****** ****** ****** ****** ******
      ****** ****** ****** ****** ****** ****** ****** ****** ****** ******
  16  ****** ****** ****** ****** ****** ****** ****** ****** ****** ******
      ****** ****** ****** ****** ****** ****** ****** ****** ****** ******
      ****** ****** ****** ****** ****** ****** ****** ****** ****** ******
  17  ****** ****** ****** ****** ****** ****** ****** ****** ****** ******
      ****** ****** ****** ****** ****** ****** ****** ****** ****** ******
      ****** ****** ****** ****** ****** ****** ****** ****** ****** ******
  18  ****** ****** ****** ****** ****** ****** ****** ****** ****** ******
      ****** ****** ****** ****** ****** ****** ****** ****** ****** ******
      ****** ****** ****** ****** ****** ****** ****** ****** ****** ******
  19  ****** ****** ****** ****** ****** ****** ****** ****** ****** ******
      ****** ****** ****** ****** ****** ****** ****** ****** ****** ******
      ****** ****** ****** ****** ****** ****** ****** ****** ****** ******
  20  ****** ****** ****** ****** ****** ****** ****** ****** ****** ******
      ****** ****** ****** ****** ****** ****** ****** ****** ****** ******
      ****** ****** ****** ****** ****** ****** ****** ****** ****** ******
  21  ****** ****** ****** ****** ****** ****** ****** ****** ****** ******
      ****** ****** ****** ****** ****** ****** ****** ****** ****** ******
      ****** ****** ****** ****** ****** ****** ****** ****** ****** ******
  22  ****** ****** ****** ****** ****** ****** ****** ****** ****** ******
      ****** ****** ****** ****** ****** ****** ****** ****** ****** ******
      ****** ****** ****** ****** ****** ****** ****** ****** ****** ******
  23  ****** ****** ****** ****** ****** ****** ****** ****** ****** ******
      ****** ****** ****** ****** ****** ****** ****** ****** ****** ******
      ****** ****** ****** ****** ****** ****** ****** ****** ****** ******
  24  ****** ****** ****** ****** ****** ****** ****** ****** ****** ******
      ****** ****** ****** ****** ****** ****** ****** ****** ****** ******
      ****** ****** ****** ****** ****** ****** ****** ****** ****** ******
  25  ****** ****** ****** ****** ****** ****** ****** ****** ****** ******
      ****** ****** ****** ****** ****** ****** ****** ****** ****** ******
      ****** ****** ****** ****** ****** ****** ****** ****** ****** ******

 HEAD WILL BE SAVED ON UNIT   51 AT END OF TIME STEP    1, STRESS PERIOD    2
1
  VOLUMETRIC BUDGET FOR ENTIRE MODEL AT END OF TIME STEP    1, STRESS PERIOD   2
  ------------------------------------------------------------------------------

     CUMULATIVE VOLUMES      L**3       RATES FOR THIS TIME STEP      L**3/T
     ------------------                 ------------------------

           IN:                                      IN:
           ---                                      ---
             STORAGE =    21818555.6406               STORAGE =       50173.3354
       CONSTANT HEAD =     2600890.5178         CONSTANT HEAD =       16287.6815
               WELLS =           0.0000                 WELLS =           0.0000
            RECHARGE =     6292800.0000              RECHARGE =       55200.0000
      STREAM LEAKAGE =     3363315.0615        STREAM LEAKAGE =       25895.0047

            TOTAL IN =    34075561.2199              TOTAL IN =      147556.0216

          OUT:                                     OUT:
          ----                                     ----
             STORAGE =           0.0000               STORAGE =           0.0000
       CONSTANT HEAD =           0.0000         CONSTANT HEAD =           0.0000
               WELLS =     9982646.6405                 WELLS =       54549.9816
            RECHARGE =           0.0000              RECHARGE =           0.0000
      STREAM LEAKAGE =    24092915.7874        STREAM LEAKAGE =       93006.0501

           TOTAL OUT =    34075562.4279             TOTAL OUT =      147556.0317

            IN - OUT =          -1.2080              IN - OUT =      -1.0101E-02

 PERCENT DISCREPANCY =          -0.00     PERCENT DISCREPANCY =          -0.00






         TIME SUMMARY AT END OF TIME STEP    1 IN STRESS PERIOD    2
                    SECONDS     MINUTES      HOURS       DAYS        YEARS
                    -----------------------------------------------------------
   TIME STEP LENGTH 7.86240E+06 1.31040E+05  2184.0      91.000     0.24914    
 STRESS PERIOD TIME 7.86240E+06 1.31040E+05  2184.0      91.000     0.24914    
         TOTAL TIME 1.58112E+07 2.63520E+05  4392.0      183.00     0.50103    
1
1
                            STRESS PERIOD NO.    3, LENGTH =   91.00000    
                            -----------------------------------------------

                              NUMBER OF TIME STEPS =     1

                               MULTIPLIER FOR DELT =     1.500

                            INITIAL TIME STEP SIZE =   91.00000    

 WELL NO.  LAYER   ROW   COL   STRESS RATE         
 --------------------------------------------------
      1      1     19     29     -0.1190E+05
      2      1     13     22     -0.1207E+05
      3      1     11     24     -0.1308E+05
      4      1     17     29     -0.1750E+05

      4 WELLS

                 RECHARGE =   0.00000    

 REUSING STREAM SEGMENT DATA FROM LAST STRESS PERIOD
 
 SOLVING FOR HEAD 


     7 CALLS TO PCG ROUTINE FOR TIME STEP   1 IN STRESS PERIOD    3
    27 TOTAL ITERATIONS

 OUTPUT CONTROL FOR STRESS PERIOD    3   TIME STEP    1
    SAVE BUDGET
    SAVE HEAD FOR ALL LAYERS
    PRINT HEAD FOR ALL LAYERS
 UBDSV2 SAVING "STREAMFLOW OUT  " ON UNIT  50 AT TIME STEP  1, STRESS PERIOD   3



 STREAM LISTING     PERIOD      3   STEP        1

 LAYER ROW COL. STREAM  RCH.  FLOW INTO     FLOW TO   FLOW OUT OF   OVRLND.     DIRECT     STREAM       STREAM     STREAM     STREAM   STREAMBED  STREAMBED
                SEG.NO.  NO.  STRM. RCH.    AQUIFER    STRM. RCH.    RUNOFF     PRECIP       ET          HEAD       DEPTH      WIDTH   CONDCTNC.   GRADIENT

   1   13    1     1     1    1.0000E+05 -2.7765E+03   1.0278E+05  0.000E+00  0.000E+00  0.000E+00  4.84072E+01  1.459E-01  2.000E+01  2.000E+04 -1.388E-01
   1   13    2     1     2    1.0278E+05 -3.8865E+03   1.0666E+05  0.000E+00  0.000E+00  0.000E+00  4.79328E+01  1.487E-01  2.000E+01  2.000E+04 -1.943E-01
   1   14    3     1     3    1.0666E+05 -6.5770E+02   1.0732E+05  0.000E+00  0.000E+00  0.000E+00  4.74575E+01  1.506E-01  2.000E+01  2.000E+04 -3.289E-02
   1   15    4     1     4    1.0732E+05 -6.4126E+02   1.0796E+05  0.000E+00  0.000E+00  0.000E+00  4.69807E+01  1.512E-01  2.000E+01  2.000E+04 -3.206E-02
   1   16    5     1     5    1.0796E+05 -2.4696E+03   1.1043E+05  0.000E+00  0.000E+00  0.000E+00  4.65048E+01  1.525E-01  2.000E+01  2.000E+04 -1.235E-01
   1   16    6     1     6    1.1043E+05 -1.5124E+03   1.1194E+05  0.000E+00  0.000E+00  0.000E+00  4.60292E+01  1.542E-01  2.000E+01  2.000E+04 -7.562E-02
   1   16    7     1     7    1.1194E+05 -1.4773E+03   1.1342E+05  0.000E+00  0.000E+00  0.000E+00  4.55531E+01  1.554E-01  2.000E+01  2.000E+04 -7.387E-02
   1   16    8     1     8    1.1342E+05 -1.4677E+03   1.1489E+05  0.000E+00  0.000E+00  0.000E+00  4.50771E+01  1.566E-01  2.000E+01  2.000E+04 -7.338E-02
   1   16    9     1     9    1.1489E+05 -1.4533E+03   1.1634E+05  0.000E+00  0.000E+00  0.000E+00  4.46010E+01  1.578E-01  2.000E+01  2.000E+04 -7.266E-02
   1   16   10     1    10    1.1634E+05 -1.4316E+03   1.1777E+05  0.000E+00  0.000E+00  0.000E+00  4.41249E+01  1.590E-01  2.000E+01  2.000E+04 -7.158E-02
   1   16   11     1    11    1.1777E+05 -1.4350E+03   1.1921E+05  0.000E+00  0.000E+00  0.000E+00  4.36488E+01  1.602E-01  2.000E+01  2.000E+04 -7.175E-02
   1   16   12     1    12    1.1921E+05 -2.5543E+03   1.2176E+05  0.000E+00  0.000E+00  0.000E+00  4.31731E+01  1.618E-01  2.000E+01  2.000E+04 -1.277E-01
   1   15   13     1    13    1.2176E+05 -2.5098E+03   1.2427E+05  0.000E+00  0.000E+00  0.000E+00  4.26979E+01  1.638E-01  2.000E+01  2.000E+04 -1.255E-01
   1   14   14     1    14    1.2427E+05 -2.8624E+03   1.2714E+05  0.000E+00  0.000E+00  0.000E+00  4.22228E+01  1.659E-01  2.000E+01  2.000E+04 -1.431E-01
   1   13   15     1    15    1.2714E+05 -3.2215E+03   1.3036E+05  0.000E+00  0.000E+00  0.000E+00  4.17479E+01  1.683E-01  2.000E+01  2.000E+04 -1.611E-01
   1   12   16     1    16    1.3036E+05 -4.0017E+03   1.3436E+05  0.000E+00  0.000E+00  0.000E+00  4.12734E+01  1.711E-01  2.000E+01  2.000E+04 -2.001E-01
   1   12   17     1    17    1.3436E+05 -2.5129E+03   1.3687E+05  0.000E+00  0.000E+00  0.000E+00  4.07987E+01  1.737E-01  2.000E+01  2.000E+04 -1.256E-01
   1   12   18     1    18    1.3687E+05 -2.2740E+03   1.3915E+05  0.000E+00  0.000E+00  0.000E+00  4.03232E+01  1.755E-01  2.000E+01  2.000E+04 -1.137E-01
   1   12   19     1    19    1.3915E+05 -2.2547E+03   1.4140E+05  0.000E+00  0.000E+00  0.000E+00  3.98477E+01  1.772E-01  2.000E+01  2.000E+04 -1.127E-01
   1   13   20     1    20    1.4140E+05 -2.1462E+02   1.4161E+05  0.000E+00  0.000E+00  0.000E+00  3.93713E+01  1.782E-01  2.000E+01  2.000E+04 -1.073E-02
   1   14   21     1    21    1.4161E+05 -6.0854E+02   1.4222E+05  0.000E+00  0.000E+00  0.000E+00  3.88944E+01  1.785E-01  2.000E+01  2.000E+04 -3.043E-02
   1   14   22     1    22    1.4222E+05  6.6107E+03   1.3561E+05  0.000E+00  0.000E+00  0.000E+00  3.84148E+01  1.762E-01  2.000E+01  2.000E+04  3.305E-01
   1    9   30     2     1    5.0000E+04 -6.4814E+02   5.0648E+04  0.000E+00  0.000E+00  0.000E+00  4.02413E+01  1.163E-01  2.000E+01  2.000E+04 -3.241E-02
   1    9   29     2     2    5.0648E+04 -9.6994E+02   5.1618E+04  0.000E+00  0.000E+00  0.000E+00  3.99924E+01  1.174E-01  2.000E+01  2.000E+04 -4.850E-02
   1    9   28     2     3    5.1618E+04 -1.2712E+03   5.2889E+04  0.000E+00  0.000E+00  0.000E+00  3.97440E+01  1.190E-01  2.000E+01  2.000E+04 -6.356E-02
   1    9   27     2     4    5.2889E+04 -2.6202E+03   5.5510E+04  0.000E+00  0.000E+00  0.000E+00  3.94966E+01  1.216E-01  2.000E+01  2.000E+04 -1.310E-01
   1   10   26     2     5    5.5510E+04 -9.7724E+02   5.6487E+04  0.000E+00  0.000E+00  0.000E+00  3.92490E+01  1.240E-01  2.000E+01  2.000E+04 -4.886E-02
   1   11   25     2     6    5.6487E+04  3.1560E+03   5.3331E+04  0.000E+00  0.000E+00  0.000E+00  3.89976E+01  1.226E-01  2.000E+01  2.000E+04  1.578E-01
   1   12   24     2     7    5.3331E+04  3.9109E+03   4.9420E+04  0.000E+00  0.000E+00  0.000E+00  3.87428E+01  1.178E-01  2.000E+01  2.000E+04  1.955E-01
   1   13   23     2     8    4.9420E+04  9.4426E+02   4.8476E+04  0.000E+00  0.000E+00  0.000E+00  3.84894E+01  1.144E-01  2.000E+01  2.000E+04  4.721E-02
   1   14   22     2     9    4.8476E+04  3.0457E+03   4.5430E+04  0.000E+00  0.000E+00  0.000E+00  3.82366E+01  1.116E-01  2.000E+01  2.000E+04  1.523E-01
   1   14   22     3     1    1.8104E+05 -7.1068E+03   1.8815E+05  0.000E+00  0.000E+00  0.000E+00  3.77289E+01  1.734E-01  2.000E+01  2.000E+04 -3.553E-01
   1   15   23     3     2    1.8815E+05 -6.3470E+02   1.8878E+05  0.000E+00  0.000E+00  0.000E+00  3.68422E+01  1.756E-01  2.000E+01  2.000E+04 -3.174E-02
   1   15   24     3     3    1.8878E+05 -3.2085E+02   1.8910E+05  0.000E+00  0.000E+00  0.000E+00  3.59536E+01  1.758E-01  2.000E+01  2.000E+04 -1.604E-02
   1   15   25     3     4    1.8910E+05 -2.9966E+02   1.8940E+05  0.000E+00  0.000E+00  0.000E+00  3.50649E+01  1.760E-01  2.000E+01  2.000E+04 -1.498E-02
   1   15   26     3     5    1.8940E+05 -2.3844E+02   1.8964E+05  0.000E+00  0.000E+00  0.000E+00  3.41762E+01  1.762E-01  2.000E+01  2.000E+04 -1.192E-02
   1   16   27     3     6    1.8964E+05 -1.3839E+01   1.8966E+05  0.000E+00  0.000E+00  0.000E+00  3.32873E+01  1.762E-01  2.000E+01  2.000E+04 -6.920E-04
   1   17   28     3     7    1.8966E+05  6.3785E+03   1.8328E+05  0.000E+00  0.000E+00  0.000E+00  3.23967E+01  1.744E-01  2.000E+01  2.000E+04  3.189E-01
   1   18   29     3     8    1.8328E+05  8.1436E+03   1.7513E+05  0.000E+00  0.000E+00  0.000E+00  3.15037E+01  1.703E-01  2.000E+01  2.000E+04  4.072E-01
   1   18   30     3     9    1.7513E+05  2.2056E+03   1.7293E+05  0.000E+00  0.000E+00  0.000E+00  3.06118E+01  1.674E-01  2.000E+01  2.000E+04  1.103E-01



1
              HEAD IN LAYER   1 AT END OF TIME STEP   1 IN STRESS PERIOD    3
  ---------------------------------------------------------------------------

          1      2      3      4      5      6      7      8      9     10
         11     12     13     14     15     16     17     18     19     20
         21     22     23     24     25     26     27     28     29     30
 .........................................................................
   1  ****** ****** ****** ****** ****** ****** ****** ****** ****** ******
      ****** ****** ****** ****** ****** ****** ****** ****** ****** ******
      ****** ****** ****** ****** ****** ****** ****** ****** ****** ******
   2  ****** ****** ****** ****** ****** ****** ****** ****** ****** ******
      ****** ****** ****** ****** ****** ****** ****** ****** ****** ******
      ****** ****** ****** ****** ****** ****** ****** ****** ****** ******
   3  ****** ****** ****** ****** ****** ****** ****** ****** ****** ******
      ****** ****** ****** ****** ****** ****** ****** ****** ****** ******
      ****** ****** ****** ****** ****** ****** ****** ****** ****** ******
   4  ****** ****** ****** ****** ****** ****** ****** ****** ****** ******
      ****** ****** ****** ****** ****** ****** ****** ****** ****** ******
      ****** ****** ****** ****** ****** ****** ****** ****** ****** ******
   5  ****** ****** ****** ****** ****** ****** ****** ****** ****** ******
      ****** ****** ****** ****** ****** ****** ****** ****** ****** ******
      ****** ****** ****** ****** ****** ****** ****** ****** ****** ******
   6  ****** ****** ****** ****** ****** ****** ****** ****** ****** ******
      ****** ****** ****** ****** ****** ****** ****** ****** ****** ******
      ****** ****** ****** ****** ****** ****** ****** ****** ****** ******
   7  ****** ****** ****** ****** ****** ****** ****** ****** ****** ******
      ****** ****** ****** ****** ****** ****** ****** ****** ****** ******
      ****** ****** ****** ****** ****** ****** ****** ****** ****** ******
   8  ****** ****** ****** ****** ****** ****** ****** ****** ****** ******
      ****** ****** ****** ****** ****** ****** ****** ****** ****** ******
      ****** ****** ****** ****** ****** ****** ****** ****** ****** ******
   9  ****** ****** ****** ****** ****** ****** ****** ****** ****** ******
      ****** ****** ****** ****** ****** ****** ****** ****** ****** ******
      ****** ****** ****** ****** ****** ****** ****** ****** ****** ******
  10  ****** ****** ****** ****** ****** ****** ****** ****** ****** ******
      ****** ****** ****** ****** ****** ****** ****** ****** ****** ******
      ****** ****** ****** ****** ****** ****** ****** ****** ****** ******
  11  ****** ****** ****** ****** ****** ****** ****** ****** ****** ******
      ****** ****** ****** ****** ****** ****** ****** ****** ****** ******
      ****** ****** ****** ****** ****** ****** ****** ****** ****** ******
  12  ****** ****** ****** ****** ****** ****** ****** ****** ****** ******
      ****** ****** ****** ****** ****** ****** ****** ****** ****** ******
      ****** ****** ****** ****** ****** ****** ****** ****** ****** ******
  13  ****** ****** ****** ****** ****** ****** ****** ****** ****** ******
      ****** ****** ****** ****** ****** ****** ****** ****** ****** ******
      ****** ****** ****** ****** ****** ****** ****** ****** ****** ******
  14  ****** ****** ****** ****** ****** ****** ****** ****** ****** ******
      ****** ****** ****** ****** ****** ****** ****** ****** ****** ******
      ****** ****** ****** ****** ****** ****** ****** ****** ****** ******
  15  ****** ****** ****** ****** ****** ****** ****** ****** ****** ******
      ****** ****** ****** ****** ****** ****** ****** ****** ****** ******
      ****** ****** ****** ****** ****** ****** ****** ****** ****** ******
  16  ****** ****** ****** ****** ****** ****** ****** ****** ****** ******
      ****** ****** ****** ****** ****** ****** ****** ****** ****** ******
      ****** ****** ****** ****** ****** ****** ****** ****** ****** ******
  17  ****** ****** ****** ****** ****** ****** ****** ****** ****** ******
      ****** ****** ****** ****** ****** ****** ****** ****** ****** ******
      ****** ****** ****** ****** ****** ****** ****** ****** ****** ******
  18  ****** ****** ****** ****** ****** ****** ****** ****** ****** ******
      ****** ****** ****** ****** ****** ****** ****** ****** ****** ******
      ****** ****** ****** ****** ****** ****** ****** ****** ****** ******
  19  ****** ****** ****** ****** ****** ****** ****** ****** ****** ******
      ****** ****** ****** ****** ****** ****** ****** ****** ****** ******
      ****** ****** ****** ****** ****** ****** ****** ****** ****** ******
  20  ****** ****** ****** ****** ****** ****** ****** ****** ****** ******
      ****** ****** ****** ****** ****** ****** ****** ****** ****** ******
      ****** ****** ****** ****** ****** ****** ****** ****** ****** ******
  21  ****** ****** ****** ****** ****** ****** ****** ****** ****** ******
      ****** ****** ****** ****** ****** ****** ****** ****** ****** ******
      ****** ****** ****** ****** ****** ****** ****** ****** ****** ******
  22  ****** ****** ****** ****** ****** ****** ****** ****** ****** ******
      ****** ****** ****** ****** ****** ****** ****** ****** ****** ******
      ****** ****** ****** ****** ****** ****** ****** ****** ****** ******
  23  ****** ****** ****** ****** ****** ****** ****** ****** ****** ******
      ****** ****** ****** ****** ****** ****** ****** ****** ****** ******
      ****** ****** ****** ****** ****** ****** ****** ****** ****** ******
  24  ****** ****** ****** ****** ****** ****** ****** ****** ****** ******
      ****** ****** ****** ****** ****** ****** ****** ****** ****** ******
      ****** ****** ****** ****** ****** ****** ****** ****** ****** ******
  25  ****** ****** ****** ****** ****** ****** ****** ****** ****** ******
      ****** ****** ****** ****** ****** ****** ****** ****** ****** ******
      ****** ****** ****** ****** ****** ****** ****** ****** ****** ******

 HEAD WILL BE SAVED ON UNIT   51 AT END OF TIME STEP    1, STRESS PERIOD    3
1
  VOLUMETRIC BUDGET FOR ENTIRE MODEL AT END OF TIME STEP    1, STRESS PERIOD   3
  ------------------------------------------------------------------------------

     CUMULATIVE VOLUMES      L**3       RATES FOR THIS TIME STEP      L**3/T
     ------------------                 ------------------------

           IN:                                      IN:
           ---                                      ---
             STORAGE =    26633947.2943               STORAGE =       52916.3918
       CONSTANT HEAD =     4836079.9013         CONSTANT HEAD =       24562.5207
               WELLS =           0.0000                 WELLS =           0.0000
            RECHARGE =     6292800.0000              RECHARGE =           0.0000
      STREAM LEAKAGE =     6493289.9492        STREAM LEAKAGE =       34395.3284

            TOTAL IN =    44256117.1447              TOTAL IN =      111874.2409

          OUT:                                     OUT:
          ----                                     ----
             STORAGE =           0.0000               STORAGE =           0.0000
       CONSTANT HEAD =           0.0000         CONSTANT HEAD =           0.0000
               WELLS =    14946694.9699                 WELLS =       54549.9816
            RECHARGE =           0.0000              RECHARGE =           0.0000
      STREAM LEAKAGE =    29309424.0458        STREAM LEAKAGE =       57324.2666

           TOTAL OUT =    44256119.0156             TOTAL OUT =      111874.2482

            IN - OUT =          -1.8709              IN - OUT =      -7.2846E-03

 PERCENT DISCREPANCY =          -0.00     PERCENT DISCREPANCY =          -0.00






         TIME SUMMARY AT END OF TIME STEP    1 IN STRESS PERIOD    3
                    SECONDS     MINUTES      HOURS       DAYS        YEARS
                    -----------------------------------------------------------
   TIME STEP LENGTH 7.86240E+06 1.31040E+05  2184.0      91.000     0.24914    
 STRESS PERIOD TIME 7.86240E+06 1.31040E+05  2184.0      91.000     0.24914    
         TOTAL TIME 2.36736E+07 3.94560E+05  6576.0      274.00     0.75017    
1
1
                            STRESS PERIOD NO.    4, LENGTH =   91.00000    
                            -----------------------------------------------

                              NUMBER OF TIME STEPS =     1

                               MULTIPLIER FOR DELT =     1.500

                            INITIAL TIME STEP SIZE =   91.00000    

 WELL NO.  LAYER   ROW   COL   STRESS RATE         
 --------------------------------------------------
      1      1     19     29     -0.1190E+05
      2      1     13     22     -0.1207E+05
      3      1     11     24     -0.1308E+05
      4      1     17     29     -0.1750E+05

      4 WELLS

                 RECHARGE =  1.000000E-03

 REUSING STREAM SEGMENT DATA FROM LAST STRESS PERIOD
 
 SOLVING FOR HEAD 


     7 CALLS TO PCG ROUTINE FOR TIME STEP   1 IN STRESS PERIOD    4
    24 TOTAL ITERATIONS

 OUTPUT CONTROL FOR STRESS PERIOD    4   TIME STEP    1
    SAVE BUDGET
    SAVE HEAD FOR ALL LAYERS
    PRINT HEAD FOR ALL LAYERS
 UBDSV2 SAVING "STREAMFLOW OUT  " ON UNIT  50 AT TIME STEP  1, STRESS PERIOD   4



 STREAM LISTING     PERIOD      4   STEP        1

 LAYER ROW COL. STREAM  RCH.  FLOW INTO     FLOW TO   FLOW OUT OF   OVRLND.     DIRECT     STREAM       STREAM     STREAM     STREAM   STREAMBED  STREAMBED
                SEG.NO.  NO.  STRM. RCH.    AQUIFER    STRM. RCH.    RUNOFF     PRECIP       ET          HEAD       DEPTH      WIDTH   CONDCTNC.   GRADIENT

   1   13    1     1     1    1.0000E+05 -2.5539E+03   1.0255E+05  0.000E+00  0.000E+00  0.000E+00  4.84071E+01  1.458E-01  2.000E+01  2.000E+04 -1.277E-01
   1   13    2     1     2    1.0255E+05 -3.6270E+03   1.0618E+05  0.000E+00  0.000E+00  0.000E+00  4.79325E+01  1.484E-01  2.000E+01  2.000E+04 -1.813E-01
   1   14    3     1     3    1.0618E+05 -6.3099E+02   1.0681E+05  0.000E+00  0.000E+00  0.000E+00  4.74570E+01  1.502E-01  2.000E+01  2.000E+04 -3.155E-02
   1   15    4     1     4    1.0681E+05 -6.0460E+02   1.0742E+05  0.000E+00  0.000E+00  0.000E+00  4.69803E+01  1.507E-01  2.000E+01  2.000E+04 -3.023E-02
   1   16    5     1     5    1.0742E+05 -2.1738E+03   1.0959E+05  0.000E+00  0.000E+00  0.000E+00  4.65042E+01  1.519E-01  2.000E+01  2.000E+04 -1.087E-01
   1   16    6     1     6    1.0959E+05 -1.3681E+03   1.1096E+05  0.000E+00  0.000E+00  0.000E+00  4.60284E+01  1.534E-01  2.000E+01  2.000E+04 -6.840E-02
   1   16    7     1     7    1.1096E+05 -1.3446E+03   1.1230E+05  0.000E+00  0.000E+00  0.000E+00  4.55523E+01  1.545E-01  2.000E+01  2.000E+04 -6.723E-02
   1   16    8     1     8    1.1230E+05 -1.3396E+03   1.1364E+05  0.000E+00  0.000E+00  0.000E+00  4.50761E+01  1.556E-01  2.000E+01  2.000E+04 -6.698E-02
   1   16    9     1     9    1.1364E+05 -1.3285E+03   1.1497E+05  0.000E+00  0.000E+00  0.000E+00  4.45999E+01  1.567E-01  2.000E+01  2.000E+04 -6.642E-02
   1   16   10     1    10    1.1497E+05 -1.3106E+03   1.1628E+05  0.000E+00  0.000E+00  0.000E+00  4.41237E+01  1.578E-01  2.000E+01  2.000E+04 -6.553E-02
   1   16   11     1    11    1.1628E+05 -1.3147E+03   1.1760E+05  0.000E+00  0.000E+00  0.000E+00  4.36475E+01  1.589E-01  2.000E+01  2.000E+04 -6.573E-02
   1   16   12     1    12    1.1760E+05 -2.3015E+03   1.1990E+05  0.000E+00  0.000E+00  0.000E+00  4.31717E+01  1.604E-01  2.000E+01  2.000E+04 -1.151E-01
   1   15   13     1    13    1.1990E+05 -2.2796E+03   1.2218E+05  0.000E+00  0.000E+00  0.000E+00  4.26963E+01  1.622E-01  2.000E+01  2.000E+04 -1.140E-01
   1   14   14     1    14    1.2218E+05 -2.6139E+03   1.2479E+05  0.000E+00  0.000E+00  0.000E+00  4.22210E+01  1.642E-01  2.000E+01  2.000E+04 -1.307E-01
   1   13   15     1    15    1.2479E+05 -2.9513E+03   1.2774E+05  0.000E+00  0.000E+00  0.000E+00  4.17459E+01  1.664E-01  2.000E+01  2.000E+04 -1.476E-01
   1   12   16     1    16    1.2774E+05 -3.6416E+03   1.3138E+05  0.000E+00  0.000E+00  0.000E+00  4.12712E+01  1.690E-01  2.000E+01  2.000E+04 -1.821E-01
   1   12   17     1    17    1.3138E+05 -2.2978E+03   1.3368E+05  0.000E+00  0.000E+00  0.000E+00  4.07963E+01  1.713E-01  2.000E+01  2.000E+04 -1.149E-01
   1   12   18     1    18    1.3368E+05 -2.0735E+03   1.3576E+05  0.000E+00  0.000E+00  0.000E+00  4.03207E+01  1.730E-01  2.000E+01  2.000E+04 -1.037E-01
   1   12   19     1    19    1.3576E+05 -2.0039E+03   1.3776E+05  0.000E+00  0.000E+00  0.000E+00  3.98450E+01  1.745E-01  2.000E+01  2.000E+04 -1.002E-01
   1   13   20     1    20    1.3776E+05 -5.4151E+01   1.3781E+05  0.000E+00  0.000E+00  0.000E+00  3.93685E+01  1.753E-01  2.000E+01  2.000E+04 -2.708E-03
   1   14   21     1    21    1.3781E+05 -3.8488E+02   1.3820E+05  0.000E+00  0.000E+00  0.000E+00  3.88914E+01  1.755E-01  2.000E+01  2.000E+04 -1.924E-02
   1   14   22     1    22    1.3820E+05  6.6468E+03   1.3155E+05  0.000E+00  0.000E+00  0.000E+00  3.84117E+01  1.731E-01  2.000E+01  2.000E+04  3.323E-01
   1    9   30     2     1    5.0000E+04 -5.5882E+02   5.0559E+04  0.000E+00  0.000E+00  0.000E+00  4.02413E+01  1.163E-01  2.000E+01  2.000E+04 -2.794E-02
   1    9   29     2     2    5.0559E+04 -8.7408E+02   5.1433E+04  0.000E+00  0.000E+00  0.000E+00  3.99922E+01  1.172E-01  2.000E+01  2.000E+04 -4.370E-02
   1    9   28     2     3    5.1433E+04 -1.1562E+03   5.2589E+04  0.000E+00  0.000E+00  0.000E+00  3.97436E+01  1.186E-01  2.000E+01  2.000E+04 -5.781E-02
   1    9   27     2     4    5.2589E+04 -2.3591E+03   5.4948E+04  0.000E+00  0.000E+00  0.000E+00  3.94960E+01  1.210E-01  2.000E+01  2.000E+04 -1.180E-01
   1   10   26     2     5    5.4948E+04 -8.2419E+02   5.5772E+04  0.000E+00  0.000E+00  0.000E+00  3.92482E+01  1.232E-01  2.000E+01  2.000E+04 -4.121E-02
   1   11   25     2     6    5.5772E+04  3.2692E+03   5.2503E+04  0.000E+00  0.000E+00  0.000E+00  3.89965E+01  1.215E-01  2.000E+01  2.000E+04  1.635E-01
   1   12   24     2     7    5.2503E+04  4.0056E+03   4.8498E+04  0.000E+00  0.000E+00  0.000E+00  3.87416E+01  1.166E-01  2.000E+01  2.000E+04  2.003E-01
   1   13   23     2     8    4.8498E+04  9.1812E+02   4.7580E+04  0.000E+00  0.000E+00  0.000E+00  3.84881E+01  1.131E-01  2.000E+01  2.000E+04  4.591E-02
   1   14   22     2     9    4.7580E+04  3.1170E+03   4.4463E+04  0.000E+00  0.000E+00  0.000E+00  3.82352E+01  1.102E-01  2.000E+01  2.000E+04  1.558E-01
   1   14   22     3     1    1.7601E+05 -7.0661E+03   1.8308E+05  0.000E+00  0.000E+00  0.000E+00  3.77261E+01  1.705E-01  2.000E+01  2.000E+04 -3.533E-01
   1   15   23     3     2    1.8308E+05 -6.1085E+02   1.8369E+05  0.000E+00  0.000E+00  0.000E+00  3.68394E+01  1.727E-01  2.000E+01  2.000E+04 -3.054E-02
   1   15   24     3     3    1.8369E+05 -3.1864E+02   1.8401E+05  0.000E+00  0.000E+00  0.000E+00  3.59508E+01  1.730E-01  2.000E+01  2.000E+04 -1.593E-02
   1   15   25     3     4    1.8401E+05 -2.9652E+02   1.8431E+05  0.000E+00  0.000E+00  0.000E+00  3.50620E+01  1.731E-01  2.000E+01  2.000E+04 -1.483E-02
   1   15   26     3     5    1.8431E+05 -2.4385E+02   1.8455E+05  0.000E+00  0.000E+00  0.000E+00  3.41733E+01  1.733E-01  2.000E+01  2.000E+04 -1.219E-02
   1   16   27     3     6    1.8455E+05 -8.5871E+00   1.8456E+05  0.000E+00  0.000E+00  0.000E+00  3.32845E+01  1.734E-01  2.000E+01  2.000E+04 -4.294E-04
   1   17   28     3     7    1.8456E+05  6.4683E+03   1.7809E+05  0.000E+00  0.000E+00  0.000E+00  3.23938E+01  1.715E-01  2.000E+01  2.000E+04  3.234E-01
   1   18   29     3     8    1.7809E+05  8.4053E+03   1.6969E+05  0.000E+00  0.000E+00  0.000E+00  3.15006E+01  1.673E-01  2.000E+01  2.000E+04  4.203E-01
   1   18   30     3     9    1.6969E+05  2.3442E+03   1.6734E+05  0.000E+00  0.000E+00  0.000E+00  3.06086E+01  1.642E-01  2.000E+01  2.000E+04  1.172E-01



1
              HEAD IN LAYER   1 AT END OF TIME STEP   1 IN STRESS PERIOD    4
  ---------------------------------------------------------------------------

          1      2      3      4      5      6      7      8      9     10
         11     12     13     14     15     16     17     18     19     20
         21     22     23     24     25     26     27     28     29     30
 .........................................................................
   1  ****** ****** ****** ****** ****** ****** ****** ****** ****** ******
      ****** ****** ****** ****** ****** ****** ****** ****** ****** ******
      ****** ****** ****** ****** ****** ****** ****** ****** ****** ******
   2  ****** ****** ****** ****** ****** ****** ****** ****** ****** ******
      ****** ****** ****** ****** ****** ****** ****** ****** ****** ******
      ****** ****** ****** ****** ****** ****** ****** ****** ****** ******
   3  ****** ****** ****** ****** ****** ****** ****** ****** ****** ******
      ****** ****** ****** ****** ****** ****** ****** ****** ****** ******
      ****** ****** ****** ****** ****** ****** ****** ****** ****** ******
   4  ****** ****** ****** ****** ****** ****** ****** ****** ****** ******
      ****** ****** ****** ****** ****** ****** ****** ****** ****** ******
      ****** ****** ****** ****** ****** ****** ****** ****** ****** ******
   5  ****** ****** ****** ****** ****** ****** ****** ****** ****** ******
      ****** ****** ****** ****** ****** ****** ****** ****** ****** ******
      ****** ****** ****** ****** ****** ****** ****** ****** ****** ******
   6  ****** ****** ****** ****** ****** ****** ****** ****** ****** ******
      ****** ****** ****** ****** ****** ****** ****** ****** ****** ******
      ****** ****** ****** ****** ****** ****** ****** ****** ****** ******
   7  ****** ****** ****** ****** ****** ****** ****** ****** ****** ******
      ****** ****** ****** ****** ****** ****** ****** ****** ****** ******
      ****** ****** ****** ****** ****** ****** ****** ****** ****** ******
   8  ****** ****** ****** ****** ****** ****** ****** ****** ****** ******
      ****** ****** ****** ****** ****** ****** ****** ****** ****** ******
      ****** ****** ****** ****** ****** ****** ****** ****** ****** ******
   9  ****** ****** ****** ****** ****** ****** ****** ****** ****** ******
      ****** ****** ****** ****** ****** ****** ****** ****** ****** ******
      ****** ****** ****** ****** ****** ****** ****** ****** ****** ******
  10  ****** ****** ****** ****** ****** ****** ****** ****** ****** ******
      ****** ****** ****** ****** ****** ****** ****** ****** ****** ******
      ****** ****** ****** ****** ****** ****** ****** ****** ****** ******
  11  ****** ****** ****** ****** ****** ****** ****** ****** ****** ******
      ****** ****** ****** ****** ****** ****** ****** ****** ****** ******
      ****** ****** ****** ****** ****** ****** ****** ****** ****** ******
  12  ****** ****** ****** ****** ****** ****** ****** ****** ****** ******
      ****** ****** ****** ****** ****** ****** ****** ****** ****** ******
      ****** ****** ****** ****** ****** ****** ****** ****** ****** ******
  13  ****** ****** ****** ****** ****** ****** ****** ****** ****** ******
      ****** ****** ****** ****** ****** ****** ****** ****** ****** ******
      ****** ****** ****** ****** ****** ****** ****** ****** ****** ******
  14  ****** ****** ****** ****** ****** ****** ****** ****** ****** ******
      ****** ****** ****** ****** ****** ****** ****** ****** ****** ******
      ****** ****** ****** ****** ****** ****** ****** ****** ****** ******
  15  ****** ****** ****** ****** ****** ****** ****** ****** ****** ******
      ****** ****** ****** ****** ****** ****** ****** ****** ****** ******
      ****** ****** ****** ****** ****** ****** ****** ****** ****** ******
  16  ****** ****** ****** ****** ****** ****** ****** ****** ****** ******
      ****** ****** ****** ****** ****** ****** ****** ****** ****** ******
      ****** ****** ****** ****** ****** ****** ****** ****** ****** ******
  17  ****** ****** ****** ****** ****** ****** ****** ****** ****** ******
      ****** ****** ****** ****** ****** ****** ****** ****** ****** ******
      ****** ****** ****** ****** ****** ****** ****** ****** ****** ******
  18  ****** ****** ****** ****** ****** ****** ****** ****** ****** ******
      ****** ****** ****** ****** ****** ****** ****** ****** ****** ******
      ****** ****** ****** ****** ****** ****** ****** ****** ****** ******
  19  ****** ****** ****** ****** ****** ****** ****** ****** ****** ******
      ****** ****** ****** ****** ****** ****** ****** ****** ****** ******
      ****** ****** ****** ****** ****** ****** ****** ****** ****** ******
  20  ****** ****** ****** ****** ****** ****** ****** ****** ****** ******
      ****** ****** ****** ****** ****** ****** ****** ****** ****** ******
      ****** ****** ****** ****** ****** ****** ****** ****** ****** ******
  21  ****** ****** ****** ****** ****** ****** ****** ****** ****** ******
      ****** ****** ****** ****** ****** ****** ****** ****** ****** ******
      ****** ****** ****** ****** ****** ****** ****** ****** ****** ******
  22  ****** ****** ****** ****** ****** ****** ****** ****** ****** ******
      ****** ****** ****** ****** ****** ****** ****** ****** ****** ******
      ****** ****** ****** ****** ****** ****** ****** ****** ****** ******
  23  ****** ****** ****** ****** ****** ****** ****** ****** ****** ******
      ****** ****** ****** ****** ****** ****** ****** ****** ****** ******
      ****** ****** ****** ****** ****** ****** ****** ****** ****** ******
  24  ****** ****** ****** ****** ****** ****** ****** ****** ****** ******
      ****** ****** ****** ****** ****** ****** ****** ****** ****** ******
      ****** ****** ****** ****** ****** ****** ****** ****** ****** ******
  25  ****** ****** ****** ****** ****** ****** ****** ****** ****** ******
      ****** ****** ****** ****** ****** ****** ****** ****** ****** ******
      ****** ****** ****** ****** ****** ****** ****** ****** ****** ******

 HEAD WILL BE SAVED ON UNIT   51 AT END OF TIME STEP    1, STRESS PERIOD    4
1
  VOLUMETRIC BUDGET FOR ENTIRE MODEL AT END OF TIME STEP    1, STRESS PERIOD   4
  ------------------------------------------------------------------------------

     CUMULATIVE VOLUMES      L**3       RATES FOR THIS TIME STEP      L**3/T
     ------------------                 ------------------------

           IN:                                      IN:
           ---                                      ---
             STORAGE =    28208928.7452               STORAGE =       17307.4885
       CONSTANT HEAD =     7292377.3967         CONSTANT HEAD =       26992.2802
               WELLS =           0.0000                 WELLS =           0.0000
            RECHARGE =     8804400.0000              RECHARGE =       27600.0000
      STREAM LEAKAGE =     9694155.3311        STREAM LEAKAGE =       35174.3449

            TOTAL IN =    53999861.4729              TOTAL IN =      107074.1135

          OUT:                                     OUT:
          ----                                     ----
             STORAGE =         801.1506               STORAGE =           8.8039
       CONSTANT HEAD =           0.0000         CONSTANT HEAD =           0.0000
               WELLS =    19910743.2993                 WELLS =       54549.9816
            RECHARGE =           0.0000              RECHARGE =           0.0000
      STREAM LEAKAGE =    34088318.9963        STREAM LEAKAGE =       52515.3291

           TOTAL OUT =    53999863.4462             TOTAL OUT =      107074.1146

            IN - OUT =          -1.9733              IN - OUT =      -1.1249E-03

 PERCENT DISCREPANCY =          -0.00     PERCENT DISCREPANCY =          -0.00






         TIME SUMMARY AT END OF TIME STEP    1 IN STRESS PERIOD    4
                    SECONDS     MINUTES      HOURS       DAYS        YEARS
                    -----------------------------------------------------------
   TIME STEP LENGTH 7.86240E+06 1.31040E+05  2184.0      91.000     0.24914    
 STRESS PERIOD TIME 7.86240E+06 1.31040E+05  2184.0      91.000     0.24914    
         TOTAL TIME 3.15360E+07 5.25600E+05  8760.0      365.00     0.99932    
1
1
                            STRESS PERIOD NO.    5, LENGTH =   92.00000    
                            -----------------------------------------------

                              NUMBER OF TIME STEPS =     1

                               MULTIPLIER FOR DELT =     1.500

                            INITIAL TIME STEP SIZE =   92.00000    

 WELL NO.  LAYER   ROW   COL   STRESS RATE         
 --------------------------------------------------
      1      1     19     29     -0.1190E+05
      2      1     13     22     -0.1207E+05
      3      1     11     24     -0.1308E+05
      4      1     17     29     -0.1750E+05

      4 WELLS

                 RECHARGE =  5.000000E-04

 REUSING STREAM SEGMENT DATA FROM LAST STRESS PERIOD
 
 SOLVING FOR HEAD 


     7 CALLS TO PCG ROUTINE FOR TIME STEP   1 IN STRESS PERIOD    5
    26 TOTAL ITERATIONS

 OUTPUT CONTROL FOR STRESS PERIOD    5   TIME STEP    1
    SAVE BUDGET
    SAVE HEAD FOR ALL LAYERS
    PRINT HEAD FOR ALL LAYERS
 UBDSV2 SAVING "STREAMFLOW OUT  " ON UNIT  50 AT TIME STEP  1, STRESS PERIOD   5



 STREAM LISTING     PERIOD      5   STEP        1

 LAYER ROW COL. STREAM  RCH.  FLOW INTO     FLOW TO   FLOW OUT OF   OVRLND.     DIRECT     STREAM       STREAM     STREAM     STREAM   STREAMBED  STREAMBED
                SEG.NO.  NO.  STRM. RCH.    AQUIFER    STRM. RCH.    RUNOFF     PRECIP       ET          HEAD       DEPTH      WIDTH   CONDCTNC.   GRADIENT

   1   13    1     1     1    1.0000E+05 -2.1501E+03   1.0215E+05  0.000E+00  0.000E+00  0.000E+00  4.84069E+01  1.456E-01  2.000E+01  2.000E+04 -1.075E-01
   1   13    2     1     2    1.0215E+05 -3.1705E+03   1.0532E+05  0.000E+00  0.000E+00  0.000E+00  4.79320E+01  1.479E-01  2.000E+01  2.000E+04 -1.585E-01
   1   14    3     1     3    1.0532E+05 -5.1047E+02   1.0583E+05  0.000E+00  0.000E+00  0.000E+00  4.74563E+01  1.494E-01  2.000E+01  2.000E+04 -2.552E-02
   1   15    4     1     4    1.0583E+05 -4.7737E+02   1.0631E+05  0.000E+00  0.000E+00  0.000E+00  4.69794E+01  1.499E-01  2.000E+01  2.000E+04 -2.387E-02
   1   16    5     1     5    1.0631E+05 -1.7477E+03   1.0806E+05  0.000E+00  0.000E+00  0.000E+00  4.65031E+01  1.508E-01  2.000E+01  2.000E+04 -8.739E-02
   1   16    6     1     6    1.0806E+05 -1.1191E+03   1.0918E+05  0.000E+00  0.000E+00  0.000E+00  4.60270E+01  1.520E-01  2.000E+01  2.000E+04 -5.595E-02
   1   16    7     1     7    1.0918E+05 -1.1062E+03   1.1028E+05  0.000E+00  0.000E+00  0.000E+00  4.55507E+01  1.529E-01  2.000E+01  2.000E+04 -5.531E-02
   1   16    8     1     8    1.1028E+05 -1.1050E+03   1.1139E+05  0.000E+00  0.000E+00  0.000E+00  4.50743E+01  1.539E-01  2.000E+01  2.000E+04 -5.525E-02
   1   16    9     1     9    1.1139E+05 -1.0971E+03   1.1248E+05  0.000E+00  0.000E+00  0.000E+00  4.45980E+01  1.548E-01  2.000E+01  2.000E+04 -5.485E-02
   1   16   10     1    10    1.1248E+05 -1.0828E+03   1.1357E+05  0.000E+00  0.000E+00  0.000E+00  4.41216E+01  1.557E-01  2.000E+01  2.000E+04 -5.414E-02
   1   16   11     1    11    1.1357E+05 -1.0865E+03   1.1465E+05  0.000E+00  0.000E+00  0.000E+00  4.36452E+01  1.566E-01  2.000E+01  2.000E+04 -5.433E-02
   1   16   12     1    12    1.1465E+05 -1.8942E+03   1.1655E+05  0.000E+00  0.000E+00  0.000E+00  4.31692E+01  1.578E-01  2.000E+01  2.000E+04 -9.471E-02
   1   15   13     1    13    1.1655E+05 -1.8527E+03   1.1840E+05  0.000E+00  0.000E+00  0.000E+00  4.26934E+01  1.593E-01  2.000E+01  2.000E+04 -9.264E-02
   1   14   14     1    14    1.1840E+05 -2.1618E+03   1.2056E+05  0.000E+00  0.000E+00  0.000E+00  4.22178E+01  1.610E-01  2.000E+01  2.000E+04 -1.081E-01
   1   13   15     1    15    1.2056E+05 -2.4841E+03   1.2305E+05  0.000E+00  0.000E+00  0.000E+00  4.17424E+01  1.628E-01  2.000E+01  2.000E+04 -1.242E-01
   1   12   16     1    16    1.2305E+05 -3.1326E+03   1.2618E+05  0.000E+00  0.000E+00  0.000E+00  4.12673E+01  1.651E-01  2.000E+01  2.000E+04 -1.566E-01
   1   12   17     1    17    1.2618E+05 -1.9545E+03   1.2813E+05  0.000E+00  0.000E+00  0.000E+00  4.07921E+01  1.671E-01  2.000E+01  2.000E+04 -9.773E-02
   1   12   18     1    18    1.2813E+05 -1.7461E+03   1.2988E+05  0.000E+00  0.000E+00  0.000E+00  4.03163E+01  1.685E-01  2.000E+01  2.000E+04 -8.731E-02
   1   12   19     1    19    1.2988E+05 -1.6069E+03   1.3149E+05  0.000E+00  0.000E+00  0.000E+00  3.98403E+01  1.698E-01  2.000E+01  2.000E+04 -8.034E-02
   1   13   20     1    20    1.3149E+05  2.9490E+02   1.3119E+05  0.000E+00  0.000E+00  0.000E+00  3.93635E+01  1.704E-01  2.000E+01  2.000E+04  1.474E-02
   1   14   21     1    21    1.3119E+05 -9.2187E+00   1.3120E+05  0.000E+00  0.000E+00  0.000E+00  3.88862E+01  1.702E-01  2.000E+01  2.000E+04 -4.609E-04
   1   14   22     1    22    1.3120E+05  6.7290E+03   1.2447E+05  0.000E+00  0.000E+00  0.000E+00  3.84063E+01  1.676E-01  2.000E+01  2.000E+04  3.364E-01
   1    9   30     2     1    5.0000E+04 -3.2941E+02   5.0329E+04  0.000E+00  0.000E+00  0.000E+00  4.02411E+01  1.161E-01  2.000E+01  2.000E+04 -1.647E-02
   1    9   29     2     2    5.0329E+04 -6.4139E+02   5.0971E+04  0.000E+00  0.000E+00  0.000E+00  3.99918E+01  1.168E-01  2.000E+01  2.000E+04 -3.207E-02
   1    9   28     2     3    5.0971E+04 -9.1233E+02   5.1883E+04  0.000E+00  0.000E+00  0.000E+00  3.97428E+01  1.178E-01  2.000E+01  2.000E+04 -4.562E-02
   1    9   27     2     4    5.1883E+04 -1.9769E+03   5.3860E+04  0.000E+00  0.000E+00  0.000E+00  3.94948E+01  1.198E-01  2.000E+01  2.000E+04 -9.885E-02
   1   10   26     2     5    5.3860E+04 -4.8986E+02   5.4350E+04  0.000E+00  0.000E+00  0.000E+00  3.92465E+01  1.215E-01  2.000E+01  2.000E+04 -2.449E-02
   1   11   25     2     6    5.4350E+04  3.5760E+03   5.0774E+04  0.000E+00  0.000E+00  0.000E+00  3.89944E+01  1.194E-01  2.000E+01  2.000E+04  1.788E-01
   1   12   24     2     7    5.0774E+04  4.2852E+03   4.6489E+04  0.000E+00  0.000E+00  0.000E+00  3.87390E+01  1.140E-01  2.000E+01  2.000E+04  2.143E-01
   1   13   23     2     8    4.6489E+04  9.8583E+02   4.5503E+04  0.000E+00  0.000E+00  0.000E+00  3.84852E+01  1.102E-01  2.000E+01  2.000E+04  4.929E-02
   1   14   22     2     9    4.5503E+04  3.2466E+03   4.2256E+04  0.000E+00  0.000E+00  0.000E+00  3.82321E+01  1.071E-01  2.000E+01  2.000E+04  1.623E-01
   1   14   22     3     1    1.6673E+05 -6.9818E+03   1.7371E+05  0.000E+00  0.000E+00  0.000E+00  3.77207E+01  1.652E-01  2.000E+01  2.000E+04 -3.491E-01
   1   15   23     3     2    1.7371E+05 -5.1168E+02   1.7422E+05  0.000E+00  0.000E+00  0.000E+00  3.68340E+01  1.673E-01  2.000E+01  2.000E+04 -2.558E-02
   1   15   24     3     3    1.7422E+05 -2.4550E+02   1.7447E+05  0.000E+00  0.000E+00  0.000E+00  3.59453E+01  1.675E-01  2.000E+01  2.000E+04 -1.227E-02
   1   15   25     3     4    1.7447E+05 -2.2375E+02   1.7469E+05  0.000E+00  0.000E+00  0.000E+00  3.50566E+01  1.677E-01  2.000E+01  2.000E+04 -1.119E-02
   1   15   26     3     5    1.7469E+05 -1.7021E+02   1.7486E+05  0.000E+00  0.000E+00  0.000E+00  3.41678E+01  1.678E-01  2.000E+01  2.000E+04 -8.510E-03
   1   16   27     3     6    1.7486E+05  8.4434E+01   1.7478E+05  0.000E+00  0.000E+00  0.000E+00  3.32789E+01  1.678E-01  2.000E+01  2.000E+04  4.222E-03
   1   17   28     3     7    1.7478E+05  6.7466E+03   1.6803E+05  0.000E+00  0.000E+00  0.000E+00  3.23881E+01  1.658E-01  2.000E+01  2.000E+04  3.373E-01
   1   18   29     3     8    1.6803E+05  8.7992E+03   1.5923E+05  0.000E+00  0.000E+00  0.000E+00  3.14946E+01  1.613E-01  2.000E+01  2.000E+04  4.400E-01
   1   18   30     3     9    1.5923E+05  2.6146E+03   1.5662E+05  0.000E+00  0.000E+00  0.000E+00  3.06023E+01  1.579E-01  2.000E+01  2.000E+04  1.307E-01



1
              HEAD IN LAYER   1 AT END OF TIME STEP   1 IN STRESS PERIOD    5
  ---------------------------------------------------------------------------

          1      2      3      4      5      6      7      8      9     10
         11     12     13     14     15     16     17     18     19     20
         21     22     23     24     25     26     27     28     29     30
 .........................................................................
   1  ****** ****** ****** ****** ****** ****** ****** ****** ****** ******
      ****** ****** ****** ****** ****** ****** ****** ****** ****** ******
      ****** ****** ****** ****** ****** ****** ****** ****** ****** ******
   2  ****** ****** ****** ****** ****** ****** ****** ****** ****** ******
      ****** ****** ****** ****** ****** ****** ****** ****** ****** ******
      ****** ****** ****** ****** ****** ****** ****** ****** ****** ******
   3  ****** ****** ****** ****** ****** ****** ****** ****** ****** ******
      ****** ****** ****** ****** ****** ****** ****** ****** ****** ******
      ****** ****** ****** ****** ****** ****** ****** ****** ****** ******
   4  ****** ****** ****** ****** ****** ****** ****** ****** ****** ******
      ****** ****** ****** ****** ****** ****** ****** ****** ****** ******
      ****** ****** ****** ****** ****** ****** ****** ****** ****** ******
   5  ****** ****** ****** ****** ****** ****** ****** ****** ****** ******
      ****** ****** ****** ****** ****** ****** ****** ****** ****** ******
      ****** ****** ****** ****** ****** ****** ****** ****** ****** ******
   6  ****** ****** ****** ****** ****** ****** ****** ****** ****** ******
      ****** ****** ****** ****** ****** ****** ****** ****** ****** ******
      ****** ****** ****** ****** ****** ****** ****** ****** ****** ******
   7  ****** ****** ****** ****** ****** ****** ****** ****** ****** ******
      ****** ****** ****** ****** ****** ****** ****** ****** ****** ******
      ****** ****** ****** ****** ****** ****** ****** ****** ****** ******
   8  ****** ****** ****** ****** ****** ****** ****** ****** ****** ******
      ****** ****** ****** ****** ****** ****** ****** ****** ****** ******
      ****** ****** ****** ****** ****** ****** ****** ****** ****** ******
   9  ****** ****** ****** ****** ****** ****** ****** ****** ****** ******
      ****** ****** ****** ****** ****** ****** ****** ****** ****** ******
      ****** ****** ****** ****** ****** ****** ****** ****** ****** ******
  10  ****** ****** ****** ****** ****** ****** ****** ****** ****** ******
      ****** ****** ****** ****** ****** ****** ****** ****** ****** ******
      ****** ****** ****** ****** ****** ****** ****** ****** ****** ******
  11  ****** ****** ****** ****** ****** ****** ****** ****** ****** ******
      ****** ****** ****** ****** ****** ****** ****** ****** ****** ******
      ****** ****** ****** ****** ****** ****** ****** ****** ****** ******
  12  ****** ****** ****** ****** ****** ****** ****** ****** ****** ******
      ****** ****** ****** ****** ****** ****** ****** ****** ****** ******
      ****** ****** ****** ****** ****** ****** ****** ****** ****** ******
  13  ****** ****** ****** ****** ****** ****** ****** ****** ****** ******
      ****** ****** ****** ****** ****** ****** ****** ****** ****** ******
      ****** ****** ****** ****** ****** ****** ****** ****** ****** ******
  14  ****** ****** ****** ****** ****** ****** ****** ****** ****** ******
      ****** ****** ****** ****** ****** ****** ****** ****** ****** ******
      ****** ****** ****** ****** ****** ****** ****** ****** ****** ******
  15  ****** ****** ****** ****** ****** ****** ****** ****** ****** ******
      ****** ****** ****** ****** ****** ****** ****** ****** ****** ******
      ****** ****** ****** ****** ****** ****** ****** ****** ****** ******
  16  ****** ****** ****** ****** ****** ****** ****** ****** ****** ******
      ****** ****** ****** ****** ****** ****** ****** ****** ****** ******
      ****** ****** ****** ****** ****** ****** ****** ****** ****** ******
  17  ****** ****** ****** ****** ****** ****** ****** ****** ****** ******
      ****** ****** ****** ****** ****** ****** ****** ****** ****** ******
      ****** ****** ****** ****** ****** ****** ****** ****** ****** ******
  18  ****** ****** ****** ****** ****** ****** ****** ****** ****** ******
      ****** ****** ****** ****** ****** ****** ****** ****** ****** ******
      ****** ****** ****** ****** ****** ****** ****** ****** ****** ******
  19  ****** ****** ****** ****** ****** ****** ****** ****** ****** ******
      ****** ****** ****** ****** ****** ****** ****** ****** ****** ******
      ****** ****** ****** ****** ****** ****** ****** ****** ****** ******
  20  ****** ****** ****** ****** ****** ****** ****** ****** ****** ******
      ****** ****** ****** ****** ****** ****** ****** ****** ****** ******
      ****** ****** ****** ****** ****** ****** ****** ****** ****** ******
  21  ****** ****** ****** ****** ****** ****** ****** ****** ****** ******
      ****** ****** ****** ****** ****** ****** ****** ****** ****** ******
      ****** ****** ****** ****** ****** ****** ****** ****** ****** ******
  22  ****** ****** ****** ****** ****** ****** ****** ****** ****** ******
      ****** ****** ****** ****** ****** ****** ****** ****** ****** ******
      ****** ****** ****** ****** ****** ****** ****** ****** ****** ******
  23  ****** ****** ****** ****** ****** ****** ****** ****** ****** ******
      ****** ****** ****** ****** ****** ****** ****** ****** ****** ******
      ****** ****** ****** ****** ****** ****** ****** ****** ****** ******
  24  ****** ****** ****** ****** ****** ****** ****** ****** ****** ******
      ****** ****** ****** ****** ****** ****** ****** ****** ****** ******
      ****** ****** ****** ****** ****** ****** ****** ****** ****** ******
  25  ****** ****** ****** ****** ****** ****** ****** ****** ****** ******
      ****** ****** ****** ****** ****** ****** ****** ****** ****** ******
      ****** ****** ****** ****** ****** ****** ****** ****** ****** ******

 HEAD WILL BE SAVED ON UNIT   51 AT END OF TIME STEP    1, STRESS PERIOD    5
1
  VOLUMETRIC BUDGET FOR ENTIRE MODEL AT END OF TIME STEP    1, STRESS PERIOD   5
  ------------------------------------------------------------------------------

     CUMULATIVE VOLUMES      L**3       RATES FOR THIS TIME STEP      L**3/T
     ------------------                 ------------------------

           IN:                                      IN:
           ---                                      ---
             STORAGE =    29824212.0444               STORAGE =       17557.4272
       CONSTANT HEAD =    10034713.2090         CONSTANT HEAD =       29807.9980
               WELLS =           0.0000                 WELLS =           0.0000
            RECHARGE =    10074000.0000              RECHARGE =       13800.0000
      STREAM LEAKAGE =    13131496.6593        STREAM LEAKAGE =       37362.4057

            TOTAL IN =    63064421.9127              TOTAL IN =       98527.8309

          OUT:                                     OUT:
          ----                                     ----
             STORAGE =         801.1506               STORAGE =           0.0000
       CONSTANT HEAD =           0.0000         CONSTANT HEAD =           0.0000
               WELLS =    24929341.6104                 WELLS =       54549.9816
            RECHARGE =           0.0000              RECHARGE =           0.0000
      STREAM LEAKAGE =    38134281.3925        STREAM LEAKAGE =       43977.8521

           TOTAL OUT =    63064424.1535             TOTAL OUT =       98527.8338

            IN - OUT =          -2.2408              IN - OUT =      -2.9077E-03

 PERCENT DISCREPANCY =          -0.00     PERCENT DISCREPANCY =          -0.00






         TIME SUMMARY AT END OF TIME STEP    1 IN STRESS PERIOD    5
                    SECONDS     MINUTES      HOURS       DAYS        YEARS
                    -----------------------------------------------------------
   TIME STEP LENGTH 7.94880E+06 1.32480E+05  2208.0      92.000     0.25188    
 STRESS PERIOD TIME 7.94880E+06 1.32480E+05  2208.0      92.000     0.25188    
         TOTAL TIME 3.94848E+07 6.58080E+05  10968.      457.00      1.2512    
1
1
                            STRESS PERIOD NO.    6, LENGTH =   91.00000    
                            -----------------------------------------------

                              NUMBER OF TIME STEPS =     1

                               MULTIPLIER FOR DELT =     1.500

                            INITIAL TIME STEP SIZE =   91.00000    

 WELL NO.  LAYER   ROW   COL   STRESS RATE         
 --------------------------------------------------
      1      1     19     29     -0.1190E+05
      2      1     13     22     -0.1207E+05
      3      1     11     24     -0.1308E+05
      4      1     17     29     -0.1750E+05

      4 WELLS

                 RECHARGE =  2.000000E-03

 REUSING STREAM SEGMENT DATA FROM LAST STRESS PERIOD
 
 SOLVING FOR HEAD 


     7 CALLS TO PCG ROUTINE FOR TIME STEP   1 IN STRESS PERIOD    6
    26 TOTAL ITERATIONS

 OUTPUT CONTROL FOR STRESS PERIOD    6   TIME STEP    1
    SAVE BUDGET
    SAVE HEAD FOR ALL LAYERS
    PRINT HEAD FOR ALL LAYERS
 UBDSV2 SAVING "STREAMFLOW OUT  " ON UNIT  50 AT TIME STEP  1, STRESS PERIOD   6



 STREAM LISTING     PERIOD      6   STEP        1

 LAYER ROW COL. STREAM  RCH.  FLOW INTO     FLOW TO   FLOW OUT OF   OVRLND.     DIRECT     STREAM       STREAM     STREAM     STREAM   STREAMBED  STREAMBED
                SEG.NO.  NO.  STRM. RCH.    AQUIFER    STRM. RCH.    RUNOFF     PRECIP       ET          HEAD       DEPTH      WIDTH   CONDCTNC.   GRADIENT

   1   13    1     1     1    1.0000E+05 -2.4743E+03   1.0247E+05  0.000E+00  0.000E+00  0.000E+00  4.84071E+01  1.457E-01  2.000E+01  2.000E+04 -1.237E-01
   1   13    2     1     2    1.0247E+05 -3.5258E+03   1.0600E+05  0.000E+00  0.000E+00  0.000E+00  4.79324E+01  1.483E-01  2.000E+01  2.000E+04 -1.763E-01
   1   14    3     1     3    1.0600E+05 -6.6685E+02   1.0667E+05  0.000E+00  0.000E+00  0.000E+00  4.74569E+01  1.501E-01  2.000E+01  2.000E+04 -3.334E-02
   1   15    4     1     4    1.0667E+05 -6.4503E+02   1.0731E+05  0.000E+00  0.000E+00  0.000E+00  4.69802E+01  1.506E-01  2.000E+01  2.000E+04 -3.225E-02
   1   16    5     1     5    1.0731E+05 -2.2473E+03   1.0956E+05  0.000E+00  0.000E+00  0.000E+00  4.65041E+01  1.519E-01  2.000E+01  2.000E+04 -1.124E-01
   1   16    6     1     6    1.0956E+05 -1.4126E+03   1.1097E+05  0.000E+00  0.000E+00  0.000E+00  4.60284E+01  1.534E-01  2.000E+01  2.000E+04 -7.063E-02
   1   16    7     1     7    1.1097E+05 -1.3845E+03   1.1236E+05  0.000E+00  0.000E+00  0.000E+00  4.55523E+01  1.546E-01  2.000E+01  2.000E+04 -6.922E-02
   1   16    8     1     8    1.1236E+05 -1.3789E+03   1.1374E+05  0.000E+00  0.000E+00  0.000E+00  4.50762E+01  1.557E-01  2.000E+01  2.000E+04 -6.894E-02
   1   16    9     1     9    1.1374E+05 -1.3705E+03   1.1511E+05  0.000E+00  0.000E+00  0.000E+00  4.46000E+01  1.568E-01  2.000E+01  2.000E+04 -6.852E-02
   1   16   10     1    10    1.1511E+05 -1.3577E+03   1.1646E+05  0.000E+00  0.000E+00  0.000E+00  4.41239E+01  1.579E-01  2.000E+01  2.000E+04 -6.789E-02
   1   16   11     1    11    1.1646E+05 -1.3647E+03   1.1783E+05  0.000E+00  0.000E+00  0.000E+00  4.36477E+01  1.591E-01  2.000E+01  2.000E+04 -6.824E-02
   1   16   12     1    12    1.1783E+05 -2.3444E+03   1.2017E+05  0.000E+00  0.000E+00  0.000E+00  4.31719E+01  1.606E-01  2.000E+01  2.000E+04 -1.172E-01
   1   15   13     1    13    1.2017E+05 -2.3148E+03   1.2249E+05  0.000E+00  0.000E+00  0.000E+00  4.26965E+01  1.624E-01  2.000E+01  2.000E+04 -1.157E-01
   1   14   14     1    14    1.2249E+05 -2.6206E+03   1.2511E+05  0.000E+00  0.000E+00  0.000E+00  4.22212E+01  1.644E-01  2.000E+01  2.000E+04 -1.310E-01
   1   13   15     1    15    1.2511E+05 -2.9250E+03   1.2803E+05  0.000E+00  0.000E+00  0.000E+00  4.17462E+01  1.666E-01  2.000E+01  2.000E+04 -1.463E-01
   1   12   16     1    16    1.2803E+05 -3.5303E+03   1.3156E+05  0.000E+00  0.000E+00  0.000E+00  4.12714E+01  1.692E-01  2.000E+01  2.000E+04 -1.765E-01
   1   12   17     1    17    1.3156E+05 -2.2756E+03   1.3384E+05  0.000E+00  0.000E+00  0.000E+00  4.07964E+01  1.714E-01  2.000E+01  2.000E+04 -1.138E-01
   1   12   18     1    18    1.3384E+05 -2.0701E+03   1.3591E+05  0.000E+00  0.000E+00  0.000E+00  4.03208E+01  1.731E-01  2.000E+01  2.000E+04 -1.035E-01
   1   12   19     1    19    1.3591E+05 -2.0093E+03   1.3792E+05  0.000E+00  0.000E+00  0.000E+00  3.98451E+01  1.747E-01  2.000E+01  2.000E+04 -1.005E-01
   1   13   20     1    20    1.3792E+05 -1.3153E+02   1.3805E+05  0.000E+00  0.000E+00  0.000E+00  3.93687E+01  1.755E-01  2.000E+01  2.000E+04 -6.576E-03
   1   14   21     1    21    1.3805E+05 -4.2363E+02   1.3847E+05  0.000E+00  0.000E+00  0.000E+00  3.88916E+01  1.757E-01  2.000E+01  2.000E+04 -2.118E-02
   1   14   22     1    22    1.3847E+05  6.6173E+03   1.3186E+05  0.000E+00  0.000E+00  0.000E+00  3.84120E+01  1.733E-01  2.000E+01  2.000E+04  3.309E-01
   1    9   30     2     1    5.0000E+04 -6.9514E+02   5.0695E+04  0.000E+00  0.000E+00  0.000E+00  4.02413E+01  1.163E-01  2.000E+01  2.000E+04 -3.476E-02
   1    9   29     2     2    5.0695E+04 -1.0029E+03   5.1698E+04  0.000E+00  0.000E+00  0.000E+00  3.99925E+01  1.175E-01  2.000E+01  2.000E+04 -5.015E-02
   1    9   28     2     3    5.1698E+04 -1.2675E+03   5.2966E+04  0.000E+00  0.000E+00  0.000E+00  3.97441E+01  1.191E-01  2.000E+01  2.000E+04 -6.338E-02
   1    9   27     2     4    5.2966E+04 -2.4282E+03   5.5394E+04  0.000E+00  0.000E+00  0.000E+00  3.94966E+01  1.216E-01  2.000E+01  2.000E+04 -1.214E-01
   1   10   26     2     5    5.5394E+04 -9.6426E+02   5.6358E+04  0.000E+00  0.000E+00  0.000E+00  3.92489E+01  1.239E-01  2.000E+01  2.000E+04 -4.821E-02
   1   11   25     2     6    5.6358E+04  3.1166E+03   5.3241E+04  0.000E+00  0.000E+00  0.000E+00  3.89974E+01  1.224E-01  2.000E+01  2.000E+04  1.558E-01
   1   12   24     2     7    5.3241E+04  3.8709E+03   4.9371E+04  0.000E+00  0.000E+00  0.000E+00  3.87427E+01  1.177E-01  2.000E+01  2.000E+04  1.935E-01
   1   13   23     2     8    4.9371E+04  8.4734E+02   4.8523E+04  0.000E+00  0.000E+00  0.000E+00  3.84894E+01  1.144E-01  2.000E+01  2.000E+04  4.237E-02
   1   14   22     2     9    4.8523E+04  3.1101E+03   4.5413E+04  0.000E+00  0.000E+00  0.000E+00  3.82366E+01  1.116E-01  2.000E+01  2.000E+04  1.555E-01
   1   14   22     3     1    1.7727E+05 -7.0856E+03   1.8435E+05  0.000E+00  0.000E+00  0.000E+00  3.77268E+01  1.713E-01  2.000E+01  2.000E+04 -3.543E-01
   1   15   23     3     2    1.8435E+05 -6.4904E+02   1.8500E+05  0.000E+00  0.000E+00  0.000E+00  3.68401E+01  1.734E-01  2.000E+01  2.000E+04 -3.245E-02
   1   15   24     3     3    1.8500E+05 -3.6723E+02   1.8537E+05  0.000E+00  0.000E+00  0.000E+00  3.59515E+01  1.737E-01  2.000E+01  2.000E+04 -1.836E-02
   1   15   25     3     4    1.8537E+05 -3.4985E+02   1.8572E+05  0.000E+00  0.000E+00  0.000E+00  3.50628E+01  1.739E-01  2.000E+01  2.000E+04 -1.749E-02
   1   15   26     3     5    1.8572E+05 -3.2125E+02   1.8604E+05  0.000E+00  0.000E+00  0.000E+00  3.41741E+01  1.741E-01  2.000E+01  2.000E+04 -1.606E-02
   1   16   27     3     6    1.8604E+05 -8.3721E+01   1.8613E+05  0.000E+00  0.000E+00  0.000E+00  3.32853E+01  1.742E-01  2.000E+01  2.000E+04 -4.186E-03
   1   17   28     3     7    1.8613E+05  6.2860E+03   1.7984E+05  0.000E+00  0.000E+00  0.000E+00  3.23947E+01  1.725E-01  2.000E+01  2.000E+04  3.143E-01
   1   18   29     3     8    1.7984E+05  8.3639E+03   1.7148E+05  0.000E+00  0.000E+00  0.000E+00  3.15016E+01  1.683E-01  2.000E+01  2.000E+04  4.182E-01
   1   18   30     3     9    1.7148E+05  2.2614E+03   1.6921E+05  0.000E+00  0.000E+00  0.000E+00  3.06097E+01  1.652E-01  2.000E+01  2.000E+04  1.131E-01



1
              HEAD IN LAYER   1 AT END OF TIME STEP   1 IN STRESS PERIOD    6
  ---------------------------------------------------------------------------

          1      2      3      4      5      6      7      8      9     10
         11     12     13     14     15     16     17     18     19     20
         21     22     23     24     25     26     27     28     29     30
 .........................................................................
   1  ****** ****** ****** ****** ****** ****** ****** ****** ****** ******
      ****** ****** ****** ****** ****** ****** ****** ****** ****** ******
      ****** ****** ****** ****** ****** ****** ****** ****** ****** ******
   2  ****** ****** ****** ****** ****** ****** ****** ****** ****** ******
      ****** ****** ****** ****** ****** ****** ****** ****** ****** ******
      ****** ****** ****** ****** ****** ****** ****** ****** ****** ******
   3  ****** ****** ****** ****** ****** ****** ****** ****** ****** ******
      ****** ****** ****** ****** ****** ****** ****** ****** ****** ******
      ****** ****** ****** ****** ****** ****** ****** ****** ****** ******
   4  ****** ****** ****** ****** ****** ****** ****** ****** ****** ******
      ****** ****** ****** ****** ****** ****** ****** ****** ****** ******
      ****** ****** ****** ****** ****** ****** ****** ****** ****** ******
   5  ****** ****** ****** ****** ****** ****** ****** ****** ****** ******
      ****** ****** ****** ****** ****** ****** ****** ****** ****** ******
      ****** ****** ****** ****** ****** ****** ****** ****** ****** ******
   6  ****** ****** ****** ****** ****** ****** ****** ****** ****** ******
      ****** ****** ****** ****** ****** ****** ****** ****** ****** ******
      ****** ****** ****** ****** ****** ****** ****** ****** ****** ******
   7  ****** ****** ****** ****** ****** ****** ****** ****** ****** ******
      ****** ****** ****** ****** ****** ****** ****** ****** ****** ******
      ****** ****** ****** ****** ****** ****** ****** ****** ****** ******
   8  ****** ****** ****** ****** ****** ****** ****** ****** ****** ******
      ****** ****** ****** ****** ****** ****** ****** ****** ****** ******
      ****** ****** ****** ****** ****** ****** ****** ****** ****** ******
   9  ****** ****** ****** ****** ****** ****** ****** ****** ****** ******
      ****** ****** ****** ****** ****** ****** ****** ****** ****** ******
      ****** ****** ****** ****** ****** ****** ****** ****** ****** ******
  10  ****** ****** ****** ****** ****** ****** ****** ****** ****** ******
      ****** ****** ****** ****** ****** ****** ****** ****** ****** ******
      ****** ****** ****** ****** ****** ****** ****** ****** ****** ******
  11  ****** ****** ****** ****** ****** ****** ****** ****** ****** ******
      ****** ****** ****** ****** ****** ****** ****** ****** ****** ******
      ****** ****** ****** ****** ****** ****** ****** ****** ****** ******
  12  ****** ****** ****** ****** ****** ****** ****** ****** ****** ******
      ****** ****** ****** ****** ****** ****** ****** ****** ****** ******
      ****** ****** ****** ****** ****** ****** ****** ****** ****** ******
  13  ****** ****** ****** ****** ****** ****** ****** ****** ****** ******
      ****** ****** ****** ****** ****** ****** ****** ****** ****** ******
      ****** ****** ****** ****** ****** ****** ****** ****** ****** ******
  14  ****** ****** ****** ****** ****** ****** ****** ****** ****** ******
      ****** ****** ****** ****** ****** ****** ****** ****** ****** ******
      ****** ****** ****** ****** ****** ****** ****** ****** ****** ******
  15  ****** ****** ****** ****** ****** ****** ****** ****** ****** ******
      ****** ****** ****** ****** ****** ****** ****** ****** ****** ******
      ****** ****** ****** ****** ****** ****** ****** ****** ****** ******
  16  ****** ****** ****** ****** ****** ****** ****** ****** ****** ******
      ****** ****** ****** ****** ****** ****** ****** ****** ****** ******
      ****** ****** ****** ****** ****** ****** ****** ****** ****** ******
  17  ****** ****** ****** ****** ****** ****** ****** ****** ****** ******
      ****** ****** ****** ****** ****** ****** ****** ****** ****** ******
      ****** ****** ****** ****** ****** ****** ****** ****** ****** ******
  18  ****** ****** ****** ****** ****** ****** ****** ****** ****** ******
      ****** ****** ****** ****** ****** ****** ****** ****** ****** ******
      ****** ****** ****** ****** ****** ****** ****** ****** ****** ******
  19  ****** ****** ****** ****** ****** ****** ****** ****** ****** ******
      ****** ****** ****** ****** ****** ****** ****** ****** ****** ******
      ****** ****** ****** ****** ****** ****** ****** ****** ****** ******
  20  ****** ****** ****** ****** ****** ****** ****** ****** ****** ******
      ****** ****** ****** ****** ****** ****** ****** ****** ****** ******
      ****** ****** ****** ****** ****** ****** ****** ****** ****** ******
  21  ****** ****** ****** ****** ****** ****** ****** ****** ****** ******
      ****** ****** ****** ****** ****** ****** ****** ****** ****** ******
      ****** ****** ****** ****** ****** ****** ****** ****** ****** ******
  22  ****** ****** ****** ****** ****** ****** ****** ****** ****** ******
      ****** ****** ****** ****** ****** ****** ****** ****** ****** ******
      ****** ****** ****** ****** ****** ****** ****** ****** ****** ******
  23  ****** ****** ****** ****** ****** ****** ****** ****** ****** ******
      ****** ****** ****** ****** ****** ****** ****** ****** ****** ******
      ****** ****** ****** ****** ****** ****** ****** ****** ****** ******
  24  ****** ****** ****** ****** ****** ****** ****** ****** ****** ******
      ****** ****** ****** ****** ****** ****** ****** ****** ****** ******
      ****** ****** ****** ****** ****** ****** ****** ****** ****** ******
  25  ****** ****** ****** ****** ****** ****** ****** ****** ****** ******
      ****** ****** ****** ****** ****** ****** ****** ****** ****** ******
      ****** ****** ****** ****** ****** ****** ****** ****** ****** ******

 HEAD WILL BE SAVED ON UNIT   51 AT END OF TIME STEP    1, STRESS PERIOD    6
1
  VOLUMETRIC BUDGET FOR ENTIRE MODEL AT END OF TIME STEP    1, STRESS PERIOD   6
  ------------------------------------------------------------------------------

     CUMULATIVE VOLUMES      L**3       RATES FOR THIS TIME STEP      L**3/T
     ------------------                 ------------------------

           IN:                                      IN:
           ---                                      ---
             STORAGE =    29824212.0444               STORAGE =           0.0000
       CONSTANT HEAD =    12567640.5675         CONSTANT HEAD =       27834.3666
               WELLS =           0.0000                 WELLS =           0.0000
            RECHARGE =    15097200.0000              RECHARGE =       55200.0000
      STREAM LEAKAGE =    16268590.8430        STREAM LEAKAGE =       34473.5625

            TOTAL IN =    73757643.4550              TOTAL IN =      117507.9290

          OUT:                                     OUT:
          ----                                     ----
             STORAGE =      844344.1783               STORAGE =        9269.7036
       CONSTANT HEAD =           0.0000         CONSTANT HEAD =           0.0000
               WELLS =    29893389.9398                 WELLS =       54549.9816
            RECHARGE =           0.0000              RECHARGE =           0.0000
      STREAM LEAKAGE =    43019911.3195        STREAM LEAKAGE =       53688.2410

           TOTAL OUT =    73757645.4375             TOTAL OUT =      117507.9262

            IN - OUT =          -1.9825              IN - OUT =       2.8380E-03

 PERCENT DISCREPANCY =          -0.00     PERCENT DISCREPANCY =           0.00






         TIME SUMMARY AT END OF TIME STEP    1 IN STRESS PERIOD    6
                    SECONDS     MINUTES      HOURS       DAYS        YEARS
                    -----------------------------------------------------------
   TIME STEP LENGTH 7.86240E+06 1.31040E+05  2184.0      91.000     0.24914    
 STRESS PERIOD TIME 7.86240E+06 1.31040E+05  2184.0      91.000     0.24914    
         TOTAL TIME 4.73472E+07 7.89120E+05  13152.      548.00      1.5003    
1
1
                            STRESS PERIOD NO.    7, LENGTH =   91.00000    
                            -----------------------------------------------

                              NUMBER OF TIME STEPS =     1

                               MULTIPLIER FOR DELT =     1.500

                            INITIAL TIME STEP SIZE =   91.00000    

 WELL NO.  LAYER   ROW   COL   STRESS RATE         
 --------------------------------------------------
      1      1     19     29     -0.1190E+05
      2      1     13     22     -0.1207E+05
      3      1     11     24     -0.1308E+05
      4      1     17     29     -0.1750E+05

      4 WELLS

                 RECHARGE =   0.00000    

 REUSING STREAM SEGMENT DATA FROM LAST STRESS PERIOD
 
 SOLVING FOR HEAD 


     7 CALLS TO PCG ROUTINE FOR TIME STEP   1 IN STRESS PERIOD    7
    26 TOTAL ITERATIONS

 OUTPUT CONTROL FOR STRESS PERIOD    7   TIME STEP    1
    SAVE BUDGET
    SAVE HEAD FOR ALL LAYERS
    PRINT HEAD FOR ALL LAYERS
 UBDSV2 SAVING "STREAMFLOW OUT  " ON UNIT  50 AT TIME STEP  1, STRESS PERIOD   7



 STREAM LISTING     PERIOD      7   STEP        1

 LAYER ROW COL. STREAM  RCH.  FLOW INTO     FLOW TO   FLOW OUT OF   OVRLND.     DIRECT     STREAM       STREAM     STREAM     STREAM   STREAMBED  STREAMBED
                SEG.NO.  NO.  STRM. RCH.    AQUIFER    STRM. RCH.    RUNOFF     PRECIP       ET          HEAD       DEPTH      WIDTH   CONDCTNC.   GRADIENT

   1   13    1     1     1    1.0000E+05 -1.8159E+03   1.0182E+05  0.000E+00  0.000E+00  0.000E+00  4.84068E+01  1.454E-01  2.000E+01  2.000E+04 -9.080E-02
   1   13    2     1     2    1.0182E+05 -2.7894E+03   1.0461E+05  0.000E+00  0.000E+00  0.000E+00  4.79315E+01  1.474E-01  2.000E+01  2.000E+04 -1.395E-01
   1   14    3     1     3    1.0461E+05 -4.1617E+02   1.0502E+05  0.000E+00  0.000E+00  0.000E+00  4.74556E+01  1.488E-01  2.000E+01  2.000E+04 -2.081E-02
   1   15    4     1     4    1.0502E+05 -3.8339E+02   1.0540E+05  0.000E+00  0.000E+00  0.000E+00  4.69787E+01  1.491E-01  2.000E+01  2.000E+04 -1.917E-02
   1   16    5     1     5    1.0540E+05 -1.4961E+03   1.0690E+05  0.000E+00  0.000E+00  0.000E+00  4.65022E+01  1.499E-01  2.000E+01  2.000E+04 -7.480E-02
   1   16    6     1     6    1.0690E+05 -9.5970E+02   1.0786E+05  0.000E+00  0.000E+00  0.000E+00  4.60260E+01  1.510E-01  2.000E+01  2.000E+04 -4.798E-02
   1   16    7     1     7    1.0786E+05 -9.5004E+02   1.0881E+05  0.000E+00  0.000E+00  0.000E+00  4.55495E+01  1.518E-01  2.000E+01  2.000E+04 -4.750E-02
   1   16    8     1     8    1.0881E+05 -9.5039E+02   1.0976E+05  0.000E+00  0.000E+00  0.000E+00  4.50730E+01  1.526E-01  2.000E+01  2.000E+04 -4.752E-02
   1   16    9     1     9    1.0976E+05 -9.4506E+02   1.1071E+05  0.000E+00  0.000E+00  0.000E+00  4.45965E+01  1.534E-01  2.000E+01  2.000E+04 -4.725E-02
   1   16   10     1    10    1.1071E+05 -9.3468E+02   1.1164E+05  0.000E+00  0.000E+00  0.000E+00  4.41201E+01  1.541E-01  2.000E+01  2.000E+04 -4.673E-02
   1   16   11     1    11    1.1164E+05 -9.4026E+02   1.1258E+05  0.000E+00  0.000E+00  0.000E+00  4.36436E+01  1.549E-01  2.000E+01  2.000E+04 -4.701E-02
   1   16   12     1    12    1.1258E+05 -1.6316E+03   1.1421E+05  0.000E+00  0.000E+00  0.000E+00  4.31673E+01  1.560E-01  2.000E+01  2.000E+04 -8.158E-02
   1   15   13     1    13    1.1421E+05 -1.5516E+03   1.1576E+05  0.000E+00  0.000E+00  0.000E+00  4.26914E+01  1.573E-01  2.000E+01  2.000E+04 -7.758E-02
   1   14   14     1    14    1.1576E+05 -1.8310E+03   1.1760E+05  0.000E+00  0.000E+00  0.000E+00  4.22155E+01  1.587E-01  2.000E+01  2.000E+04 -9.155E-02
   1   13   15     1    15    1.1760E+05 -2.1345E+03   1.1973E+05  0.000E+00  0.000E+00  0.000E+00  4.17398E+01  1.603E-01  2.000E+01  2.000E+04 -1.067E-01
   1   12   16     1    16    1.1973E+05 -2.7484E+03   1.2248E+05  0.000E+00  0.000E+00  0.000E+00  4.12645E+01  1.623E-01  2.000E+01  2.000E+04 -1.374E-01
   1   12   17     1    17    1.2248E+05 -1.7050E+03   1.2418E+05  0.000E+00  0.000E+00  0.000E+00  4.07890E+01  1.640E-01  2.000E+01  2.000E+04 -8.525E-02
   1   12   18     1    18    1.2418E+05 -1.5128E+03   1.2570E+05  0.000E+00  0.000E+00  0.000E+00  4.03131E+01  1.653E-01  2.000E+01  2.000E+04 -7.564E-02
   1   12   19     1    19    1.2570E+05 -1.3283E+03   1.2702E+05  0.000E+00  0.000E+00  0.000E+00  3.98369E+01  1.665E-01  2.000E+01  2.000E+04 -6.641E-02
   1   13   20     1    20    1.2702E+05  5.3465E+02   1.2649E+05  0.000E+00  0.000E+00  0.000E+00  3.93599E+01  1.668E-01  2.000E+01  2.000E+04  2.673E-02
   1   14   21     1    21    1.2649E+05  2.3534E+02   1.2625E+05  0.000E+00  0.000E+00  0.000E+00  3.88824E+01  1.665E-01  2.000E+01  2.000E+04  1.177E-02
   1   14   22     1    22    1.2625E+05  6.7815E+03   1.1947E+05  0.000E+00  0.000E+00  0.000E+00  3.84023E+01  1.637E-01  2.000E+01  2.000E+04  3.391E-01
   1    9   30     2     1    5.0000E+04 -1.8299E+02   5.0183E+04  0.000E+00  0.000E+00  0.000E+00  4.02410E+01  1.160E-01  2.000E+01  2.000E+04 -9.149E-03
   1    9   29     2     2    5.0183E+04 -4.9265E+02   5.0676E+04  0.000E+00  0.000E+00  0.000E+00  3.99915E+01  1.165E-01  2.000E+01  2.000E+04 -2.463E-02
   1    9   28     2     3    5.0676E+04 -7.5621E+02   5.1432E+04  0.000E+00  0.000E+00  0.000E+00  3.97423E+01  1.173E-01  2.000E+01  2.000E+04 -3.781E-02
   1    9   27     2     4    5.1432E+04 -1.7348E+03   5.3167E+04  0.000E+00  0.000E+00  0.000E+00  3.94940E+01  1.190E-01  2.000E+01  2.000E+04 -8.674E-02
   1   10   26     2     5    5.3167E+04 -2.6824E+02   5.3435E+04  0.000E+00  0.000E+00  0.000E+00  3.92454E+01  1.204E-01  2.000E+01  2.000E+04 -1.341E-02
   1   11   25     2     6    5.3435E+04  3.7841E+03   4.9651E+04  0.000E+00  0.000E+00  0.000E+00  3.89930E+01  1.180E-01  2.000E+01  2.000E+04  1.892E-01
   1   12   24     2     7    4.9651E+04  4.4790E+03   4.5172E+04  0.000E+00  0.000E+00  0.000E+00  3.87372E+01  1.122E-01  2.000E+01  2.000E+04  2.240E-01
   1   13   23     2     8    4.5172E+04  1.0386E+03   4.4133E+04  0.000E+00  0.000E+00  0.000E+00  3.84833E+01  1.083E-01  2.000E+01  2.000E+04  5.193E-02
   1   14   22     2     9    4.4133E+04  3.3363E+03   4.0797E+04  0.000E+00  0.000E+00  0.000E+00  3.82300E+01  1.050E-01  2.000E+01  2.000E+04  1.668E-01
   1   14   22     3     1    1.6027E+05 -6.9265E+03   1.6720E+05  0.000E+00  0.000E+00  0.000E+00  3.77169E+01  1.614E-01  2.000E+01  2.000E+04 -3.463E-01
   1   15   23     3     2    1.6720E+05 -4.4310E+02   1.6764E+05  0.000E+00  0.000E+00  0.000E+00  3.68302E+01  1.635E-01  2.000E+01  2.000E+04 -2.216E-02
   1   15   24     3     3    1.6764E+05 -1.9380E+02   1.6783E+05  0.000E+00  0.000E+00  0.000E+00  3.59415E+01  1.637E-01  2.000E+01  2.000E+04 -9.690E-03
   1   15   25     3     4    1.6783E+05 -1.7327E+02   1.6801E+05  0.000E+00  0.000E+00  0.000E+00  3.50527E+01  1.638E-01  2.000E+01  2.000E+04 -8.664E-03
   1   15   26     3     5    1.6801E+05 -1.2011E+02   1.6813E+05  0.000E+00  0.000E+00  0.000E+00  3.41639E+01  1.639E-01  2.000E+01  2.000E+04 -6.006E-03
   1   16   27     3     6    1.6813E+05  1.4852E+02   1.6798E+05  0.000E+00  0.000E+00  0.000E+00  3.32750E+01  1.639E-01  2.000E+01  2.000E+04  7.426E-03
   1   17   28     3     7    1.6798E+05  6.9273E+03   1.6105E+05  0.000E+00  0.000E+00  0.000E+00  3.23840E+01  1.618E-01  2.000E+01  2.000E+04  3.464E-01
   1   18   29     3     8    1.6105E+05  9.0495E+03   1.5200E+05  0.000E+00  0.000E+00  0.000E+00  3.14904E+01  1.571E-01  2.000E+01  2.000E+04  4.525E-01
   1   18   30     3     9    1.5200E+05  2.7893E+03   1.4921E+05  0.000E+00  0.000E+00  0.000E+00  3.05979E+01  1.535E-01  2.000E+01  2.000E+04  1.395E-01



1
              HEAD IN LAYER   1 AT END OF TIME STEP   1 IN STRESS PERIOD    7
  ---------------------------------------------------------------------------

          1      2      3      4      5      6      7      8      9     10
         11     12     13     14     15     16     17     18     19     20
         21     22     23     24     25     26     27     28     29     30
 .........................................................................
   1  ****** ****** ****** ****** ****** ****** ****** ****** ****** ******
      ****** ****** ****** ****** ****** ****** ****** ****** ****** ******
      ****** ****** ****** ****** ****** ****** ****** ****** ****** ******
   2  ****** ****** ****** ****** ****** ****** ****** ****** ****** ******
      ****** ****** ****** ****** ****** ****** ****** ****** ****** ******
      ****** ****** ****** ****** ****** ****** ****** ****** ****** ******
   3  ****** ****** ****** ****** ****** ****** ****** ****** ****** ******
      ****** ****** ****** ****** ****** ****** ****** ****** ****** ******
      ****** ****** ****** ****** ****** ****** ****** ****** ****** ******
   4  ****** ****** ****** ****** ****** ****** ****** ****** ****** ******
      ****** ****** ****** ****** ****** ****** ****** ****** ****** ******
      ****** ****** ****** ****** ****** ****** ****** ****** ****** ******
   5  ****** ****** ****** ****** ****** ****** ****** ****** ****** ******
      ****** ****** ****** ****** ****** ****** ****** ****** ****** ******
      ****** ****** ****** ****** ****** ****** ****** ****** ****** ******
   6  ****** ****** ****** ****** ****** ****** ****** ****** ****** ******
      ****** ****** ****** ****** ****** ****** ****** ****** ****** ******
      ****** ****** ****** ****** ****** ****** ****** ****** ****** ******
   7  ****** ****** ****** ****** ****** ****** ****** ****** ****** ******
      ****** ****** ****** ****** ****** ****** ****** ****** ****** ******
      ****** ****** ****** ****** ****** ****** ****** ****** ****** ******
   8  ****** ****** ****** ****** ****** ****** ****** ****** ****** ******
      ****** ****** ****** ****** ****** ****** ****** ****** ****** ******
      ****** ****** ****** ****** ****** ****** ****** ****** ****** ******
   9  ****** ****** ****** ****** ****** ****** ****** ****** ****** ******
      ****** ****** ****** ****** ****** ****** ****** ****** ****** ******
      ****** ****** ****** ****** ****** ****** ****** ****** ****** ******
  10  ****** ****** ****** ****** ****** ****** ****** ****** ****** ******
      ****** ****** ****** ****** ****** ****** ****** ****** ****** ******
      ****** ****** ****** ****** ****** ****** ****** ****** ****** ******
  11  ****** ****** ****** ****** ****** ****** ****** ****** ****** ******
      ****** ****** ****** ****** ****** ****** ****** ****** ****** ******
      ****** ****** ****** ****** ****** ****** ****** ****** ****** ******
  12  ****** ****** ****** ****** ****** ****** ****** ****** ****** ******
      ****** ****** ****** ****** ****** ****** ****** ****** ****** ******
      ****** ****** ****** ****** ****** ****** ****** ****** ****** ******
  13  ****** ****** ****** ****** ****** ****** ****** ****** ****** ******
      ****** ****** ****** ****** ****** ****** ****** ****** ****** ******
      ****** ****** ****** ****** ****** ****** ****** ****** ****** ******
  14  ****** ****** ****** ****** ****** ****** ****** ****** ****** ******
      ****** ****** ****** ****** ****** ****** ****** ****** ****** ******
      ****** ****** ****** ****** ****** ****** ****** ****** ****** ******
  15  ****** ****** ****** ****** ****** ****** ****** ****** ****** ******
      ****** ****** ****** ****** ****** ****** ****** ****** ****** ******
      ****** ****** ****** ****** ****** ****** ****** ****** ****** ******
  16  ****** ****** ****** ****** ****** ****** ****** ****** ****** ******
      ****** ****** ****** ****** ****** ****** ****** ****** ****** ******
      ****** ****** ****** ****** ****** ****** ****** ****** ****** ******
  17  ****** ****** ****** ****** ****** ****** ****** ****** ****** ******
      ****** ****** ****** ****** ****** ****** ****** ****** ****** ******
      ****** ****** ****** ****** ****** ****** ****** ****** ****** ******
  18  ****** ****** ****** ****** ****** ****** ****** ****** ****** ******
      ****** ****** ****** ****** ****** ****** ****** ****** ****** ******
      ****** ****** ****** ****** ****** ****** ****** ****** ****** ******
  19  ****** ****** ****** ****** ****** ****** ****** ****** ****** ******
      ****** ****** ****** ****** ****** ****** ****** ****** ****** ******
      ****** ****** ****** ****** ****** ****** ****** ****** ****** ******
  20  ****** ****** ****** ****** ****** ****** ****** ****** ****** ******
      ****** ****** ****** ****** ****** ****** ****** ****** ****** ******
      ****** ****** ****** ****** ****** ****** ****** ****** ****** ******
  21  ****** ****** ****** ****** ****** ****** ****** ****** ****** ******
      ****** ****** ****** ****** ****** ****** ****** ****** ****** ******
      ****** ****** ****** ****** ****** ****** ****** ****** ****** ******
  22  ****** ****** ****** ****** ****** ****** ****** ****** ****** ******
      ****** ****** ****** ****** ****** ****** ****** ****** ****** ******
      ****** ****** ****** ****** ****** ****** ****** ****** ****** ******
  23  ****** ****** ****** ****** ****** ****** ****** ****** ****** ******
      ****** ****** ****** ****** ****** ****** ****** ****** ****** ******
      ****** ****** ****** ****** ****** ****** ****** ****** ****** ******
  24  ****** ****** ****** ****** ****** ****** ****** ****** ****** ******
      ****** ****** ****** ****** ****** ****** ****** ****** ****** ******
      ****** ****** ****** ****** ****** ****** ****** ****** ****** ******
  25  ****** ****** ****** ****** ****** ****** ****** ****** ****** ******
      ****** ****** ****** ****** ****** ****** ****** ****** ****** ******
      ****** ****** ****** ****** ****** ****** ****** ****** ****** ******

 HEAD WILL BE SAVED ON UNIT   51 AT END OF TIME STEP    1, STRESS PERIOD    7
1
  VOLUMETRIC BUDGET FOR ENTIRE MODEL AT END OF TIME STEP    1, STRESS PERIOD   7
  ------------------------------------------------------------------------------

     CUMULATIVE VOLUMES      L**3       RATES FOR THIS TIME STEP      L**3/T
     ------------------                 ------------------------

           IN:                                      IN:
           ---                                      ---
             STORAGE =    31830209.6716               STORAGE =       22043.9300
       CONSTANT HEAD =    15453945.6157         CONSTANT HEAD =       31717.6379
               WELLS =           0.0000                 WELLS =           0.0000
            RECHARGE =    15097200.0000              RECHARGE =           0.0000
      STREAM LEAKAGE =    19827077.7194        STREAM LEAKAGE =       39104.2514

            TOTAL IN =    82208433.0066              TOTAL IN =       92865.8192

          OUT:                                     OUT:
          ----                                     ----
             STORAGE =      844344.1783               STORAGE =           0.0000
       CONSTANT HEAD =           0.0000         CONSTANT HEAD =           0.0000
               WELLS =    34857438.2692                 WELLS =       54549.9816
            RECHARGE =           0.0000              RECHARGE =           0.0000
      STREAM LEAKAGE =    46506653.0207        STREAM LEAKAGE =       38315.8429

           TOTAL OUT =    82208435.4682             TOTAL OUT =       92865.8245

            IN - OUT =          -2.4616              IN - OUT =      -5.2640E-03

 PERCENT DISCREPANCY =          -0.00     PERCENT DISCREPANCY =          -0.00






         TIME SUMMARY AT END OF TIME STEP    1 IN STRESS PERIOD    7
                    SECONDS     MINUTES      HOURS       DAYS        YEARS
                    -----------------------------------------------------------
   TIME STEP LENGTH 7.86240E+06 1.31040E+05  2184.0      91.000     0.24914    
 STRESS PERIOD TIME 7.86240E+06 1.31040E+05  2184.0      91.000     0.24914    
         TOTAL TIME 5.52096E+07 9.20160E+05  15336.      639.00      1.7495    
1
1
                            STRESS PERIOD NO.    8, LENGTH =   91.00000    
                            -----------------------------------------------

                              NUMBER OF TIME STEPS =     1

                               MULTIPLIER FOR DELT =     1.500

                            INITIAL TIME STEP SIZE =   91.00000    

 WELL NO.  LAYER   ROW   COL   STRESS RATE         
 --------------------------------------------------
      1      1     19     29     -0.1190E+05
      2      1     13     22     -0.1207E+05
      3      1     11     24     -0.1308E+05
      4      1     17     29     -0.1750E+05

      4 WELLS

                 RECHARGE =  1.000000E-03

 REUSING STREAM SEGMENT DATA FROM LAST STRESS PERIOD
 
 SOLVING FOR HEAD 


     6 CALLS TO PCG ROUTINE FOR TIME STEP   1 IN STRESS PERIOD    8
    22 TOTAL ITERATIONS

 OUTPUT CONTROL FOR STRESS PERIOD    8   TIME STEP    1
    SAVE BUDGET
    SAVE HEAD FOR ALL LAYERS
    PRINT HEAD FOR ALL LAYERS
 UBDSV2 SAVING "STREAMFLOW OUT  " ON UNIT  50 AT TIME STEP  1, STRESS PERIOD   8



 STREAM LISTING     PERIOD      8   STEP        1

 LAYER ROW COL. STREAM  RCH.  FLOW INTO     FLOW TO   FLOW OUT OF   OVRLND.     DIRECT     STREAM       STREAM     STREAM     STREAM   STREAMBED  STREAMBED
                SEG.NO.  NO.  STRM. RCH.    AQUIFER    STRM. RCH.    RUNOFF     PRECIP       ET          HEAD       DEPTH      WIDTH   CONDCTNC.   GRADIENT

   1   13    1     1     1    1.0000E+05 -1.8953E+03   1.0190E+05  0.000E+00  0.000E+00  0.000E+00  4.84068E+01  1.455E-01  2.000E+01  2.000E+04 -9.477E-02
   1   13    2     1     2    1.0190E+05 -2.8692E+03   1.0476E+05  0.000E+00  0.000E+00  0.000E+00  4.79316E+01  1.475E-01  2.000E+01  2.000E+04 -1.435E-01
   1   14    3     1     3    1.0476E+05 -4.8119E+02   1.0525E+05  0.000E+00  0.000E+00  0.000E+00  4.74558E+01  1.490E-01  2.000E+01  2.000E+04 -2.406E-02
   1   15    4     1     4    1.0525E+05 -4.5289E+02   1.0570E+05  0.000E+00  0.000E+00  0.000E+00  4.69789E+01  1.494E-01  2.000E+01  2.000E+04 -2.264E-02
   1   16    5     1     5    1.0570E+05 -1.6712E+03   1.0737E+05  0.000E+00  0.000E+00  0.000E+00  4.65025E+01  1.503E-01  2.000E+01  2.000E+04 -8.356E-02
   1   16    6     1     6    1.0737E+05 -1.0677E+03   1.0844E+05  0.000E+00  0.000E+00  0.000E+00  4.60264E+01  1.514E-01  2.000E+01  2.000E+04 -5.338E-02
   1   16    7     1     7    1.0844E+05 -1.0531E+03   1.0949E+05  0.000E+00  0.000E+00  0.000E+00  4.55500E+01  1.523E-01  2.000E+01  2.000E+04 -5.265E-02
   1   16    8     1     8    1.0949E+05 -1.0526E+03   1.1054E+05  0.000E+00  0.000E+00  0.000E+00  4.50736E+01  1.532E-01  2.000E+01  2.000E+04 -5.263E-02
   1   16    9     1     9    1.1054E+05 -1.0484E+03   1.1159E+05  0.000E+00  0.000E+00  0.000E+00  4.45972E+01  1.541E-01  2.000E+01  2.000E+04 -5.242E-02
   1   16   10     1    10    1.1159E+05 -1.0404E+03   1.1263E+05  0.000E+00  0.000E+00  0.000E+00  4.41208E+01  1.549E-01  2.000E+01  2.000E+04 -5.202E-02
   1   16   11     1    11    1.1263E+05 -1.0489E+03   1.1368E+05  0.000E+00  0.000E+00  0.000E+00  4.36444E+01  1.558E-01  2.000E+01  2.000E+04 -5.245E-02
   1   16   12     1    12    1.1368E+05 -1.7946E+03   1.1548E+05  0.000E+00  0.000E+00  0.000E+00  4.31683E+01  1.570E-01  2.000E+01  2.000E+04 -8.973E-02
   1   15   13     1    13    1.1548E+05 -1.7225E+03   1.1720E+05  0.000E+00  0.000E+00  0.000E+00  4.26925E+01  1.584E-01  2.000E+01  2.000E+04 -8.612E-02
   1   14   14     1    14    1.1720E+05 -1.9956E+03   1.1919E+05  0.000E+00  0.000E+00  0.000E+00  4.22167E+01  1.599E-01  2.000E+01  2.000E+04 -9.978E-02
   1   13   15     1    15    1.1919E+05 -2.2868E+03   1.2148E+05  0.000E+00  0.000E+00  0.000E+00  4.17412E+01  1.616E-01  2.000E+01  2.000E+04 -1.143E-01
   1   12   16     1    16    1.2148E+05 -2.8636E+03   1.2434E+05  0.000E+00  0.000E+00  0.000E+00  4.12660E+01  1.637E-01  2.000E+01  2.000E+04 -1.432E-01
   1   12   17     1    17    1.2434E+05 -1.8185E+03   1.2616E+05  0.000E+00  0.000E+00  0.000E+00  4.07906E+01  1.656E-01  2.000E+01  2.000E+04 -9.093E-02
   1   12   18     1    18    1.2616E+05 -1.6327E+03   1.2780E+05  0.000E+00  0.000E+00  0.000E+00  4.03147E+01  1.669E-01  2.000E+01  2.000E+04 -8.164E-02
   1   12   19     1    19    1.2780E+05 -1.4793E+03   1.2927E+05  0.000E+00  0.000E+00  0.000E+00  3.98386E+01  1.682E-01  2.000E+01  2.000E+04 -7.397E-02
   1   13   20     1    20    1.2927E+05  3.5528E+02   1.2892E+05  0.000E+00  0.000E+00  0.000E+00  3.93618E+01  1.686E-01  2.000E+01  2.000E+04  1.776E-02
   1   14   21     1    21    1.2892E+05  7.5831E+01   1.2884E+05  0.000E+00  0.000E+00  0.000E+00  3.88843E+01  1.684E-01  2.000E+01  2.000E+04  3.792E-03
   1   14   22     1    22    1.2884E+05  6.7318E+03   1.2211E+05  0.000E+00  0.000E+00  0.000E+00  3.84044E+01  1.658E-01  2.000E+01  2.000E+04  3.366E-01
   1    9   30     2     1    5.0000E+04 -3.4668E+02   5.0347E+04  0.000E+00  0.000E+00  0.000E+00  4.02411E+01  1.161E-01  2.000E+01  2.000E+04 -1.733E-02
   1    9   29     2     2    5.0347E+04 -6.5359E+02   5.1000E+04  0.000E+00  0.000E+00  0.000E+00  3.99918E+01  1.168E-01  2.000E+01  2.000E+04 -3.268E-02
   1    9   28     2     3    5.1000E+04 -9.1168E+02   5.1912E+04  0.000E+00  0.000E+00  0.000E+00  3.97429E+01  1.179E-01  2.000E+01  2.000E+04 -4.558E-02
   1    9   27     2     4    5.1912E+04 -1.9141E+03   5.3826E+04  0.000E+00  0.000E+00  0.000E+00  3.94948E+01  1.198E-01  2.000E+01  2.000E+04 -9.570E-02
   1   10   26     2     5    5.3826E+04 -4.7446E+02   5.4301E+04  0.000E+00  0.000E+00  0.000E+00  3.92464E+01  1.214E-01  2.000E+01  2.000E+04 -2.372E-02
   1   11   25     2     6    5.4301E+04  3.5795E+03   5.0721E+04  0.000E+00  0.000E+00  0.000E+00  3.89943E+01  1.193E-01  2.000E+01  2.000E+04  1.790E-01
   1   12   24     2     7    5.0721E+04  4.2933E+03   4.6428E+04  0.000E+00  0.000E+00  0.000E+00  3.87389E+01  1.139E-01  2.000E+01  2.000E+04  2.147E-01
   1   13   23     2     8    4.6428E+04  9.6426E+02   4.5463E+04  0.000E+00  0.000E+00  0.000E+00  3.84851E+01  1.101E-01  2.000E+01  2.000E+04  4.821E-02
   1   14   22     2     9    4.5463E+04  3.2850E+03   4.2178E+04  0.000E+00  0.000E+00  0.000E+00  3.82320E+01  1.070E-01  2.000E+01  2.000E+04  1.642E-01
   1   14   22     3     1    1.6429E+05 -6.9702E+03   1.7126E+05  0.000E+00  0.000E+00  0.000E+00  3.77193E+01  1.637E-01  2.000E+01  2.000E+04 -3.485E-01
   1   15   23     3     2    1.7126E+05 -5.0741E+02   1.7177E+05  0.000E+00  0.000E+00  0.000E+00  3.68326E+01  1.659E-01  2.000E+01  2.000E+04 -2.537E-02
   1   15   24     3     3    1.7177E+05 -2.5432E+02   1.7202E+05  0.000E+00  0.000E+00  0.000E+00  3.59439E+01  1.661E-01  2.000E+01  2.000E+04 -1.272E-02
   1   15   25     3     4    1.7202E+05 -2.3550E+02   1.7226E+05  0.000E+00  0.000E+00  0.000E+00  3.50552E+01  1.663E-01  2.000E+01  2.000E+04 -1.177E-02
   1   15   26     3     5    1.7226E+05 -1.9475E+02   1.7245E+05  0.000E+00  0.000E+00  0.000E+00  3.41664E+01  1.664E-01  2.000E+01  2.000E+04 -9.737E-03
   1   16   27     3     6    1.7245E+05  6.6726E+01   1.7239E+05  0.000E+00  0.000E+00  0.000E+00  3.32775E+01  1.664E-01  2.000E+01  2.000E+04  3.336E-03
   1   17   28     3     7    1.7239E+05  6.7237E+03   1.6566E+05  0.000E+00  0.000E+00  0.000E+00  3.23867E+01  1.645E-01  2.000E+01  2.000E+04  3.362E-01
   1   18   29     3     8    1.6566E+05  8.8843E+03   1.5678E+05  0.000E+00  0.000E+00  0.000E+00  3.14932E+01  1.599E-01  2.000E+01  2.000E+04  4.442E-01
   1   18   30     3     9    1.5678E+05  2.6429E+03   1.5413E+05  0.000E+00  0.000E+00  0.000E+00  3.06009E+01  1.564E-01  2.000E+01  2.000E+04  1.321E-01



1
              HEAD IN LAYER   1 AT END OF TIME STEP   1 IN STRESS PERIOD    8
  ---------------------------------------------------------------------------

          1      2      3      4      5      6      7      8      9     10
         11     12     13     14     15     16     17     18     19     20
         21     22     23     24     25     26     27     28     29     30
 .........................................................................
   1  ****** ****** ****** ****** ****** ****** ****** ****** ****** ******
      ****** ****** ****** ****** ****** ****** ****** ****** ****** ******
      ****** ****** ****** ****** ****** ****** ****** ****** ****** ******
   2  ****** ****** ****** ****** ****** ****** ****** ****** ****** ******
      ****** ****** ****** ****** ****** ****** ****** ****** ****** ******
      ****** ****** ****** ****** ****** ****** ****** ****** ****** ******
   3  ****** ****** ****** ****** ****** ****** ****** ****** ****** ******
      ****** ****** ****** ****** ****** ****** ****** ****** ****** ******
      ****** ****** ****** ****** ****** ****** ****** ****** ****** ******
   4  ****** ****** ****** ****** ****** ****** ****** ****** ****** ******
      ****** ****** ****** ****** ****** ****** ****** ****** ****** ******
      ****** ****** ****** ****** ****** ****** ****** ****** ****** ******
   5  ****** ****** ****** ****** ****** ****** ****** ****** ****** ******
      ****** ****** ****** ****** ****** ****** ****** ****** ****** ******
      ****** ****** ****** ****** ****** ****** ****** ****** ****** ******
   6  ****** ****** ****** ****** ****** ****** ****** ****** ****** ******
      ****** ****** ****** ****** ****** ****** ****** ****** ****** ******
      ****** ****** ****** ****** ****** ****** ****** ****** ****** ******
   7  ****** ****** ****** ****** ****** ****** ****** ****** ****** ******
      ****** ****** ****** ****** ****** ****** ****** ****** ****** ******
      ****** ****** ****** ****** ****** ****** ****** ****** ****** ******
   8  ****** ****** ****** ****** ****** ****** ****** ****** ****** ******
      ****** ****** ****** ****** ****** ****** ****** ****** ****** ******
      ****** ****** ****** ****** ****** ****** ****** ****** ****** ******
   9  ****** ****** ****** ****** ****** ****** ****** ****** ****** ******
      ****** ****** ****** ****** ****** ****** ****** ****** ****** ******
      ****** ****** ****** ****** ****** ****** ****** ****** ****** ******
  10  ****** ****** ****** ****** ****** ****** ****** ****** ****** ******
      ****** ****** ****** ****** ****** ****** ****** ****** ****** ******
      ****** ****** ****** ****** ****** ****** ****** ****** ****** ******
  11  ****** ****** ****** ****** ****** ****** ****** ****** ****** ******
      ****** ****** ****** ****** ****** ****** ****** ****** ****** ******
      ****** ****** ****** ****** ****** ****** ****** ****** ****** ******
  12  ****** ****** ****** ****** ****** ****** ****** ****** ****** ******
      ****** ****** ****** ****** ****** ****** ****** ****** ****** ******
      ****** ****** ****** ****** ****** ****** ****** ****** ****** ******
  13  ****** ****** ****** ****** ****** ****** ****** ****** ****** ******
      ****** ****** ****** ****** ****** ****** ****** ****** ****** ******
      ****** ****** ****** ****** ****** ****** ****** ****** ****** ******
  14  ****** ****** ****** ****** ****** ****** ****** ****** ****** ******
      ****** ****** ****** ****** ****** ****** ****** ****** ****** ******
      ****** ****** ****** ****** ****** ****** ****** ****** ****** ******
  15  ****** ****** ****** ****** ****** ****** ****** ****** ****** ******
      ****** ****** ****** ****** ****** ****** ****** ****** ****** ******
      ****** ****** ****** ****** ****** ****** ****** ****** ****** ******
  16  ****** ****** ****** ****** ****** ****** ****** ****** ****** ******
      ****** ****** ****** ****** ****** ****** ****** ****** ****** ******
      ****** ****** ****** ****** ****** ****** ****** ****** ****** ******
  17  ****** ****** ****** ****** ****** ****** ****** ****** ****** ******
      ****** ****** ****** ****** ****** ****** ****** ****** ****** ******
      ****** ****** ****** ****** ****** ****** ****** ****** ****** ******
  18  ****** ****** ****** ****** ****** ****** ****** ****** ****** ******
      ****** ****** ****** ****** ****** ****** ****** ****** ****** ******
      ****** ****** ****** ****** ****** ****** ****** ****** ****** ******
  19  ****** ****** ****** ****** ****** ****** ****** ****** ****** ******
      ****** ****** ****** ****** ****** ****** ****** ****** ****** ******
      ****** ****** ****** ****** ****** ****** ****** ****** ****** ******
  20  ****** ****** ****** ****** ****** ****** ****** ****** ****** ******
      ****** ****** ****** ****** ****** ****** ****** ****** ****** ******
      ****** ****** ****** ****** ****** ****** ****** ****** ****** ******
  21  ****** ****** ****** ****** ****** ****** ****** ****** ****** ******
      ****** ****** ****** ****** ****** ****** ****** ****** ****** ******
      ****** ****** ****** ****** ****** ****** ****** ****** ****** ******
  22  ****** ****** ****** ****** ****** ****** ****** ****** ****** ******
      ****** ****** ****** ****** ****** ****** ****** ****** ****** ******
      ****** ****** ****** ****** ****** ****** ****** ****** ****** ******
  23  ****** ****** ****** ****** ****** ****** ****** ****** ****** ******
      ****** ****** ****** ****** ****** ****** ****** ****** ****** ******
      ****** ****** ****** ****** ****** ****** ****** ****** ****** ******
  24  ****** ****** ****** ****** ****** ****** ****** ****** ****** ******
      ****** ****** ****** ****** ****** ****** ****** ****** ****** ******
      ****** ****** ****** ****** ****** ****** ****** ****** ****** ******
  25  ****** ****** ****** ****** ****** ****** ****** ****** ****** ******
      ****** ****** ****** ****** ****** ****** ****** ****** ****** ******
      ****** ****** ****** ****** ****** ****** ****** ****** ****** ******

 HEAD WILL BE SAVED ON UNIT   51 AT END OF TIME STEP    1, STRESS PERIOD    8
1
  VOLUMETRIC BUDGET FOR ENTIRE MODEL AT END OF TIME STEP    1, STRESS PERIOD   8
  ------------------------------------------------------------------------------

     CUMULATIVE VOLUMES      L**3       RATES FOR THIS TIME STEP      L**3/T
     ------------------                 ------------------------

           IN:                                      IN:
           ---                                      ---
             STORAGE =    31949055.1708               STORAGE =        1305.9945
       CONSTANT HEAD =    18310826.9717         CONSTANT HEAD =       31394.3006
               WELLS =           0.0000                 WELLS =           0.0000
            RECHARGE =    17608800.0000              RECHARGE =       27600.0000
      STREAM LEAKAGE =    23248913.1088        STREAM LEAKAGE =       37602.5867

            TOTAL IN =    91117595.2513              TOTAL IN =       97902.8818

          OUT:                                     OUT:
          ----                                     ----
             STORAGE =      991354.5212               STORAGE =        1615.4983
       CONSTANT HEAD =           0.0000         CONSTANT HEAD =           0.0000
               WELLS =    39821486.5986                 WELLS =       54549.9816
            RECHARGE =           0.0000              RECHARGE =           0.0000
      STREAM LEAKAGE =    50304755.8302        STREAM LEAKAGE =       41737.3935

           TOTAL OUT =    91117596.9500             TOTAL OUT =       97902.8734

            IN - OUT =          -1.6987              IN - OUT =       8.3828E-03

 PERCENT DISCREPANCY =          -0.00     PERCENT DISCREPANCY =           0.00






         TIME SUMMARY AT END OF TIME STEP    1 IN STRESS PERIOD    8
                    SECONDS     MINUTES      HOURS       DAYS        YEARS
                    -----------------------------------------------------------
   TIME STEP LENGTH 7.86240E+06 1.31040E+05  2184.0      91.000     0.24914    
 STRESS PERIOD TIME 7.86240E+06 1.31040E+05  2184.0      91.000     0.24914    
         TOTAL TIME 6.30720E+07 1.05120E+06  17520.      730.00      1.9986    
1
1
                            STRESS PERIOD NO.    9, LENGTH =   92.00000    
                            -----------------------------------------------

                              NUMBER OF TIME STEPS =     1

                               MULTIPLIER FOR DELT =     1.500

                            INITIAL TIME STEP SIZE =   92.00000    

 WELL NO.  LAYER   ROW   COL   STRESS RATE         
 --------------------------------------------------
      1      1     19     29     -0.1190E+05
      2      1     13     22     -0.1207E+05
      3      1     11     24     -0.1308E+05
      4      1     17     29     -0.1750E+05

      4 WELLS

                 RECHARGE =  5.000000E-04

 REUSING STREAM SEGMENT DATA FROM LAST STRESS PERIOD
 
 SOLVING FOR HEAD 


     6 CALLS TO PCG ROUTINE FOR TIME STEP   1 IN STRESS PERIOD    9
    23 TOTAL ITERATIONS

 OUTPUT CONTROL FOR STRESS PERIOD    9   TIME STEP    1
    SAVE BUDGET
    SAVE HEAD FOR ALL LAYERS
    PRINT HEAD FOR ALL LAYERS
 UBDSV2 SAVING "STREAMFLOW OUT  " ON UNIT  50 AT TIME STEP  1, STRESS PERIOD   9



 STREAM LISTING     PERIOD      9   STEP        1

 LAYER ROW COL. STREAM  RCH.  FLOW INTO     FLOW TO   FLOW OUT OF   OVRLND.     DIRECT     STREAM       STREAM     STREAM     STREAM   STREAMBED  STREAMBED
                SEG.NO.  NO.  STRM. RCH.    AQUIFER    STRM. RCH.    RUNOFF     PRECIP       ET          HEAD       DEPTH      WIDTH   CONDCTNC.   GRADIENT

   1   13    1     1     1    1.0000E+05 -1.6853E+03   1.0169E+05  0.000E+00  0.000E+00  0.000E+00  4.84067E+01  1.454E-01  2.000E+01  2.000E+04 -8.427E-02
   1   13    2     1     2    1.0169E+05 -2.6316E+03   1.0432E+05  0.000E+00  0.000E+00  0.000E+00  4.79313E+01  1.472E-01  2.000E+01  2.000E+04 -1.316E-01
   1   14    3     1     3    1.0432E+05 -4.1114E+02   1.0473E+05  0.000E+00  0.000E+00  0.000E+00  4.74554E+01  1.485E-01  2.000E+01  2.000E+04 -2.056E-02
   1   15    4     1     4    1.0473E+05 -3.8169E+02   1.0511E+05  0.000E+00  0.000E+00  0.000E+00  4.69784E+01  1.489E-01  2.000E+01  2.000E+04 -1.908E-02
   1   16    5     1     5    1.0511E+05 -1.4797E+03   1.0659E+05  0.000E+00  0.000E+00  0.000E+00  4.65019E+01  1.497E-01  2.000E+01  2.000E+04 -7.399E-02
   1   16    6     1     6    1.0659E+05 -9.4851E+02   1.0754E+05  0.000E+00  0.000E+00  0.000E+00  4.60257E+01  1.507E-01  2.000E+01  2.000E+04 -4.743E-02
   1   16    7     1     7    1.0754E+05 -9.3765E+02   1.0848E+05  0.000E+00  0.000E+00  0.000E+00  4.55492E+01  1.515E-01  2.000E+01  2.000E+04 -4.688E-02
   1   16    8     1     8    1.0848E+05 -9.3869E+02   1.0941E+05  0.000E+00  0.000E+00  0.000E+00  4.50727E+01  1.523E-01  2.000E+01  2.000E+04 -4.693E-02
   1   16    9     1     9    1.0941E+05 -9.3604E+02   1.1035E+05  0.000E+00  0.000E+00  0.000E+00  4.45962E+01  1.531E-01  2.000E+01  2.000E+04 -4.680E-02
   1   16   10     1    10    1.1035E+05 -9.3000E+02   1.1128E+05  0.000E+00  0.000E+00  0.000E+00  4.41198E+01  1.538E-01  2.000E+01  2.000E+04 -4.650E-02
   1   16   11     1    11    1.1128E+05 -9.3944E+02   1.1222E+05  0.000E+00  0.000E+00  0.000E+00  4.36433E+01  1.546E-01  2.000E+01  2.000E+04 -4.697E-02
   1   16   12     1    12    1.1222E+05 -1.6075E+03   1.1383E+05  0.000E+00  0.000E+00  0.000E+00  4.31670E+01  1.557E-01  2.000E+01  2.000E+04 -8.038E-02
   1   15   13     1    13    1.1383E+05 -1.5149E+03   1.1534E+05  0.000E+00  0.000E+00  0.000E+00  4.26911E+01  1.570E-01  2.000E+01  2.000E+04 -7.575E-02
   1   14   14     1    14    1.1534E+05 -1.7752E+03   1.1712E+05  0.000E+00  0.000E+00  0.000E+00  4.22151E+01  1.583E-01  2.000E+01  2.000E+04 -8.876E-02
   1   13   15     1    15    1.1712E+05 -2.0612E+03   1.1918E+05  0.000E+00  0.000E+00  0.000E+00  4.17394E+01  1.599E-01  2.000E+01  2.000E+04 -1.031E-01
   1   12   16     1    16    1.1918E+05 -2.6307E+03   1.2181E+05  0.000E+00  0.000E+00  0.000E+00  4.12640E+01  1.618E-01  2.000E+01  2.000E+04 -1.315E-01
   1   12   17     1    17    1.2181E+05 -1.6580E+03   1.2347E+05  0.000E+00  0.000E+00  0.000E+00  4.07885E+01  1.635E-01  2.000E+01  2.000E+04 -8.290E-02
   1   12   18     1    18    1.2347E+05 -1.4793E+03   1.2495E+05  0.000E+00  0.000E+00  0.000E+00  4.03125E+01  1.647E-01  2.000E+01  2.000E+04 -7.397E-02
   1   12   19     1    19    1.2495E+05 -1.2946E+03   1.2624E+05  0.000E+00  0.000E+00  0.000E+00  3.98363E+01  1.658E-01  2.000E+01  2.000E+04 -6.473E-02
   1   13   20     1    20    1.2624E+05  5.2768E+02   1.2571E+05  0.000E+00  0.000E+00  0.000E+00  3.93593E+01  1.661E-01  2.000E+01  2.000E+04  2.638E-02
   1   14   21     1    21    1.2571E+05  2.4668E+02   1.2547E+05  0.000E+00  0.000E+00  0.000E+00  3.88818E+01  1.658E-01  2.000E+01  2.000E+04  1.233E-02
   1   14   22     1    22    1.2547E+05  6.7718E+03   1.1869E+05  0.000E+00  0.000E+00  0.000E+00  3.84017E+01  1.630E-01  2.000E+01  2.000E+04  3.386E-01
   1    9   30     2     1    5.0000E+04 -2.2385E+02   5.0224E+04  0.000E+00  0.000E+00  0.000E+00  4.02410E+01  1.160E-01  2.000E+01  2.000E+04 -1.119E-02
   1    9   29     2     2    5.0224E+04 -5.3058E+02   5.0754E+04  0.000E+00  0.000E+00  0.000E+00  3.99915E+01  1.165E-01  2.000E+01  2.000E+04 -2.653E-02
   1    9   28     2     3    5.0754E+04 -7.8687E+02   5.1541E+04  0.000E+00  0.000E+00  0.000E+00  3.97425E+01  1.175E-01  2.000E+01  2.000E+04 -3.934E-02
   1    9   27     2     4    5.1541E+04 -1.7389E+03   5.3280E+04  0.000E+00  0.000E+00  0.000E+00  3.94942E+01  1.192E-01  2.000E+01  2.000E+04 -8.694E-02
   1   10   26     2     5    5.3280E+04 -3.0190E+02   5.3582E+04  0.000E+00  0.000E+00  0.000E+00  3.92456E+01  1.206E-01  2.000E+01  2.000E+04 -1.510E-02
   1   11   25     2     6    5.3582E+04  3.7447E+03   4.9837E+04  0.000E+00  0.000E+00  0.000E+00  3.89932E+01  1.182E-01  2.000E+01  2.000E+04  1.872E-01
   1   12   24     2     7    4.9837E+04  4.4450E+03   4.5392E+04  0.000E+00  0.000E+00  0.000E+00  3.87375E+01  1.125E-01  2.000E+01  2.000E+04  2.223E-01
   1   13   23     2     8    4.5392E+04  1.0112E+03   4.4381E+04  0.000E+00  0.000E+00  0.000E+00  3.84836E+01  1.086E-01  2.000E+01  2.000E+04  5.056E-02
   1   14   22     2     9    4.4381E+04  3.3463E+03   4.1035E+04  0.000E+00  0.000E+00  0.000E+00  3.82304E+01  1.054E-01  2.000E+01  2.000E+04  1.673E-01
   1   14   22     3     1    1.5973E+05 -6.9300E+03   1.6666E+05  0.000E+00  0.000E+00  0.000E+00  3.77166E+01  1.610E-01  2.000E+01  2.000E+04 -3.465E-01
   1   15   23     3     2    1.6666E+05 -4.5499E+02   1.6711E+05  0.000E+00  0.000E+00  0.000E+00  3.68299E+01  1.632E-01  2.000E+01  2.000E+04 -2.275E-02
   1   15   24     3     3    1.6711E+05 -2.1138E+02   1.6733E+05  0.000E+00  0.000E+00  0.000E+00  3.59412E+01  1.634E-01  2.000E+01  2.000E+04 -1.057E-02
   1   15   25     3     4    1.6733E+05 -1.9228E+02   1.6752E+05  0.000E+00  0.000E+00  0.000E+00  3.50524E+01  1.635E-01  2.000E+01  2.000E+04 -9.614E-03
   1   15   26     3     5    1.6752E+05 -1.4719E+02   1.6767E+05  0.000E+00  0.000E+00  0.000E+00  3.41636E+01  1.636E-01  2.000E+01  2.000E+04 -7.360E-03
   1   16   27     3     6    1.6767E+05  1.2267E+02   1.6754E+05  0.000E+00  0.000E+00  0.000E+00  3.32747E+01  1.636E-01  2.000E+01  2.000E+04  6.133E-03
   1   17   28     3     7    1.6754E+05  6.8770E+03   1.6067E+05  0.000E+00  0.000E+00  0.000E+00  3.23838E+01  1.616E-01  2.000E+01  2.000E+04  3.439E-01
   1   18   29     3     8    1.6067E+05  9.0598E+03   1.5161E+05  0.000E+00  0.000E+00  0.000E+00  3.14902E+01  1.568E-01  2.000E+01  2.000E+04  4.530E-01
   1   18   30     3     9    1.5161E+05  2.7748E+03   1.4883E+05  0.000E+00  0.000E+00  0.000E+00  3.05977E+01  1.532E-01  2.000E+01  2.000E+04  1.387E-01



1
              HEAD IN LAYER   1 AT END OF TIME STEP   1 IN STRESS PERIOD    9
  ---------------------------------------------------------------------------

          1      2      3      4      5      6      7      8      9     10
         11     12     13     14     15     16     17     18     19     20
         21     22     23     24     25     26     27     28     29     30
 .........................................................................
   1  ****** ****** ****** ****** ****** ****** ****** ****** ****** ******
      ****** ****** ****** ****** ****** ****** ****** ****** ****** ******
      ****** ****** ****** ****** ****** ****** ****** ****** ****** ******
   2  ****** ****** ****** ****** ****** ****** ****** ****** ****** ******
      ****** ****** ****** ****** ****** ****** ****** ****** ****** ******
      ****** ****** ****** ****** ****** ****** ****** ****** ****** ******
   3  ****** ****** ****** ****** ****** ****** ****** ****** ****** ******
      ****** ****** ****** ****** ****** ****** ****** ****** ****** ******
      ****** ****** ****** ****** ****** ****** ****** ****** ****** ******
   4  ****** ****** ****** ****** ****** ****** ****** ****** ****** ******
      ****** ****** ****** ****** ****** ****** ****** ****** ****** ******
      ****** ****** ****** ****** ****** ****** ****** ****** ****** ******
   5  ****** ****** ****** ****** ****** ****** ****** ****** ****** ******
      ****** ****** ****** ****** ****** ****** ****** ****** ****** ******
      ****** ****** ****** ****** ****** ****** ****** ****** ****** ******
   6  ****** ****** ****** ****** ****** ****** ****** ****** ****** ******
      ****** ****** ****** ****** ****** ****** ****** ****** ****** ******
      ****** ****** ****** ****** ****** ****** ****** ****** ****** ******
   7  ****** ****** ****** ****** ****** ****** ****** ****** ****** ******
      ****** ****** ****** ****** ****** ****** ****** ****** ****** ******
      ****** ****** ****** ****** ****** ****** ****** ****** ****** ******
   8  ****** ****** ****** ****** ****** ****** ****** ****** ****** ******
      ****** ****** ****** ****** ****** ****** ****** ****** ****** ******
      ****** ****** ****** ****** ****** ****** ****** ****** ****** ******
   9  ****** ****** ****** ****** ****** ****** ****** ****** ****** ******
      ****** ****** ****** ****** ****** ****** ****** ****** ****** ******
      ****** ****** ****** ****** ****** ****** ****** ****** ****** ******
  10  ****** ****** ****** ****** ****** ****** ****** ****** ****** ******
      ****** ****** ****** ****** ****** ****** ****** ****** ****** ******
      ****** ****** ****** ****** ****** ****** ****** ****** ****** ******
  11  ****** ****** ****** ****** ****** ****** ****** ****** ****** ******
      ****** ****** ****** ****** ****** ****** ****** ****** ****** ******
      ****** ****** ****** ****** ****** ****** ****** ****** ****** ******
  12  ****** ****** ****** ****** ****** ****** ****** ****** ****** ******
      ****** ****** ****** ****** ****** ****** ****** ****** ****** ******
      ****** ****** ****** ****** ****** ****** ****** ****** ****** ******
  13  ****** ****** ****** ****** ****** ****** ****** ****** ****** ******
      ****** ****** ****** ****** ****** ****** ****** ****** ****** ******
      ****** ****** ****** ****** ****** ****** ****** ****** ****** ******
  14  ****** ****** ****** ****** ****** ****** ****** ****** ****** ******
      ****** ****** ****** ****** ****** ****** ****** ****** ****** ******
      ****** ****** ****** ****** ****** ****** ****** ****** ****** ******
  15  ****** ****** ****** ****** ****** ****** ****** ****** ****** ******
      ****** ****** ****** ****** ****** ****** ****** ****** ****** ******
      ****** ****** ****** ****** ****** ****** ****** ****** ****** ******
  16  ****** ****** ****** ****** ****** ****** ****** ****** ****** ******
      ****** ****** ****** ****** ****** ****** ****** ****** ****** ******
      ****** ****** ****** ****** ****** ****** ****** ****** ****** ******
  17  ****** ****** ****** ****** ****** ****** ****** ****** ****** ******
      ****** ****** ****** ****** ****** ****** ****** ****** ****** ******
      ****** ****** ****** ****** ****** ****** ****** ****** ****** ******
  18  ****** ****** ****** ****** ****** ****** ****** ****** ****** ******
      ****** ****** ****** ****** ****** ****** ****** ****** ****** ******
      ****** ****** ****** ****** ****** ****** ****** ****** ****** ******
  19  ****** ****** ****** ****** ****** ****** ****** ****** ****** ******
      ****** ****** ****** ****** ****** ****** ****** ****** ****** ******
      ****** ****** ****** ****** ****** ****** ****** ****** ****** ******
  20  ****** ****** ****** ****** ****** ****** ****** ****** ****** ******
      ****** ****** ****** ****** ****** ****** ****** ****** ****** ******
      ****** ****** ****** ****** ****** ****** ****** ****** ****** ******
  21  ****** ****** ****** ****** ****** ****** ****** ****** ****** ******
      ****** ****** ****** ****** ****** ****** ****** ****** ****** ******
      ****** ****** ****** ****** ****** ****** ****** ****** ****** ******
  22  ****** ****** ****** ****** ****** ****** ****** ****** ****** ******
      ****** ****** ****** ****** ****** ****** ****** ****** ****** ******
      ****** ****** ****** ****** ****** ****** ****** ****** ****** ******
  23  ****** ****** ****** ****** ****** ****** ****** ****** ****** ******
      ****** ****** ****** ****** ****** ****** ****** ****** ****** ******
      ****** ****** ****** ****** ****** ****** ****** ****** ****** ******
  24  ****** ****** ****** ****** ****** ****** ****** ****** ****** ******
      ****** ****** ****** ****** ****** ****** ****** ****** ****** ******
      ****** ****** ****** ****** ****** ****** ****** ****** ****** ******
  25  ****** ****** ****** ****** ****** ****** ****** ****** ****** ******
      ****** ****** ****** ****** ****** ****** ****** ****** ****** ******
      ****** ****** ****** ****** ****** ****** ****** ****** ****** ******

 HEAD WILL BE SAVED ON UNIT   51 AT END OF TIME STEP    1, STRESS PERIOD    9
1
  VOLUMETRIC BUDGET FOR ENTIRE MODEL AT END OF TIME STEP    1, STRESS PERIOD   9
  ------------------------------------------------------------------------------

     CUMULATIVE VOLUMES      L**3       RATES FOR THIS TIME STEP      L**3/T
     ------------------                 ------------------------

           IN:                                      IN:
           ---                                      ---
             STORAGE =    32596802.8393               STORAGE =        7040.7355
       CONSTANT HEAD =    21304569.6983         CONSTANT HEAD =       32540.6818
               WELLS =           0.0000                 WELLS =           0.0000
            RECHARGE =    18878400.0000              RECHARGE =       13800.0000
      STREAM LEAKAGE =    26830255.4409        STREAM LEAKAGE =       38927.6340

            TOTAL IN =    99610027.9785              TOTAL IN =       92309.0514

          OUT:                                     OUT:
          ----                                     ----
             STORAGE =      991354.5212               STORAGE =           0.0000
       CONSTANT HEAD =           0.0000         CONSTANT HEAD =           0.0000
               WELLS =    44840084.9097                 WELLS =       54549.9816
            RECHARGE =           0.0000              RECHARGE =           0.0000
      STREAM LEAKAGE =    53778590.3125        STREAM LEAKAGE =       37759.0705

           TOTAL OUT =    99610029.7434             TOTAL OUT =       92309.0521

            IN - OUT =          -1.7649              IN - OUT =      -7.1904E-04

 PERCENT DISCREPANCY =          -0.00     PERCENT DISCREPANCY =          -0.00






         TIME SUMMARY AT END OF TIME STEP    1 IN STRESS PERIOD    9
                    SECONDS     MINUTES      HOURS       DAYS        YEARS
                    -----------------------------------------------------------
   TIME STEP LENGTH 7.94880E+06 1.32480E+05  2208.0      92.000     0.25188    
 STRESS PERIOD TIME 7.94880E+06 1.32480E+05  2208.0      92.000     0.25188    
         TOTAL TIME 7.10208E+07 1.18368E+06  19728.      822.00      2.2505    
1
1
                            STRESS PERIOD NO.   10, LENGTH =   91.00000    
                            -----------------------------------------------

                              NUMBER OF TIME STEPS =     1

                               MULTIPLIER FOR DELT =     1.500

                            INITIAL TIME STEP SIZE =   91.00000    

 WELL NO.  LAYER   ROW   COL   STRESS RATE         
 --------------------------------------------------
      1      1     19     29     -0.1190E+05
      2      1     13     22     -0.1207E+05
      3      1     11     24     -0.1308E+05
      4      1     17     29     -0.1750E+05

      4 WELLS

                 RECHARGE =  2.000000E-03

 REUSING STREAM SEGMENT DATA FROM LAST STRESS PERIOD
 
 SOLVING FOR HEAD 


     7 CALLS TO PCG ROUTINE FOR TIME STEP   1 IN STRESS PERIOD   10
    26 TOTAL ITERATIONS

 OUTPUT CONTROL FOR STRESS PERIOD   10   TIME STEP    1
    SAVE BUDGET
    SAVE HEAD FOR ALL LAYERS
    PRINT HEAD FOR ALL LAYERS
 UBDSV2 SAVING "STREAMFLOW OUT  " ON UNIT  50 AT TIME STEP  1, STRESS PERIOD  10



 STREAM LISTING     PERIOD     10   STEP        1

 LAYER ROW COL. STREAM  RCH.  FLOW INTO     FLOW TO   FLOW OUT OF   OVRLND.     DIRECT     STREAM       STREAM     STREAM     STREAM   STREAMBED  STREAMBED
                SEG.NO.  NO.  STRM. RCH.    AQUIFER    STRM. RCH.    RUNOFF     PRECIP       ET          HEAD       DEPTH      WIDTH   CONDCTNC.   GRADIENT

   1   13    1     1     1    1.0000E+05 -2.1410E+03   1.0214E+05  0.000E+00  0.000E+00  0.000E+00  4.84069E+01  1.456E-01  2.000E+01  2.000E+04 -1.071E-01
   1   13    2     1     2    1.0214E+05 -3.1368E+03   1.0528E+05  0.000E+00  0.000E+00  0.000E+00  4.79319E+01  1.478E-01  2.000E+01  2.000E+04 -1.568E-01
   1   14    3     1     3    1.0528E+05 -5.9824E+02   1.0588E+05  0.000E+00  0.000E+00  0.000E+00  4.74563E+01  1.494E-01  2.000E+01  2.000E+04 -2.991E-02
   1   15    4     1     4    1.0588E+05 -5.8160E+02   1.0646E+05  0.000E+00  0.000E+00  0.000E+00  4.69795E+01  1.499E-01  2.000E+01  2.000E+04 -2.908E-02
   1   16    5     1     5    1.0646E+05 -2.0993E+03   1.0856E+05  0.000E+00  0.000E+00  0.000E+00  4.65033E+01  1.511E-01  2.000E+01  2.000E+04 -1.050E-01
   1   16    6     1     6    1.0856E+05 -1.3113E+03   1.0987E+05  0.000E+00  0.000E+00  0.000E+00  4.60275E+01  1.525E-01  2.000E+01  2.000E+04 -6.556E-02
   1   16    7     1     7    1.0987E+05 -1.2827E+03   1.1115E+05  0.000E+00  0.000E+00  0.000E+00  4.55513E+01  1.536E-01  2.000E+01  2.000E+04 -6.413E-02
   1   16    8     1     8    1.1115E+05 -1.2782E+03   1.1243E+05  0.000E+00  0.000E+00  0.000E+00  4.50751E+01  1.547E-01  2.000E+01  2.000E+04 -6.391E-02
   1   16    9     1     9    1.1243E+05 -1.2740E+03   1.1370E+05  0.000E+00  0.000E+00  0.000E+00  4.45989E+01  1.557E-01  2.000E+01  2.000E+04 -6.370E-02
   1   16   10     1    10    1.1370E+05 -1.2681E+03   1.1497E+05  0.000E+00  0.000E+00  0.000E+00  4.41227E+01  1.568E-01  2.000E+01  2.000E+04 -6.340E-02
   1   16   11     1    11    1.1497E+05 -1.2809E+03   1.1625E+05  0.000E+00  0.000E+00  0.000E+00  4.36464E+01  1.578E-01  2.000E+01  2.000E+04 -6.404E-02
   1   16   12     1    12    1.1625E+05 -2.1777E+03   1.1843E+05  0.000E+00  0.000E+00  0.000E+00  4.31706E+01  1.592E-01  2.000E+01  2.000E+04 -1.089E-01
   1   15   13     1    13    1.1843E+05 -2.1028E+03   1.2053E+05  0.000E+00  0.000E+00  0.000E+00  4.26950E+01  1.610E-01  2.000E+01  2.000E+04 -1.051E-01
   1   14   14     1    14    1.2053E+05 -2.3708E+03   1.2290E+05  0.000E+00  0.000E+00  0.000E+00  4.22196E+01  1.628E-01  2.000E+01  2.000E+04 -1.185E-01
   1   13   15     1    15    1.2290E+05 -2.6471E+03   1.2555E+05  0.000E+00  0.000E+00  0.000E+00  4.17443E+01  1.648E-01  2.000E+01  2.000E+04 -1.324E-01
   1   12   16     1    16    1.2555E+05 -3.1960E+03   1.2875E+05  0.000E+00  0.000E+00  0.000E+00  4.12693E+01  1.671E-01  2.000E+01  2.000E+04 -1.598E-01
   1   12   17     1    17    1.2875E+05 -2.0852E+03   1.3083E+05  0.000E+00  0.000E+00  0.000E+00  4.07941E+01  1.691E-01  2.000E+01  2.000E+04 -1.043E-01
   1   12   18     1    18    1.3083E+05 -1.9022E+03   1.3273E+05  0.000E+00  0.000E+00  0.000E+00  4.03184E+01  1.707E-01  2.000E+01  2.000E+04 -9.511E-02
   1   12   19     1    19    1.3273E+05 -1.8149E+03   1.3455E+05  0.000E+00  0.000E+00  0.000E+00  3.98426E+01  1.721E-01  2.000E+01  2.000E+04 -9.075E-02
   1   13   20     1    20    1.3455E+05  5.4281E+00   1.3454E+05  0.000E+00  0.000E+00  0.000E+00  3.93660E+01  1.728E-01  2.000E+01  2.000E+04  2.714E-04
   1   14   21     1    21    1.3454E+05 -2.7912E+02   1.3482E+05  0.000E+00  0.000E+00  0.000E+00  3.88889E+01  1.729E-01  2.000E+01  2.000E+04 -1.396E-02
   1   14   22     1    22    1.3482E+05  6.6395E+03   1.2818E+05  0.000E+00  0.000E+00  0.000E+00  3.84091E+01  1.705E-01  2.000E+01  2.000E+04  3.320E-01
   1    9   30     2     1    5.0000E+04 -6.3845E+02   5.0638E+04  0.000E+00  0.000E+00  0.000E+00  4.02413E+01  1.163E-01  2.000E+01  2.000E+04 -3.192E-02
   1    9   29     2     2    5.0638E+04 -9.4291E+02   5.1581E+04  0.000E+00  0.000E+00  0.000E+00  3.99924E+01  1.174E-01  2.000E+01  2.000E+04 -4.715E-02
   1    9   28     2     3    5.1581E+04 -1.1985E+03   5.2780E+04  0.000E+00  0.000E+00  0.000E+00  3.97439E+01  1.189E-01  2.000E+01  2.000E+04 -5.992E-02
   1    9   27     2     4    5.2780E+04 -2.2928E+03   5.5073E+04  0.000E+00  0.000E+00  0.000E+00  3.94962E+01  1.212E-01  2.000E+01  2.000E+04 -1.146E-01
   1   10   26     2     5    5.5073E+04 -8.5572E+02   5.5928E+04  0.000E+00  0.000E+00  0.000E+00  3.92484E+01  1.234E-01  2.000E+01  2.000E+04 -4.279E-02
   1   11   25     2     6    5.5928E+04  3.2154E+03   5.2713E+04  0.000E+00  0.000E+00  0.000E+00  3.89968E+01  1.218E-01  2.000E+01  2.000E+04  1.608E-01
   1   12   24     2     7    5.2713E+04  3.9661E+03   4.8747E+04  0.000E+00  0.000E+00  0.000E+00  3.87419E+01  1.169E-01  2.000E+01  2.000E+04  1.983E-01
   1   13   23     2     8    4.8747E+04  8.6242E+02   4.7884E+04  0.000E+00  0.000E+00  0.000E+00  3.84885E+01  1.135E-01  2.000E+01  2.000E+04  4.312E-02
   1   14   22     2     9    4.7884E+04  3.1699E+03   4.4715E+04  0.000E+00  0.000E+00  0.000E+00  3.82356E+01  1.106E-01  2.000E+01  2.000E+04  1.585E-01
   1   14   22     3     1    1.7290E+05 -7.0569E+03   1.7995E+05  0.000E+00  0.000E+00  0.000E+00  3.77243E+01  1.687E-01  2.000E+01  2.000E+04 -3.528E-01
   1   15   23     3     2    1.7995E+05 -6.1759E+02   1.8057E+05  0.000E+00  0.000E+00  0.000E+00  3.68376E+01  1.709E-01  2.000E+01  2.000E+04 -3.088E-02
   1   15   24     3     3    1.8057E+05 -3.4859E+02   1.8092E+05  0.000E+00  0.000E+00  0.000E+00  3.59490E+01  1.712E-01  2.000E+01  2.000E+04 -1.743E-02
   1   15   25     3     4    1.8092E+05 -3.3290E+02   1.8125E+05  0.000E+00  0.000E+00  0.000E+00  3.50603E+01  1.714E-01  2.000E+01  2.000E+04 -1.664E-02
   1   15   26     3     5    1.8125E+05 -3.0945E+02   1.8156E+05  0.000E+00  0.000E+00  0.000E+00  3.41716E+01  1.716E-01  2.000E+01  2.000E+04 -1.547E-02
   1   16   27     3     6    1.8156E+05 -6.3234E+01   1.8163E+05  0.000E+00  0.000E+00  0.000E+00  3.32828E+01  1.717E-01  2.000E+01  2.000E+04 -3.162E-03
   1   17   28     3     7    1.8163E+05  6.3562E+03   1.7527E+05  0.000E+00  0.000E+00  0.000E+00  3.23921E+01  1.699E-01  2.000E+01  2.000E+04  3.178E-01
   1   18   29     3     8    1.7527E+05  8.5082E+03   1.6676E+05  0.000E+00  0.000E+00  0.000E+00  3.14990E+01  1.656E-01  2.000E+01  2.000E+04  4.254E-01
   1   18   30     3     9    1.6676E+05  2.3495E+03   1.6441E+05  0.000E+00  0.000E+00  0.000E+00  3.06069E+01  1.624E-01  2.000E+01  2.000E+04  1.175E-01



1
              HEAD IN LAYER   1 AT END OF TIME STEP   1 IN STRESS PERIOD   10
  ---------------------------------------------------------------------------

          1      2      3      4      5      6      7      8      9     10
         11     12     13     14     15     16     17     18     19     20
         21     22     23     24     25     26     27     28     29     30
 .........................................................................
   1  ****** ****** ****** ****** ****** ****** ****** ****** ****** ******
      ****** ****** ****** ****** ****** ****** ****** ****** ****** ******
      ****** ****** ****** ****** ****** ****** ****** ****** ****** ******
   2  ****** ****** ****** ****** ****** ****** ****** ****** ****** ******
      ****** ****** ****** ****** ****** ****** ****** ****** ****** ******
      ****** ****** ****** ****** ****** ****** ****** ****** ****** ******
   3  ****** ****** ****** ****** ****** ****** ****** ****** ****** ******
      ****** ****** ****** ****** ****** ****** ****** ****** ****** ******
      ****** ****** ****** ****** ****** ****** ****** ****** ****** ******
   4  ****** ****** ****** ****** ****** ****** ****** ****** ****** ******
      ****** ****** ****** ****** ****** ****** ****** ****** ****** ******
      ****** ****** ****** ****** ****** ****** ****** ****** ****** ******
   5  ****** ****** ****** ****** ****** ****** ****** ****** ****** ******
      ****** ****** ****** ****** ****** ****** ****** ****** ****** ******
      ****** ****** ****** ****** ****** ****** ****** ****** ****** ******
   6  ****** ****** ****** ****** ****** ****** ****** ****** ****** ******
      ****** ****** ****** ****** ****** ****** ****** ****** ****** ******
      ****** ****** ****** ****** ****** ****** ****** ****** ****** ******
   7  ****** ****** ****** ****** ****** ****** ****** ****** ****** ******
      ****** ****** ****** ****** ****** ****** ****** ****** ****** ******
      ****** ****** ****** ****** ****** ****** ****** ****** ****** ******
   8  ****** ****** ****** ****** ****** ****** ****** ****** ****** ******
      ****** ****** ****** ****** ****** ****** ****** ****** ****** ******
      ****** ****** ****** ****** ****** ****** ****** ****** ****** ******
   9  ****** ****** ****** ****** ****** ****** ****** ****** ****** ******
      ****** ****** ****** ****** ****** ****** ****** ****** ****** ******
      ****** ****** ****** ****** ****** ****** ****** ****** ****** ******
  10  ****** ****** ****** ****** ****** ****** ****** ****** ****** ******
      ****** ****** ****** ****** ****** ****** ****** ****** ****** ******
      ****** ****** ****** ****** ****** ****** ****** ****** ****** ******
  11  ****** ****** ****** ****** ****** ****** ****** ****** ****** ******
      ****** ****** ****** ****** ****** ****** ****** ****** ****** ******
      ****** ****** ****** ****** ****** ****** ****** ****** ****** ******
  12  ****** ****** ****** ****** ****** ****** ****** ****** ****** ******
      ****** ****** ****** ****** ****** ****** ****** ****** ****** ******
      ****** ****** ****** ****** ****** ****** ****** ****** ****** ******
  13  ****** ****** ****** ****** ****** ****** ****** ****** ****** ******
      ****** ****** ****** ****** ****** ****** ****** ****** ****** ******
      ****** ****** ****** ****** ****** ****** ****** ****** ****** ******
  14  ****** ****** ****** ****** ****** ****** ****** ****** ****** ******
      ****** ****** ****** ****** ****** ****** ****** ****** ****** ******
      ****** ****** ****** ****** ****** ****** ****** ****** ****** ******
  15  ****** ****** ****** ****** ****** ****** ****** ****** ****** ******
      ****** ****** ****** ****** ****** ****** ****** ****** ****** ******
      ****** ****** ****** ****** ****** ****** ****** ****** ****** ******
  16  ****** ****** ****** ****** ****** ****** ****** ****** ****** ******
      ****** ****** ****** ****** ****** ****** ****** ****** ****** ******
      ****** ****** ****** ****** ****** ****** ****** ****** ****** ******
  17  ****** ****** ****** ****** ****** ****** ****** ****** ****** ******
      ****** ****** ****** ****** ****** ****** ****** ****** ****** ******
      ****** ****** ****** ****** ****** ****** ****** ****** ****** ******
  18  ****** ****** ****** ****** ****** ****** ****** ****** ****** ******
      ****** ****** ****** ****** ****** ****** ****** ****** ****** ******
      ****** ****** ****** ****** ****** ****** ****** ****** ****** ******
  19  ****** ****** ****** ****** ****** ****** ****** ****** ****** ******
      ****** ****** ****** ****** ****** ****** ****** ****** ****** ******
      ****** ****** ****** ****** ****** ****** ****** ****** ****** ******
  20  ****** ****** ****** ****** ****** ****** ****** ****** ****** ******
      ****** ****** ****** ****** ****** ****** ****** ****** ****** ******
      ****** ****** ****** ****** ****** ****** ****** ****** ****** ******
  21  ****** ****** ****** ****** ****** ****** ****** ****** ****** ******
      ****** ****** ****** ****** ****** ****** ****** ****** ****** ******
      ****** ****** ****** ****** ****** ****** ****** ****** ****** ******
  22  ****** ****** ****** ****** ****** ****** ****** ****** ****** ******
      ****** ****** ****** ****** ****** ****** ****** ****** ****** ******
      ****** ****** ****** ****** ****** ****** ****** ****** ****** ******
  23  ****** ****** ****** ****** ****** ****** ****** ****** ****** ******
      ****** ****** ****** ****** ****** ****** ****** ****** ****** ******
      ****** ****** ****** ****** ****** ****** ****** ****** ****** ******
  24  ****** ****** ****** ****** ****** ****** ****** ****** ****** ******
      ****** ****** ****** ****** ****** ****** ****** ****** ****** ******
      ****** ****** ****** ****** ****** ****** ****** ****** ****** ******
  25  ****** ****** ****** ****** ****** ****** ****** ****** ****** ******
      ****** ****** ****** ****** ****** ****** ****** ****** ****** ******
      ****** ****** ****** ****** ****** ****** ****** ****** ****** ******

 HEAD WILL BE SAVED ON UNIT   51 AT END OF TIME STEP    1, STRESS PERIOD   10
1
  VOLUMETRIC BUDGET FOR ENTIRE MODEL AT END OF TIME STEP    1, STRESS PERIOD  10
  ------------------------------------------------------------------------------

     CUMULATIVE VOLUMES      L**3       RATES FOR THIS TIME STEP      L**3/T
     ------------------                 ------------------------

           IN:                                      IN:
           ---                                      ---
             STORAGE =    32596802.8393               STORAGE =           0.0000
       CONSTANT HEAD =    23995743.4893         CONSTANT HEAD =       29573.3384
               WELLS =           0.0000                 WELLS =           0.0000
            RECHARGE =    23901600.0000              RECHARGE =       55200.0000
      STREAM LEAKAGE =    30021875.2842        STREAM LEAKAGE =       35072.7455

            TOTAL IN =   110516021.6128              TOTAL IN =      119846.0839

          OUT:                                     OUT:
          ----                                     ----
             STORAGE =     2430157.6303               STORAGE =       15811.0232
       CONSTANT HEAD =           0.0000         CONSTANT HEAD =           0.0000
               WELLS =    49804133.2391                 WELLS =       54549.9816
            RECHARGE =           0.0000              RECHARGE =           0.0000
      STREAM LEAKAGE =    58281732.2143        STREAM LEAKAGE =       49485.0758

           TOTAL OUT =   110516023.0837             TOTAL OUT =      119846.0807

            IN - OUT =          -1.4709              IN - OUT =       3.2304E-03

 PERCENT DISCREPANCY =          -0.00     PERCENT DISCREPANCY =           0.00






         TIME SUMMARY AT END OF TIME STEP    1 IN STRESS PERIOD   10
                    SECONDS     MINUTES      HOURS       DAYS        YEARS
                    -----------------------------------------------------------
   TIME STEP LENGTH 7.86240E+06 1.31040E+05  2184.0      91.000     0.24914    
 STRESS PERIOD TIME 7.86240E+06 1.31040E+05  2184.0      91.000     0.24914    
         TOTAL TIME 7.88832E+07 1.31472E+06  21912.      913.00      2.4997    
1
1
                            STRESS PERIOD NO.   11, LENGTH =   91.00000    
                            -----------------------------------------------

                              NUMBER OF TIME STEPS =     1

                               MULTIPLIER FOR DELT =     1.500

                            INITIAL TIME STEP SIZE =   91.00000    

 WELL NO.  LAYER   ROW   COL   STRESS RATE         
 --------------------------------------------------
      1      1     19     29     -0.1190E+05
      2      1     13     22     -0.1207E+05
      3      1     11     24     -0.1308E+05
      4      1     17     29     -0.1750E+05

      4 WELLS

                 RECHARGE =   0.00000    

 REUSING STREAM SEGMENT DATA FROM LAST STRESS PERIOD
 
 SOLVING FOR HEAD 


     7 CALLS TO PCG ROUTINE FOR TIME STEP   1 IN STRESS PERIOD   11
    26 TOTAL ITERATIONS

 OUTPUT CONTROL FOR STRESS PERIOD   11   TIME STEP    1
    SAVE BUDGET
    SAVE HEAD FOR ALL LAYERS
    PRINT HEAD FOR ALL LAYERS
 UBDSV2 SAVING "STREAMFLOW OUT  " ON UNIT  50 AT TIME STEP  1, STRESS PERIOD  11



 STREAM LISTING     PERIOD     11   STEP        1

 LAYER ROW COL. STREAM  RCH.  FLOW INTO     FLOW TO   FLOW OUT OF   OVRLND.     DIRECT     STREAM       STREAM     STREAM     STREAM   STREAMBED  STREAMBED
                SEG.NO.  NO.  STRM. RCH.    AQUIFER    STRM. RCH.    RUNOFF     PRECIP       ET          HEAD       DEPTH      WIDTH   CONDCTNC.   GRADIENT

   1   13    1     1     1    1.0000E+05 -1.5757E+03   1.0158E+05  0.000E+00  0.000E+00  0.000E+00  4.84067E+01  1.453E-01  2.000E+01  2.000E+04 -7.878E-02
   1   13    2     1     2    1.0158E+05 -2.5074E+03   1.0408E+05  0.000E+00  0.000E+00  0.000E+00  4.79312E+01  1.471E-01  2.000E+01  2.000E+04 -1.254E-01
   1   14    3     1     3    1.0408E+05 -3.6777E+02   1.0445E+05  0.000E+00  0.000E+00  0.000E+00  4.74551E+01  1.483E-01  2.000E+01  2.000E+04 -1.839E-02
   1   15    4     1     4    1.0445E+05 -3.4006E+02   1.0479E+05  0.000E+00  0.000E+00  0.000E+00  4.69782E+01  1.486E-01  2.000E+01  2.000E+04 -1.700E-02
   1   16    5     1     5    1.0479E+05 -1.4119E+03   1.0620E+05  0.000E+00  0.000E+00  0.000E+00  4.65016E+01  1.494E-01  2.000E+01  2.000E+04 -7.060E-02
   1   16    6     1     6    1.0620E+05 -8.9740E+02   1.0710E+05  0.000E+00  0.000E+00  0.000E+00  4.60254E+01  1.504E-01  2.000E+01  2.000E+04 -4.487E-02
   1   16    7     1     7    1.0710E+05 -8.8640E+02   1.0799E+05  0.000E+00  0.000E+00  0.000E+00  4.55488E+01  1.511E-01  2.000E+01  2.000E+04 -4.432E-02
   1   16    8     1     8    1.0799E+05 -8.8749E+02   1.0887E+05  0.000E+00  0.000E+00  0.000E+00  4.50723E+01  1.519E-01  2.000E+01  2.000E+04 -4.437E-02
   1   16    9     1     9    1.0887E+05 -8.8546E+02   1.0976E+05  0.000E+00  0.000E+00  0.000E+00  4.45958E+01  1.526E-01  2.000E+01  2.000E+04 -4.427E-02
   1   16   10     1    10    1.0976E+05 -8.8054E+02   1.1064E+05  0.000E+00  0.000E+00  0.000E+00  4.41192E+01  1.533E-01  2.000E+01  2.000E+04 -4.403E-02
   1   16   11     1    11    1.1064E+05 -8.9147E+02   1.1153E+05  0.000E+00  0.000E+00  0.000E+00  4.36427E+01  1.541E-01  2.000E+01  2.000E+04 -4.457E-02
   1   16   12     1    12    1.1153E+05 -1.5326E+03   1.1306E+05  0.000E+00  0.000E+00  0.000E+00  4.31664E+01  1.551E-01  2.000E+01  2.000E+04 -7.663E-02
   1   15   13     1    13    1.1306E+05 -1.4153E+03   1.1448E+05  0.000E+00  0.000E+00  0.000E+00  4.26904E+01  1.563E-01  2.000E+01  2.000E+04 -7.076E-02
   1   14   14     1    14    1.1448E+05 -1.6659E+03   1.1615E+05  0.000E+00  0.000E+00  0.000E+00  4.22144E+01  1.576E-01  2.000E+01  2.000E+04 -8.329E-02
   1   13   15     1    15    1.1615E+05 -1.9481E+03   1.1809E+05  0.000E+00  0.000E+00  0.000E+00  4.17386E+01  1.590E-01  2.000E+01  2.000E+04 -9.740E-02
   1   12   16     1    16    1.1809E+05 -2.5209E+03   1.2061E+05  0.000E+00  0.000E+00  0.000E+00  4.12631E+01  1.609E-01  2.000E+01  2.000E+04 -1.260E-01
   1   12   17     1    17    1.2061E+05 -1.5796E+03   1.2219E+05  0.000E+00  0.000E+00  0.000E+00  4.07875E+01  1.625E-01  2.000E+01  2.000E+04 -7.898E-02
   1   12   18     1    18    1.2219E+05 -1.4041E+03   1.2360E+05  0.000E+00  0.000E+00  0.000E+00  4.03114E+01  1.637E-01  2.000E+01  2.000E+04 -7.020E-02
   1   12   19     1    19    1.2360E+05 -1.2033E+03   1.2480E+05  0.000E+00  0.000E+00  0.000E+00  3.98352E+01  1.647E-01  2.000E+01  2.000E+04 -6.017E-02
   1   13   20     1    20    1.2480E+05  6.1729E+02   1.2418E+05  0.000E+00  0.000E+00  0.000E+00  3.93582E+01  1.650E-01  2.000E+01  2.000E+04  3.086E-02
   1   14   21     1    21    1.2418E+05  3.1768E+02   1.2387E+05  0.000E+00  0.000E+00  0.000E+00  3.88805E+01  1.646E-01  2.000E+01  2.000E+04  1.588E-02
   1   14   22     1    22    1.2387E+05  6.7924E+03   1.1707E+05  0.000E+00  0.000E+00  0.000E+00  3.84004E+01  1.618E-01  2.000E+01  2.000E+04  3.396E-01
   1    9   30     2     1    5.0000E+04 -1.5067E+02   5.0151E+04  0.000E+00  0.000E+00  0.000E+00  4.02410E+01  1.160E-01  2.000E+01  2.000E+04 -7.533E-03
   1    9   29     2     2    5.0151E+04 -4.5821E+02   5.0609E+04  0.000E+00  0.000E+00  0.000E+00  3.99914E+01  1.164E-01  2.000E+01  2.000E+04 -2.291E-02
   1    9   28     2     3    5.0609E+04 -7.1601E+02   5.1325E+04  0.000E+00  0.000E+00  0.000E+00  3.97422E+01  1.172E-01  2.000E+01  2.000E+04 -3.580E-02
   1    9   27     2     4    5.1325E+04 -1.6538E+03   5.2979E+04  0.000E+00  0.000E+00  0.000E+00  3.94938E+01  1.188E-01  2.000E+01  2.000E+04 -8.269E-02
   1   10   26     2     5    5.2979E+04 -2.0215E+02   5.3181E+04  0.000E+00  0.000E+00  0.000E+00  3.92451E+01  1.201E-01  2.000E+01  2.000E+04 -1.011E-02
   1   11   25     2     6    5.3181E+04  3.8452E+03   4.9336E+04  0.000E+00  0.000E+00  0.000E+00  3.89926E+01  1.176E-01  2.000E+01  2.000E+04  1.923E-01
   1   12   24     2     7    4.9336E+04  4.5387E+03   4.4797E+04  0.000E+00  0.000E+00  0.000E+00  3.87367E+01  1.117E-01  2.000E+01  2.000E+04  2.269E-01
   1   13   23     2     8    4.4797E+04  1.0481E+03   4.3749E+04  0.000E+00  0.000E+00  0.000E+00  3.84827E+01  1.077E-01  2.000E+01  2.000E+04  5.240E-02
   1   14   22     2     9    4.3749E+04  3.3736E+03   4.0375E+04  0.000E+00  0.000E+00  0.000E+00  3.82294E+01  1.044E-01  2.000E+01  2.000E+04  1.687E-01
   1   14   22     3     1    1.5745E+05 -6.9107E+03   1.6436E+05  0.000E+00  0.000E+00  0.000E+00  3.77152E+01  1.597E-01  2.000E+01  2.000E+04 -3.455E-01
   1   15   23     3     2    1.6436E+05 -4.2562E+02   1.6479E+05  0.000E+00  0.000E+00  0.000E+00  3.68285E+01  1.619E-01  2.000E+01  2.000E+04 -2.128E-02
   1   15   24     3     3    1.6479E+05 -1.8350E+02   1.6497E+05  0.000E+00  0.000E+00  0.000E+00  3.59398E+01  1.620E-01  2.000E+01  2.000E+04 -9.175E-03
   1   15   25     3     4    1.6497E+05 -1.6398E+02   1.6513E+05  0.000E+00  0.000E+00  0.000E+00  3.50510E+01  1.621E-01  2.000E+01  2.000E+04 -8.199E-03
   1   15   26     3     5    1.6513E+05 -1.1379E+02   1.6525E+05  0.000E+00  0.000E+00  0.000E+00  3.41622E+01  1.622E-01  2.000E+01  2.000E+04 -5.690E-03
   1   16   27     3     6    1.6525E+05  1.5974E+02   1.6509E+05  0.000E+00  0.000E+00  0.000E+00  3.32733E+01  1.622E-01  2.000E+01  2.000E+04  7.987E-03
   1   17   28     3     7    1.6509E+05  6.9658E+03   1.5812E+05  0.000E+00  0.000E+00  0.000E+00  3.23823E+01  1.601E-01  2.000E+01  2.000E+04  3.483E-01
   1   18   29     3     8    1.5812E+05  9.1298E+03   1.4899E+05  0.000E+00  0.000E+00  0.000E+00  3.14886E+01  1.553E-01  2.000E+01  2.000E+04  4.565E-01
   1   18   30     3     9    1.4899E+05  2.8382E+03   1.4615E+05  0.000E+00  0.000E+00  0.000E+00  3.05960E+01  1.516E-01  2.000E+01  2.000E+04  1.419E-01



1
              HEAD IN LAYER   1 AT END OF TIME STEP   1 IN STRESS PERIOD   11
  ---------------------------------------------------------------------------

          1      2      3      4      5      6      7      8      9     10
         11     12     13     14     15     16     17     18     19     20
         21     22     23     24     25     26     27     28     29     30
 .........................................................................
   1  ****** ****** ****** ****** ****** ****** ****** ****** ****** ******
      ****** ****** ****** ****** ****** ****** ****** ****** ****** ******
      ****** ****** ****** ****** ****** ****** ****** ****** ****** ******
   2  ****** ****** ****** ****** ****** ****** ****** ****** ****** ******
      ****** ****** ****** ****** ****** ****** ****** ****** ****** ******
      ****** ****** ****** ****** ****** ****** ****** ****** ****** ******
   3  ****** ****** ****** ****** ****** ****** ****** ****** ****** ******
      ****** ****** ****** ****** ****** ****** ****** ****** ****** ******
      ****** ****** ****** ****** ****** ****** ****** ****** ****** ******
   4  ****** ****** ****** ****** ****** ****** ****** ****** ****** ******
      ****** ****** ****** ****** ****** ****** ****** ****** ****** ******
      ****** ****** ****** ****** ****** ****** ****** ****** ****** ******
   5  ****** ****** ****** ****** ****** ****** ****** ****** ****** ******
      ****** ****** ****** ****** ****** ****** ****** ****** ****** ******
      ****** ****** ****** ****** ****** ****** ****** ****** ****** ******
   6  ****** ****** ****** ****** ****** ****** ****** ****** ****** ******
      ****** ****** ****** ****** ****** ****** ****** ****** ****** ******
      ****** ****** ****** ****** ****** ****** ****** ****** ****** ******
   7  ****** ****** ****** ****** ****** ****** ****** ****** ****** ******
      ****** ****** ****** ****** ****** ****** ****** ****** ****** ******
      ****** ****** ****** ****** ****** ****** ****** ****** ****** ******
   8  ****** ****** ****** ****** ****** ****** ****** ****** ****** ******
      ****** ****** ****** ****** ****** ****** ****** ****** ****** ******
      ****** ****** ****** ****** ****** ****** ****** ****** ****** ******
   9  ****** ****** ****** ****** ****** ****** ****** ****** ****** ******
      ****** ****** ****** ****** ****** ****** ****** ****** ****** ******
      ****** ****** ****** ****** ****** ****** ****** ****** ****** ******
  10  ****** ****** ****** ****** ****** ****** ****** ****** ****** ******
      ****** ****** ****** ****** ****** ****** ****** ****** ****** ******
      ****** ****** ****** ****** ****** ****** ****** ****** ****** ******
  11  ****** ****** ****** ****** ****** ****** ****** ****** ****** ******
      ****** ****** ****** ****** ****** ****** ****** ****** ****** ******
      ****** ****** ****** ****** ****** ****** ****** ****** ****** ******
  12  ****** ****** ****** ****** ****** ****** ****** ****** ****** ******
      ****** ****** ****** ****** ****** ****** ****** ****** ****** ******
      ****** ****** ****** ****** ****** ****** ****** ****** ****** ******
  13  ****** ****** ****** ****** ****** ****** ****** ****** ****** ******
      ****** ****** ****** ****** ****** ****** ****** ****** ****** ******
      ****** ****** ****** ****** ****** ****** ****** ****** ****** ******
  14  ****** ****** ****** ****** ****** ****** ****** ****** ****** ******
      ****** ****** ****** ****** ****** ****** ****** ****** ****** ******
      ****** ****** ****** ****** ****** ****** ****** ****** ****** ******
  15  ****** ****** ****** ****** ****** ****** ****** ****** ****** ******
      ****** ****** ****** ****** ****** ****** ****** ****** ****** ******
      ****** ****** ****** ****** ****** ****** ****** ****** ****** ******
  16  ****** ****** ****** ****** ****** ****** ****** ****** ****** ******
      ****** ****** ****** ****** ****** ****** ****** ****** ****** ******
      ****** ****** ****** ****** ****** ****** ****** ****** ****** ******
  17  ****** ****** ****** ****** ****** ****** ****** ****** ****** ******
      ****** ****** ****** ****** ****** ****** ****** ****** ****** ******
      ****** ****** ****** ****** ****** ****** ****** ****** ****** ******
  18  ****** ****** ****** ****** ****** ****** ****** ****** ****** ******
      ****** ****** ****** ****** ****** ****** ****** ****** ****** ******
      ****** ****** ****** ****** ****** ****** ****** ****** ****** ******
  19  ****** ****** ****** ****** ****** ****** ****** ****** ****** ******
      ****** ****** ****** ****** ****** ****** ****** ****** ****** ******
      ****** ****** ****** ****** ****** ****** ****** ****** ****** ******
  20  ****** ****** ****** ****** ****** ****** ****** ****** ****** ******
      ****** ****** ****** ****** ****** ****** ****** ****** ****** ******
      ****** ****** ****** ****** ****** ****** ****** ****** ****** ******
  21  ****** ****** ****** ****** ****** ****** ****** ****** ****** ******
      ****** ****** ****** ****** ****** ****** ****** ****** ****** ******
      ****** ****** ****** ****** ****** ****** ****** ****** ****** ******
  22  ****** ****** ****** ****** ****** ****** ****** ****** ****** ******
      ****** ****** ****** ****** ****** ****** ****** ****** ****** ******
      ****** ****** ****** ****** ****** ****** ****** ****** ****** ******
  23  ****** ****** ****** ****** ****** ****** ****** ****** ****** ******
      ****** ****** ****** ****** ****** ****** ****** ****** ****** ******
      ****** ****** ****** ****** ****** ****** ****** ****** ****** ******
  24  ****** ****** ****** ****** ****** ****** ****** ****** ****** ******
      ****** ****** ****** ****** ****** ****** ****** ****** ****** ******
      ****** ****** ****** ****** ****** ****** ****** ****** ****** ******
  25  ****** ****** ****** ****** ****** ****** ****** ****** ****** ******
      ****** ****** ****** ****** ****** ****** ****** ****** ****** ******
      ****** ****** ****** ****** ****** ****** ****** ****** ****** ******

 HEAD WILL BE SAVED ON UNIT   51 AT END OF TIME STEP    1, STRESS PERIOD   11
1
  VOLUMETRIC BUDGET FOR ENTIRE MODEL AT END OF TIME STEP    1, STRESS PERIOD  11
  ------------------------------------------------------------------------------

     CUMULATIVE VOLUMES      L**3       RATES FOR THIS TIME STEP      L**3/T
     ------------------                 ------------------------

           IN:                                      IN:
           ---                                      ---
             STORAGE =    34221534.3620               STORAGE =       17854.1926
       CONSTANT HEAD =    26985012.5151         CONSTANT HEAD =       32849.1102
               WELLS =           0.0000                 WELLS =           0.0000
            RECHARGE =    23901600.0000              RECHARGE =           0.0000
      STREAM LEAKAGE =    33627887.5143        STREAM LEAKAGE =       39626.5080

            TOTAL IN =   118736034.3913              TOTAL IN =       90329.8108

          OUT:                                     OUT:
          ----                                     ----
             STORAGE =     2430157.6303               STORAGE =           0.0000
       CONSTANT HEAD =           0.0000         CONSTANT HEAD =           0.0000
               WELLS =    54768181.5685                 WELLS =       54549.9816
            RECHARGE =           0.0000              RECHARGE =           0.0000
      STREAM LEAKAGE =    61537697.0856        STREAM LEAKAGE =       35779.8338

           TOTAL OUT =   118736036.2844             TOTAL OUT =       90329.8154

            IN - OUT =          -1.8931              IN - OUT =      -4.6391E-03

 PERCENT DISCREPANCY =          -0.00     PERCENT DISCREPANCY =          -0.00






         TIME SUMMARY AT END OF TIME STEP    1 IN STRESS PERIOD   11
                    SECONDS     MINUTES      HOURS       DAYS        YEARS
                    -----------------------------------------------------------
   TIME STEP LENGTH 7.86240E+06 1.31040E+05  2184.0      91.000     0.24914    
 STRESS PERIOD TIME 7.86240E+06 1.31040E+05  2184.0      91.000     0.24914    
         TOTAL TIME 8.67456E+07 1.44576E+06  24096.      1004.0      2.7488    
1
1
                            STRESS PERIOD NO.   12, LENGTH =   91.00000    
                            -----------------------------------------------

                              NUMBER OF TIME STEPS =     1

                               MULTIPLIER FOR DELT =     1.500

                            INITIAL TIME STEP SIZE =   91.00000    

 WELL NO.  LAYER   ROW   COL   STRESS RATE         
 --------------------------------------------------
      1      1     19     29     -0.1190E+05
      2      1     13     22     -0.1207E+05
      3      1     11     24     -0.1308E+05
      4      1     17     29     -0.1750E+05

      4 WELLS

                 RECHARGE =  1.000000E-03

 REUSING STREAM SEGMENT DATA FROM LAST STRESS PERIOD
 
 SOLVING FOR HEAD 


     7 CALLS TO PCG ROUTINE FOR TIME STEP   1 IN STRESS PERIOD   12
    24 TOTAL ITERATIONS

 OUTPUT CONTROL FOR STRESS PERIOD   12   TIME STEP    1
    SAVE BUDGET
    SAVE HEAD FOR ALL LAYERS
    PRINT HEAD FOR ALL LAYERS
 UBDSV2 SAVING "STREAMFLOW OUT  " ON UNIT  50 AT TIME STEP  1, STRESS PERIOD  12



 STREAM LISTING     PERIOD     12   STEP        1

 LAYER ROW COL. STREAM  RCH.  FLOW INTO     FLOW TO   FLOW OUT OF   OVRLND.     DIRECT     STREAM       STREAM     STREAM     STREAM   STREAMBED  STREAMBED
                SEG.NO.  NO.  STRM. RCH.    AQUIFER    STRM. RCH.    RUNOFF     PRECIP       ET          HEAD       DEPTH      WIDTH   CONDCTNC.   GRADIENT

   1   13    1     1     1    1.0000E+05 -1.7217E+03   1.0172E+05  0.000E+00  0.000E+00  0.000E+00  4.84068E+01  1.454E-01  2.000E+01  2.000E+04 -8.608E-02
   1   13    2     1     2    1.0172E+05 -2.6646E+03   1.0439E+05  0.000E+00  0.000E+00  0.000E+00  4.79314E+01  1.473E-01  2.000E+01  2.000E+04 -1.332E-01
   1   14    3     1     3    1.0439E+05 -4.4665E+02   1.0483E+05  0.000E+00  0.000E+00  0.000E+00  4.74554E+01  1.486E-01  2.000E+01  2.000E+04 -2.233E-02
   1   15    4     1     4    1.0483E+05 -4.2268E+02   1.0526E+05  0.000E+00  0.000E+00  0.000E+00  4.69785E+01  1.490E-01  2.000E+01  2.000E+04 -2.113E-02
   1   16    5     1     5    1.0526E+05 -1.6220E+03   1.0688E+05  0.000E+00  0.000E+00  0.000E+00  4.65021E+01  1.499E-01  2.000E+01  2.000E+04 -8.110E-02
   1   16    6     1     6    1.0688E+05 -1.0281E+03   1.0791E+05  0.000E+00  0.000E+00  0.000E+00  4.60260E+01  1.510E-01  2.000E+01  2.000E+04 -5.141E-02
   1   16    7     1     7    1.0791E+05 -1.0121E+03   1.0892E+05  0.000E+00  0.000E+00  0.000E+00  4.55496E+01  1.518E-01  2.000E+01  2.000E+04 -5.060E-02
   1   16    8     1     8    1.0892E+05 -1.0121E+03   1.0993E+05  0.000E+00  0.000E+00  0.000E+00  4.50731E+01  1.527E-01  2.000E+01  2.000E+04 -5.061E-02
   1   16    9     1     9    1.0993E+05 -1.0105E+03   1.1094E+05  0.000E+00  0.000E+00  0.000E+00  4.45967E+01  1.535E-01  2.000E+01  2.000E+04 -5.052E-02
   1   16   10     1    10    1.1094E+05 -1.0068E+03   1.1195E+05  0.000E+00  0.000E+00  0.000E+00  4.41203E+01  1.544E-01  2.000E+01  2.000E+04 -5.034E-02
   1   16   11     1    11    1.1195E+05 -1.0199E+03   1.1297E+05  0.000E+00  0.000E+00  0.000E+00  4.36438E+01  1.552E-01  2.000E+01  2.000E+04 -5.100E-02
   1   16   12     1    12    1.1297E+05 -1.7346E+03   1.1470E+05  0.000E+00  0.000E+00  0.000E+00  4.31677E+01  1.563E-01  2.000E+01  2.000E+04 -8.673E-02
   1   15   13     1    13    1.1470E+05 -1.6330E+03   1.1633E+05  0.000E+00  0.000E+00  0.000E+00  4.26918E+01  1.577E-01  2.000E+01  2.000E+04 -8.165E-02
   1   14   14     1    14    1.1633E+05 -1.8844E+03   1.1822E+05  0.000E+00  0.000E+00  0.000E+00  4.22160E+01  1.592E-01  2.000E+01  2.000E+04 -9.422E-02
   1   13   15     1    15    1.1822E+05 -2.1596E+03   1.2038E+05  0.000E+00  0.000E+00  0.000E+00  4.17404E+01  1.608E-01  2.000E+01  2.000E+04 -1.080E-01
   1   12   16     1    16    1.2038E+05 -2.7063E+03   1.2309E+05  0.000E+00  0.000E+00  0.000E+00  4.12650E+01  1.628E-01  2.000E+01  2.000E+04 -1.353E-01
   1   12   17     1    17    1.2309E+05 -1.7341E+03   1.2482E+05  0.000E+00  0.000E+00  0.000E+00  4.07895E+01  1.645E-01  2.000E+01  2.000E+04 -8.670E-02
   1   12   18     1    18    1.2482E+05 -1.5605E+03   1.2638E+05  0.000E+00  0.000E+00  0.000E+00  4.03136E+01  1.659E-01  2.000E+01  2.000E+04 -7.803E-02
   1   12   19     1    19    1.2638E+05 -1.3968E+03   1.2778E+05  0.000E+00  0.000E+00  0.000E+00  3.98375E+01  1.670E-01  2.000E+01  2.000E+04 -6.984E-02
   1   13   20     1    20    1.2778E+05  4.0640E+02   1.2737E+05  0.000E+00  0.000E+00  0.000E+00  3.93606E+01  1.674E-01  2.000E+01  2.000E+04  2.032E-02
   1   14   21     1    21    1.2737E+05  1.2326E+02   1.2725E+05  0.000E+00  0.000E+00  0.000E+00  3.88831E+01  1.672E-01  2.000E+01  2.000E+04  6.163E-03
   1   14   22     1    22    1.2725E+05  6.7372E+03   1.2051E+05  0.000E+00  0.000E+00  0.000E+00  3.84031E+01  1.645E-01  2.000E+01  2.000E+04  3.369E-01
   1    9   30     2     1    5.0000E+04 -3.2728E+02   5.0327E+04  0.000E+00  0.000E+00  0.000E+00  4.02411E+01  1.161E-01  2.000E+01  2.000E+04 -1.636E-02
   1    9   29     2     2    5.0327E+04 -6.3278E+02   5.0960E+04  0.000E+00  0.000E+00  0.000E+00  3.99918E+01  1.168E-01  2.000E+01  2.000E+04 -3.164E-02
   1    9   28     2     3    5.0960E+04 -8.8710E+02   5.1847E+04  0.000E+00  0.000E+00  0.000E+00  3.97428E+01  1.178E-01  2.000E+01  2.000E+04 -4.436E-02
   1    9   27     2     4    5.1847E+04 -1.8635E+03   5.3711E+04  0.000E+00  0.000E+00  0.000E+00  3.94947E+01  1.197E-01  2.000E+01  2.000E+04 -9.317E-02
   1   10   26     2     5    5.3711E+04 -4.3244E+02   5.4143E+04  0.000E+00  0.000E+00  0.000E+00  3.92462E+01  1.212E-01  2.000E+01  2.000E+04 -2.162E-02
   1   11   25     2     6    5.4143E+04  3.6188E+03   5.0524E+04  0.000E+00  0.000E+00  0.000E+00  3.89941E+01  1.191E-01  2.000E+01  2.000E+04  1.809E-01
   1   12   24     2     7    5.0524E+04  4.3321E+03   4.6192E+04  0.000E+00  0.000E+00  0.000E+00  3.87386E+01  1.136E-01  2.000E+01  2.000E+04  2.166E-01
   1   13   23     2     8    4.6192E+04  9.7043E+02   4.5222E+04  0.000E+00  0.000E+00  0.000E+00  3.84848E+01  1.098E-01  2.000E+01  2.000E+04  4.852E-02
   1   14   22     2     9    4.5222E+04  3.3083E+03   4.1913E+04  0.000E+00  0.000E+00  0.000E+00  3.82317E+01  1.067E-01  2.000E+01  2.000E+04  1.654E-01
   1   14   22     3     1    1.6242E+05 -6.9614E+03   1.6938E+05  0.000E+00  0.000E+00  0.000E+00  3.77182E+01  1.626E-01  2.000E+01  2.000E+04 -3.481E-01
   1   15   23     3     2    1.6938E+05 -4.9768E+02   1.6988E+05  0.000E+00  0.000E+00  0.000E+00  3.68315E+01  1.648E-01  2.000E+01  2.000E+04 -2.488E-02
   1   15   24     3     3    1.6988E+05 -2.4860E+02   1.7013E+05  0.000E+00  0.000E+00  0.000E+00  3.59428E+01  1.650E-01  2.000E+01  2.000E+04 -1.243E-02
   1   15   25     3     4    1.7013E+05 -2.3035E+02   1.7036E+05  0.000E+00  0.000E+00  0.000E+00  3.50541E+01  1.652E-01  2.000E+01  2.000E+04 -1.152E-02
   1   15   26     3     5    1.7036E+05 -1.9128E+02   1.7055E+05  0.000E+00  0.000E+00  0.000E+00  3.41653E+01  1.653E-01  2.000E+01  2.000E+04 -9.564E-03
   1   16   27     3     6    1.7055E+05  7.2938E+01   1.7048E+05  0.000E+00  0.000E+00  0.000E+00  3.32764E+01  1.653E-01  2.000E+01  2.000E+04  3.647E-03
   1   17   28     3     7    1.7048E+05  6.7450E+03   1.6373E+05  0.000E+00  0.000E+00  0.000E+00  3.23856E+01  1.633E-01  2.000E+01  2.000E+04  3.373E-01
   1   18   29     3     8    1.6373E+05  8.9290E+03   1.5481E+05  0.000E+00  0.000E+00  0.000E+00  3.14920E+01  1.587E-01  2.000E+01  2.000E+04  4.465E-01
   1   18   30     3     9    1.5481E+05  2.6701E+03   1.5214E+05  0.000E+00  0.000E+00  0.000E+00  3.05997E+01  1.552E-01  2.000E+01  2.000E+04  1.335E-01



1
              HEAD IN LAYER   1 AT END OF TIME STEP   1 IN STRESS PERIOD   12
  ---------------------------------------------------------------------------

          1      2      3      4      5      6      7      8      9     10
         11     12     13     14     15     16     17     18     19     20
         21     22     23     24     25     26     27     28     29     30
 .........................................................................
   1  ****** ****** ****** ****** ****** ****** ****** ****** ****** ******
      ****** ****** ****** ****** ****** ****** ****** ****** ****** ******
      ****** ****** ****** ****** ****** ****** ****** ****** ****** ******
   2  ****** ****** ****** ****** ****** ****** ****** ****** ****** ******
      ****** ****** ****** ****** ****** ****** ****** ****** ****** ******
      ****** ****** ****** ****** ****** ****** ****** ****** ****** ******
   3  ****** ****** ****** ****** ****** ****** ****** ****** ****** ******
      ****** ****** ****** ****** ****** ****** ****** ****** ****** ******
      ****** ****** ****** ****** ****** ****** ****** ****** ****** ******
   4  ****** ****** ****** ****** ****** ****** ****** ****** ****** ******
      ****** ****** ****** ****** ****** ****** ****** ****** ****** ******
      ****** ****** ****** ****** ****** ****** ****** ****** ****** ******
   5  ****** ****** ****** ****** ****** ****** ****** ****** ****** ******
      ****** ****** ****** ****** ****** ****** ****** ****** ****** ******
      ****** ****** ****** ****** ****** ****** ****** ****** ****** ******
   6  ****** ****** ****** ****** ****** ****** ****** ****** ****** ******
      ****** ****** ****** ****** ****** ****** ****** ****** ****** ******
      ****** ****** ****** ****** ****** ****** ****** ****** ****** ******
   7  ****** ****** ****** ****** ****** ****** ****** ****** ****** ******
      ****** ****** ****** ****** ****** ****** ****** ****** ****** ******
      ****** ****** ****** ****** ****** ****** ****** ****** ****** ******
   8  ****** ****** ****** ****** ****** ****** ****** ****** ****** ******
      ****** ****** ****** ****** ****** ****** ****** ****** ****** ******
      ****** ****** ****** ****** ****** ****** ****** ****** ****** ******
   9  ****** ****** ****** ****** ****** ****** ****** ****** ****** ******
      ****** ****** ****** ****** ****** ****** ****** ****** ****** ******
      ****** ****** ****** ****** ****** ****** ****** ****** ****** ******
  10  ****** ****** ****** ****** ****** ****** ****** ****** ****** ******
      ****** ****** ****** ****** ****** ****** ****** ****** ****** ******
      ****** ****** ****** ****** ****** ****** ****** ****** ****** ******
  11  ****** ****** ****** ****** ****** ****** ****** ****** ****** ******
      ****** ****** ****** ****** ****** ****** ****** ****** ****** ******
      ****** ****** ****** ****** ****** ****** ****** ****** ****** ******
  12  ****** ****** ****** ****** ****** ****** ****** ****** ****** ******
      ****** ****** ****** ****** ****** ****** ****** ****** ****** ******
      ****** ****** ****** ****** ****** ****** ****** ****** ****** ******
  13  ****** ****** ****** ****** ****** ****** ****** ****** ****** ******
      ****** ****** ****** ****** ****** ****** ****** ****** ****** ******
      ****** ****** ****** ****** ****** ****** ****** ****** ****** ******
  14  ****** ****** ****** ****** ****** ****** ****** ****** ****** ******
      ****** ****** ****** ****** ****** ****** ****** ****** ****** ******
      ****** ****** ****** ****** ****** ****** ****** ****** ****** ******
  15  ****** ****** ****** ****** ****** ****** ****** ****** ****** ******
      ****** ****** ****** ****** ****** ****** ****** ****** ****** ******
      ****** ****** ****** ****** ****** ****** ****** ****** ****** ******
  16  ****** ****** ****** ****** ****** ****** ****** ****** ****** ******
      ****** ****** ****** ****** ****** ****** ****** ****** ****** ******
      ****** ****** ****** ****** ****** ****** ****** ****** ****** ******
  17  ****** ****** ****** ****** ****** ****** ****** ****** ****** ******
      ****** ****** ****** ****** ****** ****** ****** ****** ****** ******
      ****** ****** ****** ****** ****** ****** ****** ****** ****** ******
  18  ****** ****** ****** ****** ****** ****** ****** ****** ****** ******
      ****** ****** ****** ****** ****** ****** ****** ****** ****** ******
      ****** ****** ****** ****** ****** ****** ****** ****** ****** ******
  19  ****** ****** ****** ****** ****** ****** ****** ****** ****** ******
      ****** ****** ****** ****** ****** ****** ****** ****** ****** ******
      ****** ****** ****** ****** ****** ****** ****** ****** ****** ******
  20  ****** ****** ****** ****** ****** ****** ****** ****** ****** ******
      ****** ****** ****** ****** ****** ****** ****** ****** ****** ******
      ****** ****** ****** ****** ****** ****** ****** ****** ****** ******
  21  ****** ****** ****** ****** ****** ****** ****** ****** ****** ******
      ****** ****** ****** ****** ****** ****** ****** ****** ****** ******
      ****** ****** ****** ****** ****** ****** ****** ****** ****** ******
  22  ****** ****** ****** ****** ****** ****** ****** ****** ****** ******
      ****** ****** ****** ****** ****** ****** ****** ****** ****** ******
      ****** ****** ****** ****** ****** ****** ****** ****** ****** ******
  23  ****** ****** ****** ****** ****** ****** ****** ****** ****** ******
      ****** ****** ****** ****** ****** ****** ****** ****** ****** ******
      ****** ****** ****** ****** ****** ****** ****** ****** ****** ******
  24  ****** ****** ****** ****** ****** ****** ****** ****** ****** ******
      ****** ****** ****** ****** ****** ****** ****** ****** ****** ******
      ****** ****** ****** ****** ****** ****** ****** ****** ****** ******
  25  ****** ****** ****** ****** ****** ****** ****** ****** ****** ******
      ****** ****** ****** ****** ****** ****** ****** ****** ****** ******
      ****** ****** ****** ****** ****** ****** ****** ****** ****** ******

 HEAD WILL BE SAVED ON UNIT   51 AT END OF TIME STEP    1, STRESS PERIOD   12
1
  VOLUMETRIC BUDGET FOR ENTIRE MODEL AT END OF TIME STEP    1, STRESS PERIOD  12
  ------------------------------------------------------------------------------

     CUMULATIVE VOLUMES      L**3       RATES FOR THIS TIME STEP      L**3/T
     ------------------                 ------------------------

           IN:                                      IN:
           ---                                      ---
             STORAGE =    34222052.2251               STORAGE =           5.6908
       CONSTANT HEAD =    29910299.9691         CONSTANT HEAD =       32146.0160
               WELLS =           0.0000                 WELLS =           0.0000
            RECHARGE =    26413200.0000              RECHARGE =       27600.0000
      STREAM LEAKAGE =    37078032.4062        STREAM LEAKAGE =       37913.6801

            TOTAL IN =   127623584.6005              TOTAL IN =       97665.3869

          OUT:                                     OUT:
          ----                                     ----
             STORAGE =     2709216.8561               STORAGE =        3066.5849
       CONSTANT HEAD =           0.0000         CONSTANT HEAD =           0.0000
               WELLS =    59732229.8979                 WELLS =       54549.9816
            RECHARGE =           0.0000              RECHARGE =           0.0000
      STREAM LEAKAGE =    65182139.6581        STREAM LEAKAGE =       40048.8195

           TOTAL OUT =   127623586.4121             TOTAL OUT =       97665.3860

            IN - OUT =          -1.8117              IN - OUT =       8.9429E-04

 PERCENT DISCREPANCY =          -0.00     PERCENT DISCREPANCY =           0.00






         TIME SUMMARY AT END OF TIME STEP    1 IN STRESS PERIOD   12
                    SECONDS     MINUTES      HOURS       DAYS        YEARS
                    -----------------------------------------------------------
   TIME STEP LENGTH 7.86240E+06 1.31040E+05  2184.0      91.000     0.24914    
 STRESS PERIOD TIME 7.86240E+06 1.31040E+05  2184.0      91.000     0.24914    
         TOTAL TIME 9.46080E+07 1.57680E+06  26280.      1095.0      2.9979    
1

 Run end date and time (yyyy/mm/dd hh:mm:ss): 2019/03/29  1:03:12
 Elapsed run time:  0.159 Seconds

