                                  MODFLOW-2005     
      U.S. GEOLOGICAL SURVEY MODULAR FINITE-DIFFERENCE GROUND-WATER FLOW MODEL
                            VERSION 1.11.00 8/8/2013

 LIST FILE: supply2.lst
                         UNIT   10

 OPENING ..\data\supply.dis
 FILE TYPE:DIS   UNIT   11   STATUS:OLD    
 FORMAT:FORMATTED              ACCESS:SEQUENTIAL          

 OPENING ..\data\supply.ba6
 FILE TYPE:BAS6   UNIT   12   STATUS:OLD    
 FORMAT:FORMATTED              ACCESS:SEQUENTIAL          

 OPENING ..\data\supply.bc6
 FILE TYPE:BCF6   UNIT   13   STATUS:OLD    
 FORMAT:FORMATTED              ACCESS:SEQUENTIAL          

 OPENING ..\data\supply.rch
 FILE TYPE:RCH   UNIT   15   STATUS:OLD    
 FORMAT:FORMATTED              ACCESS:SEQUENTIAL          

 OPENING ..\data\supply2.sfr
 FILE TYPE:SFR   UNIT   16   STATUS:OLD    
 FORMAT:FORMATTED              ACCESS:SEQUENTIAL          

 OPENING ..\data\supply.oc
 FILE TYPE:OC   UNIT   17   STATUS:OLD    
 FORMAT:FORMATTED              ACCESS:SEQUENTIAL          

 OPENING ..\data\supply.pcg
 FILE TYPE:PCG   UNIT   18   STATUS:OLD    
 FORMAT:FORMATTED              ACCESS:SEQUENTIAL          

 OPENING supply2.wel
 FILE TYPE:WEL   UNIT   19   STATUS:OLD    
 FORMAT:FORMATTED              ACCESS:SEQUENTIAL          

 OPENING supply2sf.cbc
 FILE TYPE:DATA(BINARY)   UNIT   50   STATUS:UNKNOWN
 FORMAT:BINARY                 ACCESS:SEQUENTIAL          

 OPENING supply2hd.bhd
 FILE TYPE:DATA(BINARY)   UNIT   51   STATUS:UNKNOWN
 FORMAT:BINARY                 ACCESS:SEQUENTIAL          

 BAS -- BASIC PACKAGE, VERSION 7, 5/2/2005 INPUT READ FROM UNIT   12
 
 MODFLOW was compiled using uniform precision
 Precision of REAL and DOUBLE PRECISION variables:          15

 DISCRETIZATION INPUT DATA READ FROM UNIT   11
    1 LAYERS        25 ROWS        30 COLUMNS
   12 STRESS PERIOD(S) IN SIMULATION
 MODEL TIME UNIT IS DAYS
 MODEL LENGTH UNIT IS UNDEFINED
  Confining bed flag for each layer:
   0

                     DELR =   200.000    

                     DELC =   200.000    

 TOP ELEVATION OF LAYER 1 =  100.0000    

   MODEL LAYER BOTTOM EL. =   0.00000     FOR LAYER   1


 STRESS PERIOD     LENGTH       TIME STEPS     MULTIPLIER FOR DELT    SS FLAG
 ----------------------------------------------------------------------------
        1         92.00000          1                    1.500         TR
        2         91.00000          1                    1.500         TR
        3         91.00000          1                    1.500         TR
        4         91.00000          1                    1.500         TR
        5         92.00000          1                    1.500         TR
        6         91.00000          1                    1.500         TR
        7         91.00000          1                    1.500         TR
        8         91.00000          1                    1.500         TR
        9         92.00000          1                    1.500         TR
       10         91.00000          1                    1.500         TR
       11         91.00000          1                    1.500         TR
       12         91.00000          1                    1.500         TR

 TRANSIENT SIMULATION



 
 #MODOFC transient water supply sample problem                                   
 #                                                                               
 THE FREE FORMAT OPTION HAS BEEN SELECTED



                     BOUNDARY ARRAY FOR LAYER   1
 READING ON UNIT   12 WITH FORMAT: (20I4)              

 AQUIFER HEAD WILL BE SET TO   0.0000     AT ALL NO-FLOW NODES (IBOUND=0).



                       INITIAL HEAD FOR LAYER   1
 READING ON UNIT   12 WITH FORMAT: (10F13.0)           

 OUTPUT CONTROL IS SPECIFIED ONLY AT TIME STEPS FOR WHICH OUTPUT IS DESIRED
 COMPACT CELL-BY-CELL BUDGET FILES WILL BE WRITTEN
 HEAD PRINT FORMAT CODE IS  18    DRAWDOWN PRINT FORMAT CODE IS   0
 HEADS WILL BE SAVED ON UNIT   51    DRAWDOWNS WILL BE SAVED ON UNIT    0

 BCF -- BLOCK-CENTERED FLOW PACKAGE, VERSION 7, 5/2/2005
         INPUT READ FROM UNIT 13
 TRANSIENT SIMULATION
 HEAD AT CELLS THAT CONVERT TO DRY=   0.0000    
 WETTING CAPABILITY IS NOT ACTIVE
      LAYER  LAYER-TYPE CODE     INTERBLOCK T
      --------------------------------------------
         1            0          0 -- HARMONIC    

 COLUMN TO ROW ANISOTROPY =  1.000000    

     PRIMARY STORAGE COEF =  5.000000E-02 FOR LAYER   1

     TRANSMIS. ALONG ROWS =   500.000     FOR LAYER   1

 WEL -- WELL PACKAGE, VERSION 7, 5/2/2005 INPUT READ FROM UNIT   19
 # Well package input file written by MMProc
 No named parameters
 MAXIMUM OF      6 ACTIVE WELLS AT ONE TIME


     0 Well parameters

 RCH -- RECHARGE PACKAGE, VERSION 7, 5/2/2005 INPUT READ FROM UNIT   15
 No named parameters
 OPTION 1 -- RECHARGE TO TOP LAYER


     0 Recharge parameters

 SFR7 -- STREAMFLOW ROUTING PACKAGE, VERSION 1.0.7, 2013-01-15
         INPUT READ FROM UNIT  16
 #  Supply2 test problem for GWM-VI
 #  The eighth entry in the first data line is ISTCB2 -
 #    Setting this to a negative number indicates that
 #    streamflows out of the reach will be saved to a
 #    binary file.  The absolute value of ISTCB2 is the
 #    unit to which unformatted flows will be written.
 #
 No named parameters
 Segment information will not be 
 read by reach
 No named parameters
 No specifed inflow files


 NUMBER OF STREAM REACHES IS   40

 NUMBER OF STREAM SEGMENTS IS    3

 NUMBER OF STREAM PARAMETERS IS    0

 NUMBER OF STREAM SEGMENTS DEFINED USING PARAMETERS IS              0

 MAXIMUM ERROR FOR STREAM LEAKAGE RATES IS  1.00E-04

 CONSTANT FOR MANNINGS EQUATION IS  1.2839E+05





   STREAM NETWORK DESCRIPTION: 

   LAYER    ROW    COL   SEGMENT   REACH     LENGTH
                          NUMBER   NUMBER    IN CELL        
   --------------------------------------------------
      1     13      1       1        1    2.0000E+02
      1     13      2       1        2    2.0000E+02
      1     14      3       1        3    2.0000E+02
      1     15      4       1        4    2.0000E+02
      1     16      5       1        5    2.0000E+02
      1     16      6       1        6    2.0000E+02
      1     16      7       1        7    2.0000E+02
      1     16      8       1        8    2.0000E+02
      1     16      9       1        9    2.0000E+02
      1     16     10       1       10    2.0000E+02
      1     16     11       1       11    2.0000E+02
      1     16     12       1       12    2.0000E+02
      1     15     13       1       13    2.0000E+02
      1     14     14       1       14    2.0000E+02
      1     13     15       1       15    2.0000E+02
      1     12     16       1       16    2.0000E+02
      1     12     17       1       17    2.0000E+02
      1     12     18       1       18    2.0000E+02
      1     12     19       1       19    2.0000E+02
      1     13     20       1       20    2.0000E+02
      1     14     21       1       21    2.0000E+02
      1     14     22       1       22    2.0000E+02
      1      9     30       2        1    2.0000E+02
      1      9     29       2        2    2.0000E+02
      1      9     28       2        3    2.0000E+02
      1      9     27       2        4    2.0000E+02
      1     10     26       2        5    2.0000E+02
      1     11     25       2        6    2.0000E+02
      1     12     24       2        7    2.0000E+02
      1     13     23       2        8    2.0000E+02
      1     14     22       2        9    2.0000E+02
      1     14     22       3        1    2.0000E+02
      1     15     23       3        2    2.0000E+02
      1     15     24       3        3    2.0000E+02
      1     15     25       3        4    2.0000E+02
      1     15     26       3        5    2.0000E+02
      1     16     27       3        6    2.0000E+02
      1     17     28       3        7    2.0000E+02
      1     18     29       3        8    2.0000E+02
      1     18     30       3        9    2.0000E+02




 PCG -- CONJUGATE-GRADIENT SOLUTION PACKAGE, VERSION 7, 5/2/2005
 MAXIMUM OF    500 CALLS OF SOLUTION ROUTINE
 MAXIMUM OF      5 INTERNAL ITERATIONS PER CALL TO SOLUTION ROUTINE
 MATRIX PRECONDITIONING TYPE :    1



                                    SOLUTION BY THE CONJUGATE-GRADIENT METHOD
                                   -------------------------------------------
                    MAXIMUM NUMBER OF CALLS TO PCG ROUTINE =      500
                        MAXIMUM ITERATIONS PER CALL TO PCG =        5
                               MATRIX PRECONDITIONING TYPE =        1
        RELAXATION FACTOR (ONLY USED WITH PRECOND. TYPE 1) =    0.10000E+01
 PARAMETER OF POLYNOMIAL PRECOND. = 2 (2) OR IS CALCULATED :        0
                         HEAD CHANGE CRITERION FOR CLOSURE =    0.10000E-05
                     RESIDUAL CHANGE CRITERION FOR CLOSURE =    0.10000E+01
            PCG HEAD AND RESIDUAL CHANGE PRINTOUT INTERVAL =        1
     PRINTING FROM SOLVER IS LIMITED(1) OR SUPPRESSED (>1) =        1
                            STEADY-STATE DAMPING PARAMETER =    0.10000E+01
                               TRANSIENT DAMPING PARAMETER =    0.10000E+01
1
                            STRESS PERIOD NO.    1, LENGTH =   92.00000    
                            -----------------------------------------------

                              NUMBER OF TIME STEPS =     1

                               MULTIPLIER FOR DELT =     1.500

                            INITIAL TIME STEP SIZE =   92.00000    

 WELL NO.  LAYER   ROW   COL   STRESS RATE         
 --------------------------------------------------
      1      1      5     22     -0.5000E+05
      2      1      3     18     -0.5000E+05
      3      1      3     21     -0.5000E+05

      3 WELLS

                 RECHARGE =  5.000000E-04



 CLASSIFICATION & COUNT OF STREAM SEGMENTS BASED ON SOURCE OF INFLOW:

                HEADWATER     DIVERSION     RECEIVES TRIBUTARY FLOW
                ---------     ---------     -----------------------
                     2              0               1



                    INPUT DATA FOR EACH STREAM SEGMENT
 ---------------------------------------------------------------------------------------------

 SEGMENT    SEG.     INFLOW   OVERLAND   STREAM    STREAM   ICALC  OUTFLOW  DIVERSION PRIORITY
    NO.    LENGTH     RATE     RUNOFF      ET       PPT.    METH.  TO SEG.  FROM SEG.    NO.

      1  4.400E+03 1.000E+05 0.000E+00 0.000E+00 0.000E+00    1        3        0        0
      2  1.800E+03 5.000E+04 0.000E+00 0.000E+00 0.000E+00    1        3        0        0
      3  1.800E+03 0.000E+00 0.000E+00 0.000E+00 0.000E+00    1        0        0        0


         STREAMBED PROPERTIES AND STREAM DIMENSIONS

 SEGMENT     BED HYD. COND.      BED THICKNESS     ELEV.-TOP OF BED     WIDTH OF STREAM     DEPTH OF STREAM    STREAM ROUGHNESS
    No.     UPPER     LOWER     UPPER     LOWER     UPPER     LOWER     UPPER     LOWER     UPPER     LOWER   CHANNEL      BANK

     1  5.000E+00 5.000E+00 1.000E+00 1.000E+00 4.850E+01 3.800E+01 2.000E+01 2.000E+01                     5.000E-02
     2  5.000E+00 5.000E+00 1.000E+00 1.000E+00 4.025E+01 3.800E+01 2.000E+01 2.000E+01                     5.000E-02
     3  5.000E+00 5.000E+00 1.000E+00 1.000E+00 3.800E+01 3.000E+01 2.000E+01 2.000E+01                     5.000E-02



 
 SOLVING FOR HEAD 


     8 CALLS TO PCG ROUTINE FOR TIME STEP   1 IN STRESS PERIOD    1
    34 TOTAL ITERATIONS

 OUTPUT CONTROL FOR STRESS PERIOD    1   TIME STEP    1
    SAVE BUDGET
    SAVE HEAD FOR ALL LAYERS
    PRINT HEAD FOR ALL LAYERS
 UBDSV2 SAVING "STREAMFLOW OUT  " ON UNIT  50 AT TIME STEP  1, STRESS PERIOD   1



 STREAM LISTING     PERIOD      1   STEP        1

 LAYER ROW COL. STREAM  RCH.  FLOW INTO     FLOW TO   FLOW OUT OF   OVRLND.     DIRECT     STREAM       STREAM     STREAM     STREAM   STREAMBED  STREAMBED
                SEG.NO.  NO.  STRM. RCH.    AQUIFER    STRM. RCH.    RUNOFF     PRECIP       ET          HEAD       DEPTH      WIDTH   CONDCTNC.   GRADIENT

   1   13    1     1     1    1.0000E+05 -5.7325E+03   1.0573E+05  0.000E+00  0.000E+00  0.000E+00  4.84085E+01  1.471E-01  2.000E+01  2.000E+04 -2.866E-01
   1   13    2     1     2    1.0573E+05 -8.5558E+03   1.1429E+05  0.000E+00  0.000E+00  0.000E+00  4.79373E+01  1.532E-01  2.000E+01  2.000E+04 -4.278E-01
   1   14    3     1     3    1.1429E+05 -7.8433E+03   1.2213E+05  0.000E+00  0.000E+00  0.000E+00  4.74667E+01  1.599E-01  2.000E+01  2.000E+04 -3.922E-01
   1   15    4     1     4    1.2213E+05 -7.6798E+03   1.2981E+05  0.000E+00  0.000E+00  0.000E+00  4.69957E+01  1.661E-01  2.000E+01  2.000E+04 -3.840E-01
   1   16    5     1     5    1.2981E+05 -7.4908E+03   1.3730E+05  0.000E+00  0.000E+00  0.000E+00  4.65244E+01  1.721E-01  2.000E+01  2.000E+04 -3.745E-01
   1   16    6     1     6    1.3730E+05 -5.9860E+03   1.4329E+05  0.000E+00  0.000E+00  0.000E+00  4.60522E+01  1.772E-01  2.000E+01  2.000E+04 -2.993E-01
   1   16    7     1     7    1.4329E+05 -6.1168E+03   1.4941E+05  0.000E+00  0.000E+00  0.000E+00  4.55795E+01  1.818E-01  2.000E+01  2.000E+04 -3.058E-01
   1   16    8     1     8    1.4941E+05 -6.1950E+03   1.5560E+05  0.000E+00  0.000E+00  0.000E+00  4.51068E+01  1.863E-01  2.000E+01  2.000E+04 -3.098E-01
   1   16    9     1     9    1.5560E+05 -6.2047E+03   1.6180E+05  0.000E+00  0.000E+00  0.000E+00  4.46340E+01  1.908E-01  2.000E+01  2.000E+04 -3.102E-01
   1   16   10     1    10    1.6180E+05 -6.1523E+03   1.6796E+05  0.000E+00  0.000E+00  0.000E+00  4.41612E+01  1.953E-01  2.000E+01  2.000E+04 -3.076E-01
   1   16   11     1    11    1.6796E+05 -6.0760E+03   1.7403E+05  0.000E+00  0.000E+00  0.000E+00  4.36882E+01  1.996E-01  2.000E+01  2.000E+04 -3.038E-01
   1   16   12     1    12    1.7403E+05 -7.9083E+03   1.8194E+05  0.000E+00  0.000E+00  0.000E+00  4.32158E+01  2.044E-01  2.000E+01  2.000E+04 -3.954E-01
   1   15   13     1    13    1.8194E+05 -8.1133E+03   1.9005E+05  0.000E+00  0.000E+00  0.000E+00  4.27440E+01  2.099E-01  2.000E+01  2.000E+04 -4.057E-01
   1   14   14     1    14    1.9005E+05 -8.2266E+03   1.9828E+05  0.000E+00  0.000E+00  0.000E+00  4.22722E+01  2.154E-01  2.000E+01  2.000E+04 -4.113E-01
   1   13   15     1    15    1.9828E+05 -8.2077E+03   2.0649E+05  0.000E+00  0.000E+00  0.000E+00  4.18004E+01  2.208E-01  2.000E+01  2.000E+04 -4.104E-01
   1   12   16     1    16    2.0649E+05 -8.2563E+03   2.1475E+05  0.000E+00  0.000E+00  0.000E+00  4.13284E+01  2.262E-01  2.000E+01  2.000E+04 -4.128E-01
   1   12   17     1    17    2.1475E+05 -5.6208E+03   2.2037E+05  0.000E+00  0.000E+00  0.000E+00  4.08556E+01  2.306E-01  2.000E+01  2.000E+04 -2.810E-01
   1   12   18     1    18    2.2037E+05 -5.2592E+03   2.2563E+05  0.000E+00  0.000E+00  0.000E+00  4.03818E+01  2.340E-01  2.000E+01  2.000E+04 -2.630E-01
   1   12   19     1    19    2.2563E+05 -6.1041E+03   2.3173E+05  0.000E+00  0.000E+00  0.000E+00  3.99081E+01  2.376E-01  2.000E+01  2.000E+04 -3.052E-01
   1   13   20     1    20    2.3173E+05 -5.7740E+03   2.3750E+05  0.000E+00  0.000E+00  0.000E+00  3.94345E+01  2.413E-01  2.000E+01  2.000E+04 -2.887E-01
   1   14   21     1    21    2.3750E+05 -5.3551E+03   2.4286E+05  0.000E+00  0.000E+00  0.000E+00  3.89606E+01  2.447E-01  2.000E+01  2.000E+04 -2.678E-01
   1   14   22     1    22    2.4286E+05  4.5290E+03   2.3833E+05  0.000E+00  0.000E+00  0.000E+00  3.84836E+01  2.450E-01  2.000E+01  2.000E+04  2.264E-01
   1    9   30     2     1    5.0000E+04 -5.0524E+03   5.5052E+04  0.000E+00  0.000E+00  0.000E+00  4.02443E+01  1.193E-01  2.000E+01  2.000E+04 -2.526E-01
   1    9   29     2     2    5.5052E+04 -5.2394E+03   6.0292E+04  0.000E+00  0.000E+00  0.000E+00  4.00012E+01  1.262E-01  2.000E+01  2.000E+04 -2.620E-01
   1    9   28     2     3    6.0292E+04 -5.2792E+03   6.5571E+04  0.000E+00  0.000E+00  0.000E+00  3.97580E+01  1.330E-01  2.000E+01  2.000E+04 -2.640E-01
   1    9   27     2     4    6.5571E+04 -7.1277E+03   7.2699E+04  0.000E+00  0.000E+00  0.000E+00  3.95157E+01  1.407E-01  2.000E+01  2.000E+04 -3.564E-01
   1   10   26     2     5    7.2699E+04 -5.5120E+03   7.8211E+04  0.000E+00  0.000E+00  0.000E+00  3.92733E+01  1.483E-01  2.000E+01  2.000E+04 -2.756E-01
   1   11   25     2     6    7.8211E+04 -4.6766E+03   8.2887E+04  0.000E+00  0.000E+00  0.000E+00  3.90292E+01  1.542E-01  2.000E+01  2.000E+04 -2.338E-01
   1   12   24     2     7    8.2887E+04 -3.8774E+03   8.6765E+04  0.000E+00  0.000E+00  0.000E+00  3.87841E+01  1.591E-01  2.000E+01  2.000E+04 -1.939E-01
   1   13   23     2     8    8.6765E+04 -2.8961E+03   8.9661E+04  0.000E+00  0.000E+00  0.000E+00  3.85379E+01  1.629E-01  2.000E+01  2.000E+04 -1.448E-01
   1   14   22     2     9    8.9661E+04  6.3977E+02   8.9021E+04  0.000E+00  0.000E+00  0.000E+00  3.82891E+01  1.641E-01  2.000E+01  2.000E+04  3.199E-02
   1   14   22     3     1    3.2735E+05 -9.1008E+03   3.3645E+05  0.000E+00  0.000E+00  0.000E+00  3.78021E+01  2.466E-01  2.000E+01  2.000E+04 -4.550E-01
   1   15   23     3     2    3.3645E+05 -6.0397E+03   3.4249E+05  0.000E+00  0.000E+00  0.000E+00  3.69166E+01  2.499E-01  2.000E+01  2.000E+04 -3.020E-01
   1   15   24     3     3    3.4249E+05 -4.3647E+03   3.4686E+05  0.000E+00  0.000E+00  0.000E+00  3.60300E+01  2.522E-01  2.000E+01  2.000E+04 -2.182E-01
   1   15   25     3     4    3.4686E+05 -4.3535E+03   3.5121E+05  0.000E+00  0.000E+00  0.000E+00  3.51430E+01  2.541E-01  2.000E+01  2.000E+04 -2.177E-01
   1   15   26     3     5    3.5121E+05 -5.6659E+03   3.5688E+05  0.000E+00  0.000E+00  0.000E+00  3.42563E+01  2.563E-01  2.000E+01  2.000E+04 -2.833E-01
   1   16   27     3     6    3.5688E+05 -7.2913E+03   3.6417E+05  0.000E+00  0.000E+00  0.000E+00  3.33702E+01  2.591E-01  2.000E+01  2.000E+04 -3.646E-01
   1   17   28     3     7    3.6417E+05 -8.0755E+03   3.7224E+05  0.000E+00  0.000E+00  0.000E+00  3.24846E+01  2.624E-01  2.000E+01  2.000E+04 -4.038E-01
   1   18   29     3     8    3.7224E+05 -9.1265E+03   3.8137E+05  0.000E+00  0.000E+00  0.000E+00  3.15994E+01  2.661E-01  2.000E+01  2.000E+04 -4.563E-01
   1   18   30     3     9    3.8137E+05 -7.5409E+03   3.8891E+05  0.000E+00  0.000E+00  0.000E+00  3.07140E+01  2.696E-01  2.000E+01  2.000E+04 -3.770E-01



1
              HEAD IN LAYER   1 AT END OF TIME STEP   1 IN STRESS PERIOD    1
  ---------------------------------------------------------------------------

          1      2      3      4      5      6      7      8      9     10
         11     12     13     14     15     16     17     18     19     20
         21     22     23     24     25     26     27     28     29     30
 .........................................................................
   1  ****** ****** ****** ****** ****** ****** ****** ****** ****** ******
      ****** ****** ****** ****** ****** ****** ****** ****** ****** ******
      ****** ****** ****** ****** ****** ****** ****** ****** ****** ******
   2  ****** ****** ****** ****** ****** ****** ****** ****** ****** ******
      ****** ****** ****** ****** ****** ****** ****** ****** ****** ******
      ****** ****** ****** ****** ****** ****** ****** ****** ****** ******
   3  ****** ****** ****** ****** ****** ****** ****** ****** ****** ******
      ****** ****** ****** ****** ****** ****** ****** ****** ****** ******
      ****** ****** ****** ****** ****** ****** ****** ****** ****** ******
   4  ****** ****** ****** ****** ****** ****** ****** ****** ****** ******
      ****** ****** ****** ****** ****** ****** ****** ****** ****** ******
      ****** ****** ****** ****** ****** ****** ****** ****** ****** ******
   5  ****** ****** ****** ****** ****** ****** ****** ****** ****** ******
      ****** ****** ****** ****** ****** ****** ****** ****** ****** ******
      ****** ****** ****** ****** ****** ****** ****** ****** ****** ******
   6  ****** ****** ****** ****** ****** ****** ****** ****** ****** ******
      ****** ****** ****** ****** ****** ****** ****** ****** ****** ******
      ****** ****** ****** ****** ****** ****** ****** ****** ****** ******
   7  ****** ****** ****** ****** ****** ****** ****** ****** ****** ******
      ****** ****** ****** ****** ****** ****** ****** ****** ****** ******
      ****** ****** ****** ****** ****** ****** ****** ****** ****** ******
   8  ****** ****** ****** ****** ****** ****** ****** ****** ****** ******
      ****** ****** ****** ****** ****** ****** ****** ****** ****** ******
      ****** ****** ****** ****** ****** ****** ****** ****** ****** ******
   9  ****** ****** ****** ****** ****** ****** ****** ****** ****** ******
      ****** ****** ****** ****** ****** ****** ****** ****** ****** ******
      ****** ****** ****** ****** ****** ****** ****** ****** ****** ******
  10  ****** ****** ****** ****** ****** ****** ****** ****** ****** ******
      ****** ****** ****** ****** ****** ****** ****** ****** ****** ******
      ****** ****** ****** ****** ****** ****** ****** ****** ****** ******
  11  ****** ****** ****** ****** ****** ****** ****** ****** ****** ******
      ****** ****** ****** ****** ****** ****** ****** ****** ****** ******
      ****** ****** ****** ****** ****** ****** ****** ****** ****** ******
  12  ****** ****** ****** ****** ****** ****** ****** ****** ****** ******
      ****** ****** ****** ****** ****** ****** ****** ****** ****** ******
      ****** ****** ****** ****** ****** ****** ****** ****** ****** ******
  13  ****** ****** ****** ****** ****** ****** ****** ****** ****** ******
      ****** ****** ****** ****** ****** ****** ****** ****** ****** ******
      ****** ****** ****** ****** ****** ****** ****** ****** ****** ******
  14  ****** ****** ****** ****** ****** ****** ****** ****** ****** ******
      ****** ****** ****** ****** ****** ****** ****** ****** ****** ******
      ****** ****** ****** ****** ****** ****** ****** ****** ****** ******
  15  ****** ****** ****** ****** ****** ****** ****** ****** ****** ******
      ****** ****** ****** ****** ****** ****** ****** ****** ****** ******
      ****** ****** ****** ****** ****** ****** ****** ****** ****** ******
  16  ****** ****** ****** ****** ****** ****** ****** ****** ****** ******
      ****** ****** ****** ****** ****** ****** ****** ****** ****** ******
      ****** ****** ****** ****** ****** ****** ****** ****** ****** ******
  17  ****** ****** ****** ****** ****** ****** ****** ****** ****** ******
      ****** ****** ****** ****** ****** ****** ****** ****** ****** ******
      ****** ****** ****** ****** ****** ****** ****** ****** ****** ******
  18  ****** ****** ****** ****** ****** ****** ****** ****** ****** ******
      ****** ****** ****** ****** ****** ****** ****** ****** ****** ******
      ****** ****** ****** ****** ****** ****** ****** ****** ****** ******
  19  ****** ****** ****** ****** ****** ****** ****** ****** ****** ******
      ****** ****** ****** ****** ****** ****** ****** ****** ****** ******
      ****** ****** ****** ****** ****** ****** ****** ****** ****** ******
  20  ****** ****** ****** ****** ****** ****** ****** ****** ****** ******
      ****** ****** ****** ****** ****** ****** ****** ****** ****** ******
      ****** ****** ****** ****** ****** ****** ****** ****** ****** ******
  21  ****** ****** ****** ****** ****** ****** ****** ****** ****** ******
      ****** ****** ****** ****** ****** ****** ****** ****** ****** ******
      ****** ****** ****** ****** ****** ****** ****** ****** ****** ******
  22  ****** ****** ****** ****** ****** ****** ****** ****** ****** ******
      ****** ****** ****** ****** ****** ****** ****** ****** ****** ******
      ****** ****** ****** ****** ****** ****** ****** ****** ****** ******
  23  ****** ****** ****** ****** ****** ****** ****** ****** ****** ******
      ****** ****** ****** ****** ****** ****** ****** ****** ****** ******
      ****** ****** ****** ****** ****** ****** ****** ****** ****** ******
  24  ****** ****** ****** ****** ****** ****** ****** ****** ****** ******
      ****** ****** ****** ****** ****** ****** ****** ****** ****** ******
      ****** ****** ****** ****** ****** ****** ****** ****** ****** ******
  25  ****** ****** ****** ****** ****** ****** ****** ****** ****** ******
      ****** ****** ****** ****** ****** ****** ****** ****** ****** ******
      ****** ****** ****** ****** ****** ****** ****** ****** ****** ******

 HEAD WILL BE SAVED ON UNIT   51 AT END OF TIME STEP    1, STRESS PERIOD    1
1
  VOLUMETRIC BUDGET FOR ENTIRE MODEL AT END OF TIME STEP    1, STRESS PERIOD   1
  ------------------------------------------------------------------------------

     CUMULATIVE VOLUMES      L**3       RATES FOR THIS TIME STEP      L**3/T
     ------------------                 ------------------------

           IN:                                      IN:
           ---                                      ---
             STORAGE =    19401721.8313               STORAGE =      210888.2808
       CONSTANT HEAD =    15108361.4496         CONSTANT HEAD =      164221.3201
               WELLS =           0.0000                 WELLS =           0.0000
            RECHARGE =     1269600.0000              RECHARGE =       13800.0000
      STREAM LEAKAGE =      475525.8956        STREAM LEAKAGE =        5168.7597

            TOTAL IN =    36255209.1765              TOTAL IN =      394078.3606

          OUT:                                     OUT:
          ----                                     ----
             STORAGE =           0.0000               STORAGE =           0.0000
       CONSTANT HEAD =           0.0000         CONSTANT HEAD =           0.0000
               WELLS =    13800000.0000                 WELLS =      150000.0000
            RECHARGE =           0.0000              RECHARGE =           0.0000
      STREAM LEAKAGE =    22455209.3163        STREAM LEAKAGE =      244078.3621

           TOTAL OUT =    36255209.3163             TOTAL OUT =      394078.3621

            IN - OUT =          -0.1398              IN - OUT =      -1.5194E-03

 PERCENT DISCREPANCY =          -0.00     PERCENT DISCREPANCY =          -0.00






         TIME SUMMARY AT END OF TIME STEP    1 IN STRESS PERIOD    1
                    SECONDS     MINUTES      HOURS       DAYS        YEARS
                    -----------------------------------------------------------
   TIME STEP LENGTH 7.94880E+06 1.32480E+05  2208.0      92.000     0.25188    
 STRESS PERIOD TIME 7.94880E+06 1.32480E+05  2208.0      92.000     0.25188    
         TOTAL TIME 7.94880E+06 1.32480E+05  2208.0      92.000     0.25188    
1
1
                            STRESS PERIOD NO.    2, LENGTH =   91.00000    
                            -----------------------------------------------

                              NUMBER OF TIME STEPS =     1

                               MULTIPLIER FOR DELT =     1.500

                            INITIAL TIME STEP SIZE =   91.00000    

 WELL NO.  LAYER   ROW   COL   STRESS RATE         
 --------------------------------------------------
      1      1      5     22     -0.5000E+05
      2      1      3     18     -0.5000E+05
      3      1      3     21     -0.5000E+05

      3 WELLS

                 RECHARGE =  2.000000E-03

 REUSING STREAM SEGMENT DATA FROM LAST STRESS PERIOD
 
 SOLVING FOR HEAD 


     7 CALLS TO PCG ROUTINE FOR TIME STEP   1 IN STRESS PERIOD    2
    27 TOTAL ITERATIONS

 OUTPUT CONTROL FOR STRESS PERIOD    2   TIME STEP    1
    SAVE BUDGET
    SAVE HEAD FOR ALL LAYERS
    PRINT HEAD FOR ALL LAYERS
 UBDSV2 SAVING "STREAMFLOW OUT  " ON UNIT  50 AT TIME STEP  1, STRESS PERIOD   2



 STREAM LISTING     PERIOD      2   STEP        1

 LAYER ROW COL. STREAM  RCH.  FLOW INTO     FLOW TO   FLOW OUT OF   OVRLND.     DIRECT     STREAM       STREAM     STREAM     STREAM   STREAMBED  STREAMBED
                SEG.NO.  NO.  STRM. RCH.    AQUIFER    STRM. RCH.    RUNOFF     PRECIP       ET          HEAD       DEPTH      WIDTH   CONDCTNC.   GRADIENT

   1   13    1     1     1    1.0000E+05 -3.7886E+03   1.0379E+05  0.000E+00  0.000E+00  0.000E+00  4.84077E+01  1.463E-01  2.000E+01  2.000E+04 -1.894E-01
   1   13    2     1     2    1.0379E+05 -6.0818E+03   1.0987E+05  0.000E+00  0.000E+00  0.000E+00  4.79346E+01  1.505E-01  2.000E+01  2.000E+04 -3.041E-01
   1   14    3     1     3    1.0987E+05 -5.0739E+03   1.1494E+05  0.000E+00  0.000E+00  0.000E+00  4.74620E+01  1.552E-01  2.000E+01  2.000E+04 -2.537E-01
   1   15    4     1     4    1.1494E+05 -4.9381E+03   1.1988E+05  0.000E+00  0.000E+00  0.000E+00  4.69888E+01  1.593E-01  2.000E+01  2.000E+04 -2.469E-01
   1   16    5     1     5    1.1988E+05 -5.1648E+03   1.2505E+05  0.000E+00  0.000E+00  0.000E+00  4.65156E+01  1.634E-01  2.000E+01  2.000E+04 -2.582E-01
   1   16    6     1     6    1.2505E+05 -4.0708E+03   1.2912E+05  0.000E+00  0.000E+00  0.000E+00  4.60420E+01  1.670E-01  2.000E+01  2.000E+04 -2.035E-01
   1   16    7     1     7    1.2912E+05 -4.1543E+03   1.3327E+05  0.000E+00  0.000E+00  0.000E+00  4.55680E+01  1.702E-01  2.000E+01  2.000E+04 -2.077E-01
   1   16    8     1     8    1.3327E+05 -4.1999E+03   1.3747E+05  0.000E+00  0.000E+00  0.000E+00  4.50939E+01  1.735E-01  2.000E+01  2.000E+04 -2.100E-01
   1   16    9     1     9    1.3747E+05 -4.1937E+03   1.4167E+05  0.000E+00  0.000E+00  0.000E+00  4.46199E+01  1.767E-01  2.000E+01  2.000E+04 -2.097E-01
   1   16   10     1    10    1.4167E+05 -4.1438E+03   1.4581E+05  0.000E+00  0.000E+00  0.000E+00  4.41457E+01  1.798E-01  2.000E+01  2.000E+04 -2.072E-01
   1   16   11     1    11    1.4581E+05 -4.0909E+03   1.4990E+05  0.000E+00  0.000E+00  0.000E+00  4.36715E+01  1.829E-01  2.000E+01  2.000E+04 -2.045E-01
   1   16   12     1    12    1.4990E+05 -5.4778E+03   1.5538E+05  0.000E+00  0.000E+00  0.000E+00  4.31978E+01  1.864E-01  2.000E+01  2.000E+04 -2.739E-01
   1   15   13     1    13    1.5538E+05 -5.1450E+03   1.6052E+05  0.000E+00  0.000E+00  0.000E+00  4.27244E+01  1.903E-01  2.000E+01  2.000E+04 -2.572E-01
   1   14   14     1    14    1.6052E+05 -5.0472E+03   1.6557E+05  0.000E+00  0.000E+00  0.000E+00  4.22508E+01  1.940E-01  2.000E+01  2.000E+04 -2.524E-01
   1   13   15     1    15    1.6557E+05 -4.9117E+03   1.7048E+05  0.000E+00  0.000E+00  0.000E+00  4.17770E+01  1.975E-01  2.000E+01  2.000E+04 -2.456E-01
   1   12   16     1    16    1.7048E+05 -4.8866E+03   1.7537E+05  0.000E+00  0.000E+00  0.000E+00  4.13032E+01  2.009E-01  2.000E+01  2.000E+04 -2.443E-01
   1   12   17     1    17    1.7537E+05 -2.9188E+03   1.7829E+05  0.000E+00  0.000E+00  0.000E+00  4.08286E+01  2.036E-01  2.000E+01  2.000E+04 -1.459E-01
   1   12   18     1    18    1.7829E+05 -2.4903E+03   1.8078E+05  0.000E+00  0.000E+00  0.000E+00  4.03532E+01  2.055E-01  2.000E+01  2.000E+04 -1.245E-01
   1   12   19     1    19    1.8078E+05 -2.4776E+03   1.8326E+05  0.000E+00  0.000E+00  0.000E+00  3.98777E+01  2.072E-01  2.000E+01  2.000E+04 -1.239E-01
   1   13   20     1    20    1.8326E+05 -2.5792E+03   1.8583E+05  0.000E+00  0.000E+00  0.000E+00  3.94021E+01  2.089E-01  2.000E+01  2.000E+04 -1.290E-01
   1   14   21     1    21    1.8583E+05 -2.8770E+03   1.8871E+05  0.000E+00  0.000E+00  0.000E+00  3.89267E+01  2.108E-01  2.000E+01  2.000E+04 -1.439E-01
   1   14   22     1    22    1.8871E+05  5.1762E+03   1.8354E+05  0.000E+00  0.000E+00  0.000E+00  3.84486E+01  2.100E-01  2.000E+01  2.000E+04  2.588E-01
   1    9   30     2     1    5.0000E+04 -2.6188E+03   5.2619E+04  0.000E+00  0.000E+00  0.000E+00  4.02427E+01  1.177E-01  2.000E+01  2.000E+04 -1.309E-01
   1    9   29     2     2    5.2619E+04 -2.7829E+03   5.5402E+04  0.000E+00  0.000E+00  0.000E+00  3.99964E+01  1.214E-01  2.000E+01  2.000E+04 -1.391E-01
   1    9   28     2     3    5.5402E+04 -2.7540E+03   5.8156E+04  0.000E+00  0.000E+00  0.000E+00  3.97500E+01  1.250E-01  2.000E+01  2.000E+04 -1.377E-01
   1    9   27     2     4    5.8156E+04 -3.5241E+03   6.1680E+04  0.000E+00  0.000E+00  0.000E+00  3.95042E+01  1.292E-01  2.000E+01  2.000E+04 -1.762E-01
   1   10   26     2     5    6.1680E+04 -1.5888E+03   6.3268E+04  0.000E+00  0.000E+00  0.000E+00  3.92574E+01  1.324E-01  2.000E+01  2.000E+04 -7.944E-02
   1   11   25     2     6    6.3268E+04 -8.9248E+02   6.4161E+04  0.000E+00  0.000E+00  0.000E+00  3.90090E+01  1.340E-01  2.000E+01  2.000E+04 -4.462E-02
   1   12   24     2     7    6.4161E+04 -5.4866E+02   6.4710E+04  0.000E+00  0.000E+00  0.000E+00  3.87599E+01  1.349E-01  2.000E+01  2.000E+04 -2.743E-02
   1   13   23     2     8    6.4710E+04 -3.3410E+02   6.5044E+04  0.000E+00  0.000E+00  0.000E+00  3.85105E+01  1.355E-01  2.000E+01  2.000E+04 -1.671E-02
   1   14   22     2     9    6.5044E+04  1.3996E+03   6.3644E+04  0.000E+00  0.000E+00  0.000E+00  3.82598E+01  1.348E-01  2.000E+01  2.000E+04  6.998E-02
   1   14   22     3     1    2.4718E+05 -8.5109E+03   2.5569E+05  0.000E+00  0.000E+00  0.000E+00  3.77643E+01  2.087E-01  2.000E+01  2.000E+04 -4.255E-01
   1   15   23     3     2    2.5569E+05 -3.9637E+03   2.5965E+05  0.000E+00  0.000E+00  0.000E+00  3.68785E+01  2.118E-01  2.000E+01  2.000E+04 -1.982E-01
   1   15   24     3     3    2.5965E+05 -2.6707E+03   2.6233E+05  0.000E+00  0.000E+00  0.000E+00  3.59912E+01  2.134E-01  2.000E+01  2.000E+04 -1.335E-01
   1   15   25     3     4    2.6233E+05 -2.5220E+03   2.6485E+05  0.000E+00  0.000E+00  0.000E+00  3.51036E+01  2.147E-01  2.000E+01  2.000E+04 -1.261E-01
   1   15   26     3     5    2.6485E+05 -3.0561E+03   2.6790E+05  0.000E+00  0.000E+00  0.000E+00  3.42161E+01  2.161E-01  2.000E+01  2.000E+04 -1.528E-01
   1   16   27     3     6    2.6790E+05 -4.2638E+03   2.7217E+05  0.000E+00  0.000E+00  0.000E+00  3.33290E+01  2.178E-01  2.000E+01  2.000E+04 -2.132E-01
   1   17   28     3     7    2.7217E+05 -5.1031E+03   2.7727E+05  0.000E+00  0.000E+00  0.000E+00  3.24423E+01  2.201E-01  2.000E+01  2.000E+04 -2.552E-01
   1   18   29     3     8    2.7727E+05 -6.6973E+03   2.8397E+05  0.000E+00  0.000E+00  0.000E+00  3.15563E+01  2.229E-01  2.000E+01  2.000E+04 -3.349E-01
   1   18   30     3     9    2.8397E+05 -5.4752E+03   2.8944E+05  0.000E+00  0.000E+00  0.000E+00  3.06703E+01  2.258E-01  2.000E+01  2.000E+04 -2.738E-01



1
              HEAD IN LAYER   1 AT END OF TIME STEP   1 IN STRESS PERIOD    2
  ---------------------------------------------------------------------------

          1      2      3      4      5      6      7      8      9     10
         11     12     13     14     15     16     17     18     19     20
         21     22     23     24     25     26     27     28     29     30
 .........................................................................
   1  ****** ****** ****** ****** ****** ****** ****** ****** ****** ******
      ****** ****** ****** ****** ****** ****** ****** ****** ****** ******
      ****** ****** ****** ****** ****** ****** ****** ****** ****** ******
   2  ****** ****** ****** ****** ****** ****** ****** ****** ****** ******
      ****** ****** ****** ****** ****** ****** ****** ****** ****** ******
      ****** ****** ****** ****** ****** ****** ****** ****** ****** ******
   3  ****** ****** ****** ****** ****** ****** ****** ****** ****** ******
      ****** ****** ****** ****** ****** ****** ****** ****** ****** ******
      ****** ****** ****** ****** ****** ****** ****** ****** ****** ******
   4  ****** ****** ****** ****** ****** ****** ****** ****** ****** ******
      ****** ****** ****** ****** ****** ****** ****** ****** ****** ******
      ****** ****** ****** ****** ****** ****** ****** ****** ****** ******
   5  ****** ****** ****** ****** ****** ****** ****** ****** ****** ******
      ****** ****** ****** ****** ****** ****** ****** ****** ****** ******
      ****** ****** ****** ****** ****** ****** ****** ****** ****** ******
   6  ****** ****** ****** ****** ****** ****** ****** ****** ****** ******
      ****** ****** ****** ****** ****** ****** ****** ****** ****** ******
      ****** ****** ****** ****** ****** ****** ****** ****** ****** ******
   7  ****** ****** ****** ****** ****** ****** ****** ****** ****** ******
      ****** ****** ****** ****** ****** ****** ****** ****** ****** ******
      ****** ****** ****** ****** ****** ****** ****** ****** ****** ******
   8  ****** ****** ****** ****** ****** ****** ****** ****** ****** ******
      ****** ****** ****** ****** ****** ****** ****** ****** ****** ******
      ****** ****** ****** ****** ****** ****** ****** ****** ****** ******
   9  ****** ****** ****** ****** ****** ****** ****** ****** ****** ******
      ****** ****** ****** ****** ****** ****** ****** ****** ****** ******
      ****** ****** ****** ****** ****** ****** ****** ****** ****** ******
  10  ****** ****** ****** ****** ****** ****** ****** ****** ****** ******
      ****** ****** ****** ****** ****** ****** ****** ****** ****** ******
      ****** ****** ****** ****** ****** ****** ****** ****** ****** ******
  11  ****** ****** ****** ****** ****** ****** ****** ****** ****** ******
      ****** ****** ****** ****** ****** ****** ****** ****** ****** ******
      ****** ****** ****** ****** ****** ****** ****** ****** ****** ******
  12  ****** ****** ****** ****** ****** ****** ****** ****** ****** ******
      ****** ****** ****** ****** ****** ****** ****** ****** ****** ******
      ****** ****** ****** ****** ****** ****** ****** ****** ****** ******
  13  ****** ****** ****** ****** ****** ****** ****** ****** ****** ******
      ****** ****** ****** ****** ****** ****** ****** ****** ****** ******
      ****** ****** ****** ****** ****** ****** ****** ****** ****** ******
  14  ****** ****** ****** ****** ****** ****** ****** ****** ****** ******
      ****** ****** ****** ****** ****** ****** ****** ****** ****** ******
      ****** ****** ****** ****** ****** ****** ****** ****** ****** ******
  15  ****** ****** ****** ****** ****** ****** ****** ****** ****** ******
      ****** ****** ****** ****** ****** ****** ****** ****** ****** ******
      ****** ****** ****** ****** ****** ****** ****** ****** ****** ******
  16  ****** ****** ****** ****** ****** ****** ****** ****** ****** ******
      ****** ****** ****** ****** ****** ****** ****** ****** ****** ******
      ****** ****** ****** ****** ****** ****** ****** ****** ****** ******
  17  ****** ****** ****** ****** ****** ****** ****** ****** ****** ******
      ****** ****** ****** ****** ****** ****** ****** ****** ****** ******
      ****** ****** ****** ****** ****** ****** ****** ****** ****** ******
  18  ****** ****** ****** ****** ****** ****** ****** ****** ****** ******
      ****** ****** ****** ****** ****** ****** ****** ****** ****** ******
      ****** ****** ****** ****** ****** ****** ****** ****** ****** ******
  19  ****** ****** ****** ****** ****** ****** ****** ****** ****** ******
      ****** ****** ****** ****** ****** ****** ****** ****** ****** ******
      ****** ****** ****** ****** ****** ****** ****** ****** ****** ******
  20  ****** ****** ****** ****** ****** ****** ****** ****** ****** ******
      ****** ****** ****** ****** ****** ****** ****** ****** ****** ******
      ****** ****** ****** ****** ****** ****** ****** ****** ****** ******
  21  ****** ****** ****** ****** ****** ****** ****** ****** ****** ******
      ****** ****** ****** ****** ****** ****** ****** ****** ****** ******
      ****** ****** ****** ****** ****** ****** ****** ****** ****** ******
  22  ****** ****** ****** ****** ****** ****** ****** ****** ****** ******
      ****** ****** ****** ****** ****** ****** ****** ****** ****** ******
      ****** ****** ****** ****** ****** ****** ****** ****** ****** ******
  23  ****** ****** ****** ****** ****** ****** ****** ****** ****** ******
      ****** ****** ****** ****** ****** ****** ****** ****** ****** ******
      ****** ****** ****** ****** ****** ****** ****** ****** ****** ******
  24  ****** ****** ****** ****** ****** ****** ****** ****** ****** ******
      ****** ****** ****** ****** ****** ****** ****** ****** ****** ******
      ****** ****** ****** ****** ****** ****** ****** ****** ****** ******
  25  ****** ****** ****** ****** ****** ****** ****** ****** ****** ******
      ****** ****** ****** ****** ****** ****** ****** ****** ****** ******
      ****** ****** ****** ****** ****** ****** ****** ****** ****** ******

 HEAD WILL BE SAVED ON UNIT   51 AT END OF TIME STEP    1, STRESS PERIOD    2
1
  VOLUMETRIC BUDGET FOR ENTIRE MODEL AT END OF TIME STEP    1, STRESS PERIOD   2
  ------------------------------------------------------------------------------

     CUMULATIVE VOLUMES      L**3       RATES FOR THIS TIME STEP      L**3/T
     ------------------                 ------------------------

           IN:                                      IN:
           ---                                      ---
             STORAGE =    23178137.9348               STORAGE =       41499.0781
       CONSTANT HEAD =    32648010.6025         CONSTANT HEAD =      192743.3973
               WELLS =           0.0000                 WELLS =           0.0000
            RECHARGE =     6292800.0000              RECHARGE =       55200.0000
      STREAM LEAKAGE =     1073924.1456        STREAM LEAKAGE =        6575.8049

            TOTAL IN =    63192872.6829              TOTAL IN =      296018.2803

          OUT:                                     OUT:
          ----                                     ----
             STORAGE =           0.0000               STORAGE =           0.0000
       CONSTANT HEAD =           0.0000         CONSTANT HEAD =           0.0000
               WELLS =    27450000.0000                 WELLS =      150000.0000
            RECHARGE =           0.0000              RECHARGE =           0.0000
      STREAM LEAKAGE =    35742873.2916        STREAM LEAKAGE =      146018.2854

           TOTAL OUT =    63192873.2916             TOTAL OUT =      296018.2854

            IN - OUT =          -0.6086              IN - OUT =      -5.1519E-03

 PERCENT DISCREPANCY =          -0.00     PERCENT DISCREPANCY =          -0.00






         TIME SUMMARY AT END OF TIME STEP    1 IN STRESS PERIOD    2
                    SECONDS     MINUTES      HOURS       DAYS        YEARS
                    -----------------------------------------------------------
   TIME STEP LENGTH 7.86240E+06 1.31040E+05  2184.0      91.000     0.24914    
 STRESS PERIOD TIME 7.86240E+06 1.31040E+05  2184.0      91.000     0.24914    
         TOTAL TIME 1.58112E+07 2.63520E+05  4392.0      183.00     0.50103    
1
1
                            STRESS PERIOD NO.    3, LENGTH =   91.00000    
                            -----------------------------------------------

                              NUMBER OF TIME STEPS =     1

                               MULTIPLIER FOR DELT =     1.500

                            INITIAL TIME STEP SIZE =   91.00000    

 WELL NO.  LAYER   ROW   COL   STRESS RATE         
 --------------------------------------------------
      1      1      5     22     -0.5000E+05
      2      1      3     18     -0.5000E+05
      3      1      3     21     -0.5000E+05

      3 WELLS

                 RECHARGE =   0.00000    

 REUSING STREAM SEGMENT DATA FROM LAST STRESS PERIOD
 
 SOLVING FOR HEAD 


     7 CALLS TO PCG ROUTINE FOR TIME STEP   1 IN STRESS PERIOD    3
    27 TOTAL ITERATIONS

 OUTPUT CONTROL FOR STRESS PERIOD    3   TIME STEP    1
    SAVE BUDGET
    SAVE HEAD FOR ALL LAYERS
    PRINT HEAD FOR ALL LAYERS
 UBDSV2 SAVING "STREAMFLOW OUT  " ON UNIT  50 AT TIME STEP  1, STRESS PERIOD   3



 STREAM LISTING     PERIOD      3   STEP        1

 LAYER ROW COL. STREAM  RCH.  FLOW INTO     FLOW TO   FLOW OUT OF   OVRLND.     DIRECT     STREAM       STREAM     STREAM     STREAM   STREAMBED  STREAMBED
                SEG.NO.  NO.  STRM. RCH.    AQUIFER    STRM. RCH.    RUNOFF     PRECIP       ET          HEAD       DEPTH      WIDTH   CONDCTNC.   GRADIENT

   1   13    1     1     1    1.0000E+05 -2.8481E+03   1.0285E+05  0.000E+00  0.000E+00  0.000E+00  4.84072E+01  1.459E-01  2.000E+01  2.000E+04 -1.424E-01
   1   13    2     1     2    1.0285E+05 -4.7789E+03   1.0763E+05  0.000E+00  0.000E+00  0.000E+00  4.79332E+01  1.492E-01  2.000E+01  2.000E+04 -2.389E-01
   1   14    3     1     3    1.0763E+05 -3.7938E+03   1.1142E+05  0.000E+00  0.000E+00  0.000E+00  4.74596E+01  1.528E-01  2.000E+01  2.000E+04 -1.897E-01
   1   15    4     1     4    1.1142E+05 -3.6898E+03   1.1511E+05  0.000E+00  0.000E+00  0.000E+00  4.69854E+01  1.559E-01  2.000E+01  2.000E+04 -1.845E-01
   1   16    5     1     5    1.1511E+05 -4.0550E+03   1.1917E+05  0.000E+00  0.000E+00  0.000E+00  4.65113E+01  1.591E-01  2.000E+01  2.000E+04 -2.027E-01
   1   16    6     1     6    1.1917E+05 -3.1829E+03   1.2235E+05  0.000E+00  0.000E+00  0.000E+00  4.60370E+01  1.620E-01  2.000E+01  2.000E+04 -1.591E-01
   1   16    7     1     7    1.2235E+05 -3.2392E+03   1.2559E+05  0.000E+00  0.000E+00  0.000E+00  4.55623E+01  1.646E-01  2.000E+01  2.000E+04 -1.620E-01
   1   16    8     1     8    1.2559E+05 -3.2673E+03   1.2885E+05  0.000E+00  0.000E+00  0.000E+00  4.50876E+01  1.671E-01  2.000E+01  2.000E+04 -1.634E-01
   1   16    9     1     9    1.2885E+05 -3.2559E+03   1.3211E+05  0.000E+00  0.000E+00  0.000E+00  4.46129E+01  1.697E-01  2.000E+01  2.000E+04 -1.628E-01
   1   16   10     1    10    1.3211E+05 -3.2138E+03   1.3532E+05  0.000E+00  0.000E+00  0.000E+00  4.41381E+01  1.722E-01  2.000E+01  2.000E+04 -1.607E-01
   1   16   11     1    11    1.3532E+05 -3.1786E+03   1.3850E+05  0.000E+00  0.000E+00  0.000E+00  4.36633E+01  1.747E-01  2.000E+01  2.000E+04 -1.589E-01
   1   16   12     1    12    1.3850E+05 -4.3105E+03   1.4281E+05  0.000E+00  0.000E+00  0.000E+00  4.31889E+01  1.775E-01  2.000E+01  2.000E+04 -2.155E-01
   1   15   13     1    13    1.4281E+05 -3.7979E+03   1.4661E+05  0.000E+00  0.000E+00  0.000E+00  4.27147E+01  1.806E-01  2.000E+01  2.000E+04 -1.899E-01
   1   14   14     1    14    1.4661E+05 -3.6169E+03   1.5023E+05  0.000E+00  0.000E+00  0.000E+00  4.22401E+01  1.833E-01  2.000E+01  2.000E+04 -1.808E-01
   1   13   15     1    15    1.5023E+05 -3.4382E+03   1.5367E+05  0.000E+00  0.000E+00  0.000E+00  4.17655E+01  1.859E-01  2.000E+01  2.000E+04 -1.719E-01
   1   12   16     1    16    1.5367E+05 -3.2925E+03   1.5696E+05  0.000E+00  0.000E+00  0.000E+00  4.12907E+01  1.884E-01  2.000E+01  2.000E+04 -1.646E-01
   1   12   17     1    17    1.5696E+05 -1.7682E+03   1.5873E+05  0.000E+00  0.000E+00  0.000E+00  4.08152E+01  1.902E-01  2.000E+01  2.000E+04 -8.841E-02
   1   12   18     1    18    1.5873E+05 -1.3436E+03   1.6007E+05  0.000E+00  0.000E+00  0.000E+00  4.03391E+01  1.913E-01  2.000E+01  2.000E+04 -6.718E-02
   1   12   19     1    19    1.6007E+05 -9.8700E+02   1.6106E+05  0.000E+00  0.000E+00  0.000E+00  3.98626E+01  1.922E-01  2.000E+01  2.000E+04 -4.935E-02
   1   13   20     1    20    1.6106E+05 -1.3584E+03   1.6242E+05  0.000E+00  0.000E+00  0.000E+00  3.93862E+01  1.930E-01  2.000E+01  2.000E+04 -6.792E-02
   1   14   21     1    21    1.6242E+05 -1.8611E+03   1.6428E+05  0.000E+00  0.000E+00  0.000E+00  3.89101E+01  1.942E-01  2.000E+01  2.000E+04 -9.305E-02
   1   14   22     1    22    1.6428E+05  5.3733E+03   1.5890E+05  0.000E+00  0.000E+00  0.000E+00  3.84316E+01  1.929E-01  2.000E+01  2.000E+04  2.687E-01
   1    9   30     2     1    5.0000E+04 -1.7220E+03   5.1722E+04  0.000E+00  0.000E+00  0.000E+00  4.02421E+01  1.171E-01  2.000E+01  2.000E+04 -8.610E-02
   1    9   29     2     2    5.1722E+04 -1.8816E+03   5.3604E+04  0.000E+00  0.000E+00  0.000E+00  3.99945E+01  1.195E-01  2.000E+01  2.000E+04 -9.408E-02
   1    9   28     2     3    5.3604E+04 -1.8265E+03   5.5430E+04  0.000E+00  0.000E+00  0.000E+00  3.97470E+01  1.220E-01  2.000E+01  2.000E+04 -9.133E-02
   1    9   27     2     4    5.5430E+04 -2.1061E+03   5.7536E+04  0.000E+00  0.000E+00  0.000E+00  3.94997E+01  1.247E-01  2.000E+01  2.000E+04 -1.053E-01
   1   10   26     2     5    5.7536E+04 -1.6630E+02   5.7703E+04  0.000E+00  0.000E+00  0.000E+00  3.92512E+01  1.262E-01  2.000E+01  2.000E+04 -8.315E-03
   1   11   25     2     6    5.7703E+04  4.4834E+02   5.7254E+04  0.000E+00  0.000E+00  0.000E+00  3.90010E+01  1.260E-01  2.000E+01  2.000E+04  2.242E-02
   1   12   24     2     7    5.7254E+04  5.9005E+02   5.6664E+04  0.000E+00  0.000E+00  0.000E+00  3.87503E+01  1.253E-01  2.000E+01  2.000E+04  2.950E-02
   1   13   23     2     8    5.6664E+04  4.8687E+02   5.6177E+04  0.000E+00  0.000E+00  0.000E+00  3.84996E+01  1.246E-01  2.000E+01  2.000E+04  2.434E-02
   1   14   22     2     9    5.6177E+04  1.7046E+03   5.4473E+04  0.000E+00  0.000E+00  0.000E+00  3.82481E+01  1.231E-01  2.000E+01  2.000E+04  8.523E-02
   1   14   22     3     1    2.1338E+05 -8.3198E+03   2.2170E+05  0.000E+00  0.000E+00  0.000E+00  3.77469E+01  1.913E-01  2.000E+01  2.000E+04 -4.160E-01
   1   15   23     3     2    2.2170E+05 -3.0947E+03   2.2479E+05  0.000E+00  0.000E+00  0.000E+00  3.68610E+01  1.943E-01  2.000E+01  2.000E+04 -1.547E-01
   1   15   24     3     3    2.2479E+05 -2.0754E+03   2.2687E+05  0.000E+00  0.000E+00  0.000E+00  3.59735E+01  1.957E-01  2.000E+01  2.000E+04 -1.038E-01
   1   15   25     3     4    2.2687E+05 -1.9250E+03   2.2879E+05  0.000E+00  0.000E+00  0.000E+00  3.50856E+01  1.967E-01  2.000E+01  2.000E+04 -9.625E-02
   1   15   26     3     5    2.2879E+05 -2.2371E+03   2.3103E+05  0.000E+00  0.000E+00  0.000E+00  3.41978E+01  1.978E-01  2.000E+01  2.000E+04 -1.119E-01
   1   16   27     3     6    2.3103E+05 -3.2286E+03   2.3426E+05  0.000E+00  0.000E+00  0.000E+00  3.33103E+01  1.992E-01  2.000E+01  2.000E+04 -1.614E-01
   1   17   28     3     7    2.3426E+05 -4.0608E+03   2.3832E+05  0.000E+00  0.000E+00  0.000E+00  3.24233E+01  2.011E-01  2.000E+01  2.000E+04 -2.030E-01
   1   18   29     3     8    2.3832E+05 -5.7561E+03   2.4407E+05  0.000E+00  0.000E+00  0.000E+00  3.15369E+01  2.036E-01  2.000E+01  2.000E+04 -2.878E-01
   1   18   30     3     9    2.4407E+05 -4.7690E+03   2.4884E+05  0.000E+00  0.000E+00  0.000E+00  3.06507E+01  2.062E-01  2.000E+01  2.000E+04 -2.385E-01



1
              HEAD IN LAYER   1 AT END OF TIME STEP   1 IN STRESS PERIOD    3
  ---------------------------------------------------------------------------

          1      2      3      4      5      6      7      8      9     10
         11     12     13     14     15     16     17     18     19     20
         21     22     23     24     25     26     27     28     29     30
 .........................................................................
   1  ****** ****** ****** ****** ****** ****** ****** ****** ****** ******
      ****** ****** ****** ****** ****** ****** ****** ****** ****** ******
      ****** ****** ****** ****** ****** ****** ****** ****** ****** ******
   2  ****** ****** ****** ****** ****** ****** ****** ****** ****** ******
      ****** ****** ****** ****** ****** ****** ****** ****** ****** ******
      ****** ****** ****** ****** ****** ****** ****** ****** ****** ******
   3  ****** ****** ****** ****** ****** ****** ****** ****** ****** ******
      ****** ****** ****** ****** ****** ****** ****** ****** ****** ******
      ****** ****** ****** ****** ****** ****** ****** ****** ****** ******
   4  ****** ****** ****** ****** ****** ****** ****** ****** ****** ******
      ****** ****** ****** ****** ****** ****** ****** ****** ****** ******
      ****** ****** ****** ****** ****** ****** ****** ****** ****** ******
   5  ****** ****** ****** ****** ****** ****** ****** ****** ****** ******
      ****** ****** ****** ****** ****** ****** ****** ****** ****** ******
      ****** ****** ****** ****** ****** ****** ****** ****** ****** ******
   6  ****** ****** ****** ****** ****** ****** ****** ****** ****** ******
      ****** ****** ****** ****** ****** ****** ****** ****** ****** ******
      ****** ****** ****** ****** ****** ****** ****** ****** ****** ******
   7  ****** ****** ****** ****** ****** ****** ****** ****** ****** ******
      ****** ****** ****** ****** ****** ****** ****** ****** ****** ******
      ****** ****** ****** ****** ****** ****** ****** ****** ****** ******
   8  ****** ****** ****** ****** ****** ****** ****** ****** ****** ******
      ****** ****** ****** ****** ****** ****** ****** ****** ****** ******
      ****** ****** ****** ****** ****** ****** ****** ****** ****** ******
   9  ****** ****** ****** ****** ****** ****** ****** ****** ****** ******
      ****** ****** ****** ****** ****** ****** ****** ****** ****** ******
      ****** ****** ****** ****** ****** ****** ****** ****** ****** ******
  10  ****** ****** ****** ****** ****** ****** ****** ****** ****** ******
      ****** ****** ****** ****** ****** ****** ****** ****** ****** ******
      ****** ****** ****** ****** ****** ****** ****** ****** ****** ******
  11  ****** ****** ****** ****** ****** ****** ****** ****** ****** ******
      ****** ****** ****** ****** ****** ****** ****** ****** ****** ******
      ****** ****** ****** ****** ****** ****** ****** ****** ****** ******
  12  ****** ****** ****** ****** ****** ****** ****** ****** ****** ******
      ****** ****** ****** ****** ****** ****** ****** ****** ****** ******
      ****** ****** ****** ****** ****** ****** ****** ****** ****** ******
  13  ****** ****** ****** ****** ****** ****** ****** ****** ****** ******
      ****** ****** ****** ****** ****** ****** ****** ****** ****** ******
      ****** ****** ****** ****** ****** ****** ****** ****** ****** ******
  14  ****** ****** ****** ****** ****** ****** ****** ****** ****** ******
      ****** ****** ****** ****** ****** ****** ****** ****** ****** ******
      ****** ****** ****** ****** ****** ****** ****** ****** ****** ******
  15  ****** ****** ****** ****** ****** ****** ****** ****** ****** ******
      ****** ****** ****** ****** ****** ****** ****** ****** ****** ******
      ****** ****** ****** ****** ****** ****** ****** ****** ****** ******
  16  ****** ****** ****** ****** ****** ****** ****** ****** ****** ******
      ****** ****** ****** ****** ****** ****** ****** ****** ****** ******
      ****** ****** ****** ****** ****** ****** ****** ****** ****** ******
  17  ****** ****** ****** ****** ****** ****** ****** ****** ****** ******
      ****** ****** ****** ****** ****** ****** ****** ****** ****** ******
      ****** ****** ****** ****** ****** ****** ****** ****** ****** ******
  18  ****** ****** ****** ****** ****** ****** ****** ****** ****** ******
      ****** ****** ****** ****** ****** ****** ****** ****** ****** ******
      ****** ****** ****** ****** ****** ****** ****** ****** ****** ******
  19  ****** ****** ****** ****** ****** ****** ****** ****** ****** ******
      ****** ****** ****** ****** ****** ****** ****** ****** ****** ******
      ****** ****** ****** ****** ****** ****** ****** ****** ****** ******
  20  ****** ****** ****** ****** ****** ****** ****** ****** ****** ******
      ****** ****** ****** ****** ****** ****** ****** ****** ****** ******
      ****** ****** ****** ****** ****** ****** ****** ****** ****** ******
  21  ****** ****** ****** ****** ****** ****** ****** ****** ****** ******
      ****** ****** ****** ****** ****** ****** ****** ****** ****** ******
      ****** ****** ****** ****** ****** ****** ****** ****** ****** ******
  22  ****** ****** ****** ****** ****** ****** ****** ****** ****** ******
      ****** ****** ****** ****** ****** ****** ****** ****** ****** ******
      ****** ****** ****** ****** ****** ****** ****** ****** ****** ******
  23  ****** ****** ****** ****** ****** ****** ****** ****** ****** ******
      ****** ****** ****** ****** ****** ****** ****** ****** ****** ******
      ****** ****** ****** ****** ****** ****** ****** ****** ****** ******
  24  ****** ****** ****** ****** ****** ****** ****** ****** ****** ******
      ****** ****** ****** ****** ****** ****** ****** ****** ****** ******
      ****** ****** ****** ****** ****** ****** ****** ****** ****** ******
  25  ****** ****** ****** ****** ****** ****** ****** ****** ****** ******
      ****** ****** ****** ****** ****** ****** ****** ****** ****** ******
      ****** ****** ****** ****** ****** ****** ****** ****** ****** ******

 HEAD WILL BE SAVED ON UNIT   51 AT END OF TIME STEP    1, STRESS PERIOD    3
1
  VOLUMETRIC BUDGET FOR ENTIRE MODEL AT END OF TIME STEP    1, STRESS PERIOD   3
  ------------------------------------------------------------------------------

     CUMULATIVE VOLUMES      L**3       RATES FOR THIS TIME STEP      L**3/T
     ------------------                 ------------------------

           IN:                                      IN:
           ---                                      ---
             STORAGE =    25850742.2645               STORAGE =       29369.2783
       CONSTANT HEAD =    52620152.2696         CONSTANT HEAD =      219474.0843
               WELLS =           0.0000                 WELLS =           0.0000
            RECHARGE =     6292800.0000              RECHARGE =           0.0000
      STREAM LEAKAGE =     1856805.9647        STREAM LEAKAGE =        8603.0969

            TOTAL IN =    86620500.4987              TOTAL IN =      257446.4595

          OUT:                                     OUT:
          ----                                     ----
             STORAGE =           0.0000               STORAGE =           0.0000
       CONSTANT HEAD =           0.0000         CONSTANT HEAD =           0.0000
               WELLS =    41100000.0000                 WELLS =      150000.0000
            RECHARGE =           0.0000              RECHARGE =           0.0000
      STREAM LEAKAGE =    45520501.3574        STREAM LEAKAGE =      107446.4623

           TOTAL OUT =    86620501.3574             TOTAL OUT =      257446.4623

            IN - OUT =          -0.8587              IN - OUT =      -2.7478E-03

 PERCENT DISCREPANCY =          -0.00     PERCENT DISCREPANCY =          -0.00






         TIME SUMMARY AT END OF TIME STEP    1 IN STRESS PERIOD    3
                    SECONDS     MINUTES      HOURS       DAYS        YEARS
                    -----------------------------------------------------------
   TIME STEP LENGTH 7.86240E+06 1.31040E+05  2184.0      91.000     0.24914    
 STRESS PERIOD TIME 7.86240E+06 1.31040E+05  2184.0      91.000     0.24914    
         TOTAL TIME 2.36736E+07 3.94560E+05  6576.0      274.00     0.75017    
1
1
                            STRESS PERIOD NO.    4, LENGTH =   91.00000    
                            -----------------------------------------------

                              NUMBER OF TIME STEPS =     1

                               MULTIPLIER FOR DELT =     1.500

                            INITIAL TIME STEP SIZE =   91.00000    

 WELL NO.  LAYER   ROW   COL   STRESS RATE         
 --------------------------------------------------
      1      1      5     22     -0.5000E+05
      2      1      3     18     -0.5000E+05
      3      1      3     21     -0.5000E+05

      3 WELLS

                 RECHARGE =  1.000000E-03

 REUSING STREAM SEGMENT DATA FROM LAST STRESS PERIOD
 
 SOLVING FOR HEAD 


     5 CALLS TO PCG ROUTINE FOR TIME STEP   1 IN STRESS PERIOD    4
    18 TOTAL ITERATIONS

 OUTPUT CONTROL FOR STRESS PERIOD    4   TIME STEP    1
    SAVE BUDGET
    SAVE HEAD FOR ALL LAYERS
    PRINT HEAD FOR ALL LAYERS
 UBDSV2 SAVING "STREAMFLOW OUT  " ON UNIT  50 AT TIME STEP  1, STRESS PERIOD   4



 STREAM LISTING     PERIOD      4   STEP        1

 LAYER ROW COL. STREAM  RCH.  FLOW INTO     FLOW TO   FLOW OUT OF   OVRLND.     DIRECT     STREAM       STREAM     STREAM     STREAM   STREAMBED  STREAMBED
                SEG.NO.  NO.  STRM. RCH.    AQUIFER    STRM. RCH.    RUNOFF     PRECIP       ET          HEAD       DEPTH      WIDTH   CONDCTNC.   GRADIENT

   1   13    1     1     1    1.0000E+05 -2.8519E+03   1.0285E+05  0.000E+00  0.000E+00  0.000E+00  4.84072E+01  1.459E-01  2.000E+01  2.000E+04 -1.426E-01
   1   13    2     1     2    1.0285E+05 -4.7365E+03   1.0759E+05  0.000E+00  0.000E+00  0.000E+00  4.79332E+01  1.491E-01  2.000E+01  2.000E+04 -2.368E-01
   1   14    3     1     3    1.0759E+05 -3.8176E+03   1.1141E+05  0.000E+00  0.000E+00  0.000E+00  4.74596E+01  1.527E-01  2.000E+01  2.000E+04 -1.909E-01
   1   15    4     1     4    1.1141E+05 -3.7374E+03   1.1514E+05  0.000E+00  0.000E+00  0.000E+00  4.69854E+01  1.559E-01  2.000E+01  2.000E+04 -1.869E-01
   1   16    5     1     5    1.1514E+05 -4.1245E+03   1.1927E+05  0.000E+00  0.000E+00  0.000E+00  4.65114E+01  1.591E-01  2.000E+01  2.000E+04 -2.062E-01
   1   16    6     1     6    1.1927E+05 -3.2266E+03   1.2249E+05  0.000E+00  0.000E+00  0.000E+00  4.60371E+01  1.621E-01  2.000E+01  2.000E+04 -1.613E-01
   1   16    7     1     7    1.2249E+05 -3.2757E+03   1.2577E+05  0.000E+00  0.000E+00  0.000E+00  4.55624E+01  1.647E-01  2.000E+01  2.000E+04 -1.638E-01
   1   16    8     1     8    1.2577E+05 -3.2994E+03   1.2907E+05  0.000E+00  0.000E+00  0.000E+00  4.50877E+01  1.673E-01  2.000E+01  2.000E+04 -1.650E-01
   1   16    9     1     9    1.2907E+05 -3.2861E+03   1.3236E+05  0.000E+00  0.000E+00  0.000E+00  4.46131E+01  1.699E-01  2.000E+01  2.000E+04 -1.643E-01
   1   16   10     1    10    1.3236E+05 -3.2447E+03   1.3560E+05  0.000E+00  0.000E+00  0.000E+00  4.41383E+01  1.724E-01  2.000E+01  2.000E+04 -1.622E-01
   1   16   11     1    11    1.3560E+05 -3.2131E+03   1.3881E+05  0.000E+00  0.000E+00  0.000E+00  4.36635E+01  1.749E-01  2.000E+01  2.000E+04 -1.607E-01
   1   16   12     1    12    1.3881E+05 -4.3599E+03   1.4317E+05  0.000E+00  0.000E+00  0.000E+00  4.31891E+01  1.778E-01  2.000E+01  2.000E+04 -2.180E-01
   1   15   13     1    13    1.4317E+05 -3.8182E+03   1.4699E+05  0.000E+00  0.000E+00  0.000E+00  4.27149E+01  1.808E-01  2.000E+01  2.000E+04 -1.909E-01
   1   14   14     1    14    1.4699E+05 -3.6107E+03   1.5060E+05  0.000E+00  0.000E+00  0.000E+00  4.22404E+01  1.836E-01  2.000E+01  2.000E+04 -1.805E-01
   1   13   15     1    15    1.5060E+05 -3.4014E+03   1.5400E+05  0.000E+00  0.000E+00  0.000E+00  4.17657E+01  1.862E-01  2.000E+01  2.000E+04 -1.701E-01
   1   12   16     1    16    1.5400E+05 -3.1668E+03   1.5717E+05  0.000E+00  0.000E+00  0.000E+00  4.12909E+01  1.886E-01  2.000E+01  2.000E+04 -1.583E-01
   1   12   17     1    17    1.5717E+05 -1.7169E+03   1.5889E+05  0.000E+00  0.000E+00  0.000E+00  4.08154E+01  1.904E-01  2.000E+01  2.000E+04 -8.585E-02
   1   12   18     1    18    1.5889E+05 -1.2982E+03   1.6019E+05  0.000E+00  0.000E+00  0.000E+00  4.03392E+01  1.914E-01  2.000E+01  2.000E+04 -6.491E-02
   1   12   19     1    19    1.6019E+05 -9.0877E+02   1.6109E+05  0.000E+00  0.000E+00  0.000E+00  3.98627E+01  1.922E-01  2.000E+01  2.000E+04 -4.544E-02
   1   13   20     1    20    1.6109E+05 -1.3875E+03   1.6248E+05  0.000E+00  0.000E+00  0.000E+00  3.93862E+01  1.931E-01  2.000E+01  2.000E+04 -6.937E-02
   1   14   21     1    21    1.6248E+05 -1.9177E+03   1.6440E+05  0.000E+00  0.000E+00  0.000E+00  3.89101E+01  1.942E-01  2.000E+01  2.000E+04 -9.588E-02
   1   14   22     1    22    1.6440E+05  5.3480E+03   1.5905E+05  0.000E+00  0.000E+00  0.000E+00  3.84317E+01  1.930E-01  2.000E+01  2.000E+04  2.674E-01
   1    9   30     2     1    5.0000E+04 -1.7897E+03   5.1790E+04  0.000E+00  0.000E+00  0.000E+00  4.02421E+01  1.171E-01  2.000E+01  2.000E+04 -8.948E-02
   1    9   29     2     2    5.1790E+04 -1.9435E+03   5.3733E+04  0.000E+00  0.000E+00  0.000E+00  3.99947E+01  1.197E-01  2.000E+01  2.000E+04 -9.717E-02
   1    9   28     2     3    5.3733E+04 -1.8735E+03   5.5607E+04  0.000E+00  0.000E+00  0.000E+00  3.97472E+01  1.222E-01  2.000E+01  2.000E+04 -9.367E-02
   1    9   27     2     4    5.5607E+04 -2.0866E+03   5.7693E+04  0.000E+00  0.000E+00  0.000E+00  3.94999E+01  1.249E-01  2.000E+01  2.000E+04 -1.043E-01
   1   10   26     2     5    5.7693E+04 -1.8285E+02   5.7876E+04  0.000E+00  0.000E+00  0.000E+00  3.92514E+01  1.264E-01  2.000E+01  2.000E+04 -9.143E-03
   1   11   25     2     6    5.7876E+04  4.2187E+02   5.7454E+04  0.000E+00  0.000E+00  0.000E+00  3.90012E+01  1.262E-01  2.000E+01  2.000E+04  2.109E-02
   1   12   24     2     7    5.7454E+04  5.4950E+02   5.6905E+04  0.000E+00  0.000E+00  0.000E+00  3.87506E+01  1.256E-01  2.000E+01  2.000E+04  2.747E-02
   1   13   23     2     8    5.6905E+04  4.3088E+02   5.6474E+04  0.000E+00  0.000E+00  0.000E+00  3.84999E+01  1.249E-01  2.000E+01  2.000E+04  2.154E-02
   1   14   22     2     9    5.6474E+04  1.6855E+03   5.4788E+04  0.000E+00  0.000E+00  0.000E+00  3.82485E+01  1.235E-01  2.000E+01  2.000E+04  8.428E-02
   1   14   22     3     1    2.1384E+05 -8.3420E+03   2.2218E+05  0.000E+00  0.000E+00  0.000E+00  3.77472E+01  1.916E-01  2.000E+01  2.000E+04 -4.171E-01
   1   15   23     3     2    2.2218E+05 -3.1734E+03   2.2536E+05  0.000E+00  0.000E+00  0.000E+00  3.68613E+01  1.946E-01  2.000E+01  2.000E+04 -1.587E-01
   1   15   24     3     3    2.2536E+05 -2.1603E+03   2.2752E+05  0.000E+00  0.000E+00  0.000E+00  3.59738E+01  1.960E-01  2.000E+01  2.000E+04 -1.080E-01
   1   15   25     3     4    2.2752E+05 -2.0213E+03   2.2954E+05  0.000E+00  0.000E+00  0.000E+00  3.50860E+01  1.971E-01  2.000E+01  2.000E+04 -1.011E-01
   1   15   26     3     5    2.2954E+05 -2.3660E+03   2.3190E+05  0.000E+00  0.000E+00  0.000E+00  3.41982E+01  1.982E-01  2.000E+01  2.000E+04 -1.183E-01
   1   16   27     3     6    2.3190E+05 -3.3687E+03   2.3527E+05  0.000E+00  0.000E+00  0.000E+00  3.33108E+01  1.997E-01  2.000E+01  2.000E+04 -1.684E-01
   1   17   28     3     7    2.3527E+05 -4.2017E+03   2.3947E+05  0.000E+00  0.000E+00  0.000E+00  3.24239E+01  2.016E-01  2.000E+01  2.000E+04 -2.101E-01
   1   18   29     3     8    2.3947E+05 -5.8827E+03   2.4536E+05  0.000E+00  0.000E+00  0.000E+00  3.15375E+01  2.042E-01  2.000E+01  2.000E+04 -2.941E-01
   1   18   30     3     9    2.4536E+05 -4.8800E+03   2.5024E+05  0.000E+00  0.000E+00  0.000E+00  3.06513E+01  2.069E-01  2.000E+01  2.000E+04 -2.440E-01



1
              HEAD IN LAYER   1 AT END OF TIME STEP   1 IN STRESS PERIOD    4
  ---------------------------------------------------------------------------

          1      2      3      4      5      6      7      8      9     10
         11     12     13     14     15     16     17     18     19     20
         21     22     23     24     25     26     27     28     29     30
 .........................................................................
   1  ****** ****** ****** ****** ****** ****** ****** ****** ****** ******
      ****** ****** ****** ****** ****** ****** ****** ****** ****** ******
      ****** ****** ****** ****** ****** ****** ****** ****** ****** ******
   2  ****** ****** ****** ****** ****** ****** ****** ****** ****** ******
      ****** ****** ****** ****** ****** ****** ****** ****** ****** ******
      ****** ****** ****** ****** ****** ****** ****** ****** ****** ******
   3  ****** ****** ****** ****** ****** ****** ****** ****** ****** ******
      ****** ****** ****** ****** ****** ****** ****** ****** ****** ******
      ****** ****** ****** ****** ****** ****** ****** ****** ****** ******
   4  ****** ****** ****** ****** ****** ****** ****** ****** ****** ******
      ****** ****** ****** ****** ****** ****** ****** ****** ****** ******
      ****** ****** ****** ****** ****** ****** ****** ****** ****** ******
   5  ****** ****** ****** ****** ****** ****** ****** ****** ****** ******
      ****** ****** ****** ****** ****** ****** ****** ****** ****** ******
      ****** ****** ****** ****** ****** ****** ****** ****** ****** ******
   6  ****** ****** ****** ****** ****** ****** ****** ****** ****** ******
      ****** ****** ****** ****** ****** ****** ****** ****** ****** ******
      ****** ****** ****** ****** ****** ****** ****** ****** ****** ******
   7  ****** ****** ****** ****** ****** ****** ****** ****** ****** ******
      ****** ****** ****** ****** ****** ****** ****** ****** ****** ******
      ****** ****** ****** ****** ****** ****** ****** ****** ****** ******
   8  ****** ****** ****** ****** ****** ****** ****** ****** ****** ******
      ****** ****** ****** ****** ****** ****** ****** ****** ****** ******
      ****** ****** ****** ****** ****** ****** ****** ****** ****** ******
   9  ****** ****** ****** ****** ****** ****** ****** ****** ****** ******
      ****** ****** ****** ****** ****** ****** ****** ****** ****** ******
      ****** ****** ****** ****** ****** ****** ****** ****** ****** ******
  10  ****** ****** ****** ****** ****** ****** ****** ****** ****** ******
      ****** ****** ****** ****** ****** ****** ****** ****** ****** ******
      ****** ****** ****** ****** ****** ****** ****** ****** ****** ******
  11  ****** ****** ****** ****** ****** ****** ****** ****** ****** ******
      ****** ****** ****** ****** ****** ****** ****** ****** ****** ******
      ****** ****** ****** ****** ****** ****** ****** ****** ****** ******
  12  ****** ****** ****** ****** ****** ****** ****** ****** ****** ******
      ****** ****** ****** ****** ****** ****** ****** ****** ****** ******
      ****** ****** ****** ****** ****** ****** ****** ****** ****** ******
  13  ****** ****** ****** ****** ****** ****** ****** ****** ****** ******
      ****** ****** ****** ****** ****** ****** ****** ****** ****** ******
      ****** ****** ****** ****** ****** ****** ****** ****** ****** ******
  14  ****** ****** ****** ****** ****** ****** ****** ****** ****** ******
      ****** ****** ****** ****** ****** ****** ****** ****** ****** ******
      ****** ****** ****** ****** ****** ****** ****** ****** ****** ******
  15  ****** ****** ****** ****** ****** ****** ****** ****** ****** ******
      ****** ****** ****** ****** ****** ****** ****** ****** ****** ******
      ****** ****** ****** ****** ****** ****** ****** ****** ****** ******
  16  ****** ****** ****** ****** ****** ****** ****** ****** ****** ******
      ****** ****** ****** ****** ****** ****** ****** ****** ****** ******
      ****** ****** ****** ****** ****** ****** ****** ****** ****** ******
  17  ****** ****** ****** ****** ****** ****** ****** ****** ****** ******
      ****** ****** ****** ****** ****** ****** ****** ****** ****** ******
      ****** ****** ****** ****** ****** ****** ****** ****** ****** ******
  18  ****** ****** ****** ****** ****** ****** ****** ****** ****** ******
      ****** ****** ****** ****** ****** ****** ****** ****** ****** ******
      ****** ****** ****** ****** ****** ****** ****** ****** ****** ******
  19  ****** ****** ****** ****** ****** ****** ****** ****** ****** ******
      ****** ****** ****** ****** ****** ****** ****** ****** ****** ******
      ****** ****** ****** ****** ****** ****** ****** ****** ****** ******
  20  ****** ****** ****** ****** ****** ****** ****** ****** ****** ******
      ****** ****** ****** ****** ****** ****** ****** ****** ****** ******
      ****** ****** ****** ****** ****** ****** ****** ****** ****** ******
  21  ****** ****** ****** ****** ****** ****** ****** ****** ****** ******
      ****** ****** ****** ****** ****** ****** ****** ****** ****** ******
      ****** ****** ****** ****** ****** ****** ****** ****** ****** ******
  22  ****** ****** ****** ****** ****** ****** ****** ****** ****** ******
      ****** ****** ****** ****** ****** ****** ****** ****** ****** ******
      ****** ****** ****** ****** ****** ****** ****** ****** ****** ******
  23  ****** ****** ****** ****** ****** ****** ****** ****** ****** ******
      ****** ****** ****** ****** ****** ****** ****** ****** ****** ******
      ****** ****** ****** ****** ****** ****** ****** ****** ****** ******
  24  ****** ****** ****** ****** ****** ****** ****** ****** ****** ******
      ****** ****** ****** ****** ****** ****** ****** ****** ****** ******
      ****** ****** ****** ****** ****** ****** ****** ****** ****** ******
  25  ****** ****** ****** ****** ****** ****** ****** ****** ****** ******
      ****** ****** ****** ****** ****** ****** ****** ****** ****** ******
      ****** ****** ****** ****** ****** ****** ****** ****** ****** ******

 HEAD WILL BE SAVED ON UNIT   51 AT END OF TIME STEP    1, STRESS PERIOD    4
1
  VOLUMETRIC BUDGET FOR ENTIRE MODEL AT END OF TIME STEP    1, STRESS PERIOD   4
  ------------------------------------------------------------------------------

     CUMULATIVE VOLUMES      L**3       RATES FOR THIS TIME STEP      L**3/T
     ------------------                 ------------------------

           IN:                                      IN:
           ---                                      ---
             STORAGE =    26113450.6600               STORAGE =        2886.9054
       CONSTANT HEAD =    72647939.8597         CONSTANT HEAD =      220085.5779
               WELLS =           0.0000                 WELLS =           0.0000
            RECHARGE =     8804400.0000              RECHARGE =       27600.0000
      STREAM LEAKAGE =     2624457.3101        STREAM LEAKAGE =        8435.7291

            TOTAL IN =   110190247.8299              TOTAL IN =      259008.2124

          OUT:                                     OUT:
          ----                                     ----
             STORAGE =       30625.0659               STORAGE =         336.5392
       CONSTANT HEAD =           0.0000         CONSTANT HEAD =           0.0000
               WELLS =    54750000.0000                 WELLS =      150000.0000
            RECHARGE =           0.0000              RECHARGE =           0.0000
      STREAM LEAKAGE =    55409623.5347        STREAM LEAKAGE =      108671.6723

           TOTAL OUT =   110190248.6006             TOTAL OUT =      259008.2115

            IN - OUT =          -0.7707              IN - OUT =       9.6646E-04

 PERCENT DISCREPANCY =          -0.00     PERCENT DISCREPANCY =           0.00






         TIME SUMMARY AT END OF TIME STEP    1 IN STRESS PERIOD    4
                    SECONDS     MINUTES      HOURS       DAYS        YEARS
                    -----------------------------------------------------------
   TIME STEP LENGTH 7.86240E+06 1.31040E+05  2184.0      91.000     0.24914    
 STRESS PERIOD TIME 7.86240E+06 1.31040E+05  2184.0      91.000     0.24914    
         TOTAL TIME 3.15360E+07 5.25600E+05  8760.0      365.00     0.99932    
1
1
                            STRESS PERIOD NO.    5, LENGTH =   92.00000    
                            -----------------------------------------------

                              NUMBER OF TIME STEPS =     1

                               MULTIPLIER FOR DELT =     1.500

                            INITIAL TIME STEP SIZE =   92.00000    

 WELL NO.  LAYER   ROW   COL   STRESS RATE         
 --------------------------------------------------
      1      1      5     22     -0.5000E+05
      2      1      3     18     -0.5000E+05
      3      1      3     21     -0.5000E+05

      3 WELLS

                 RECHARGE =  5.000000E-04

 REUSING STREAM SEGMENT DATA FROM LAST STRESS PERIOD
 
 SOLVING FOR HEAD 


     6 CALLS TO PCG ROUTINE FOR TIME STEP   1 IN STRESS PERIOD    5
    23 TOTAL ITERATIONS

 OUTPUT CONTROL FOR STRESS PERIOD    5   TIME STEP    1
    SAVE BUDGET
    SAVE HEAD FOR ALL LAYERS
    PRINT HEAD FOR ALL LAYERS
 UBDSV2 SAVING "STREAMFLOW OUT  " ON UNIT  50 AT TIME STEP  1, STRESS PERIOD   5



 STREAM LISTING     PERIOD      5   STEP        1

 LAYER ROW COL. STREAM  RCH.  FLOW INTO     FLOW TO   FLOW OUT OF   OVRLND.     DIRECT     STREAM       STREAM     STREAM     STREAM   STREAMBED  STREAMBED
                SEG.NO.  NO.  STRM. RCH.    AQUIFER    STRM. RCH.    RUNOFF     PRECIP       ET          HEAD       DEPTH      WIDTH   CONDCTNC.   GRADIENT

   1   13    1     1     1    1.0000E+05 -2.6668E+03   1.0267E+05  0.000E+00  0.000E+00  0.000E+00  4.84072E+01  1.458E-01  2.000E+01  2.000E+04 -1.333E-01
   1   13    2     1     2    1.0267E+05 -4.4752E+03   1.0714E+05  0.000E+00  0.000E+00  0.000E+00  4.79330E+01  1.489E-01  2.000E+01  2.000E+04 -2.238E-01
   1   14    3     1     3    1.0714E+05 -3.5795E+03   1.1072E+05  0.000E+00  0.000E+00  0.000E+00  4.74591E+01  1.523E-01  2.000E+01  2.000E+04 -1.790E-01
   1   15    4     1     4    1.1072E+05 -3.5141E+03   1.1424E+05  0.000E+00  0.000E+00  0.000E+00  4.69848E+01  1.552E-01  2.000E+01  2.000E+04 -1.757E-01
   1   16    5     1     5    1.1424E+05 -3.9357E+03   1.1817E+05  0.000E+00  0.000E+00  0.000E+00  4.65106E+01  1.583E-01  2.000E+01  2.000E+04 -1.968E-01
   1   16    6     1     6    1.1817E+05 -3.0678E+03   1.2124E+05  0.000E+00  0.000E+00  0.000E+00  4.60361E+01  1.611E-01  2.000E+01  2.000E+04 -1.534E-01
   1   16    7     1     7    1.2124E+05 -3.1109E+03   1.2435E+05  0.000E+00  0.000E+00  0.000E+00  4.55613E+01  1.636E-01  2.000E+01  2.000E+04 -1.555E-01
   1   16    8     1     8    1.2435E+05 -3.1313E+03   1.2748E+05  0.000E+00  0.000E+00  0.000E+00  4.50866E+01  1.661E-01  2.000E+01  2.000E+04 -1.566E-01
   1   16    9     1     9    1.2748E+05 -3.1175E+03   1.3060E+05  0.000E+00  0.000E+00  0.000E+00  4.46117E+01  1.686E-01  2.000E+01  2.000E+04 -1.559E-01
   1   16   10     1    10    1.3060E+05 -3.0784E+03   1.3368E+05  0.000E+00  0.000E+00  0.000E+00  4.41369E+01  1.710E-01  2.000E+01  2.000E+04 -1.539E-01
   1   16   11     1    11    1.3368E+05 -3.0514E+03   1.3673E+05  0.000E+00  0.000E+00  0.000E+00  4.36620E+01  1.733E-01  2.000E+01  2.000E+04 -1.526E-01
   1   16   12     1    12    1.3673E+05 -4.1618E+03   1.4089E+05  0.000E+00  0.000E+00  0.000E+00  4.31875E+01  1.761E-01  2.000E+01  2.000E+04 -2.081E-01
   1   15   13     1    13    1.4089E+05 -3.5840E+03   1.4447E+05  0.000E+00  0.000E+00  0.000E+00  4.27131E+01  1.790E-01  2.000E+01  2.000E+04 -1.792E-01
   1   14   14     1    14    1.4447E+05 -3.3611E+03   1.4784E+05  0.000E+00  0.000E+00  0.000E+00  4.22385E+01  1.816E-01  2.000E+01  2.000E+04 -1.681E-01
   1   13   15     1    15    1.4784E+05 -3.1437E+03   1.5098E+05  0.000E+00  0.000E+00  0.000E+00  4.17636E+01  1.841E-01  2.000E+01  2.000E+04 -1.572E-01
   1   12   16     1    16    1.5098E+05 -2.8909E+03   1.5387E+05  0.000E+00  0.000E+00  0.000E+00  4.12885E+01  1.863E-01  2.000E+01  2.000E+04 -1.445E-01
   1   12   17     1    17    1.5387E+05 -1.5276E+03   1.5540E+05  0.000E+00  0.000E+00  0.000E+00  4.08129E+01  1.879E-01  2.000E+01  2.000E+04 -7.638E-02
   1   12   18     1    18    1.5540E+05 -1.1154E+03   1.5651E+05  0.000E+00  0.000E+00  0.000E+00  4.03366E+01  1.889E-01  2.000E+01  2.000E+04 -5.577E-02
   1   12   19     1    19    1.5651E+05 -6.8111E+02   1.5719E+05  0.000E+00  0.000E+00  0.000E+00  3.98600E+01  1.895E-01  2.000E+01  2.000E+04 -3.406E-02
   1   13   20     1    20    1.5719E+05 -1.1980E+03   1.5839E+05  0.000E+00  0.000E+00  0.000E+00  3.93834E+01  1.902E-01  2.000E+01  2.000E+04 -5.990E-02
   1   14   21     1    21    1.5839E+05 -1.7571E+03   1.6015E+05  0.000E+00  0.000E+00  0.000E+00  3.89072E+01  1.913E-01  2.000E+01  2.000E+04 -8.785E-02
   1   14   22     1    22    1.6015E+05  5.3769E+03   1.5477E+05  0.000E+00  0.000E+00  0.000E+00  3.84286E+01  1.899E-01  2.000E+01  2.000E+04  2.688E-01
   1    9   30     2     1    5.0000E+04 -1.6598E+03   5.1660E+04  0.000E+00  0.000E+00  0.000E+00  4.02420E+01  1.170E-01  2.000E+01  2.000E+04 -8.299E-02
   1    9   29     2     2    5.1660E+04 -1.8128E+03   5.3473E+04  0.000E+00  0.000E+00  0.000E+00  3.99944E+01  1.194E-01  2.000E+01  2.000E+04 -9.064E-02
   1    9   28     2     3    5.3473E+04 -1.7387E+03   5.5211E+04  0.000E+00  0.000E+00  0.000E+00  3.97468E+01  1.218E-01  2.000E+01  2.000E+04 -8.694E-02
   1    9   27     2     4    5.5211E+04 -1.8851E+03   5.7096E+04  0.000E+00  0.000E+00  0.000E+00  3.94992E+01  1.242E-01  2.000E+01  2.000E+04 -9.425E-02
   1   10   26     2     5    5.7096E+04  1.7976E+01   5.7078E+04  0.000E+00  0.000E+00  0.000E+00  3.92505E+01  1.255E-01  2.000E+01  2.000E+04  8.988E-04
   1   11   25     2     6    5.7078E+04  6.1383E+02   5.6465E+04  0.000E+00  0.000E+00  0.000E+00  3.90000E+01  1.250E-01  2.000E+01  2.000E+04  3.069E-02
   1   12   24     2     7    5.6465E+04  7.1866E+02   5.5746E+04  0.000E+00  0.000E+00  0.000E+00  3.87492E+01  1.242E-01  2.000E+01  2.000E+04  3.593E-02
   1   13   23     2     8    5.5746E+04  5.6046E+02   5.5185E+04  0.000E+00  0.000E+00  0.000E+00  3.84983E+01  1.233E-01  2.000E+01  2.000E+04  2.802E-02
   1   14   22     2     9    5.5185E+04  1.7406E+03   5.3445E+04  0.000E+00  0.000E+00  0.000E+00  3.82468E+01  1.218E-01  2.000E+01  2.000E+04  8.703E-02
   1   14   22     3     1    2.0822E+05 -8.3114E+03   2.1653E+05  0.000E+00  0.000E+00  0.000E+00  3.77442E+01  1.886E-01  2.000E+01  2.000E+04 -4.156E-01
   1   15   23     3     2    2.1653E+05 -3.0322E+03   2.1956E+05  0.000E+00  0.000E+00  0.000E+00  3.68583E+01  1.916E-01  2.000E+01  2.000E+04 -1.516E-01
   1   15   24     3     3    2.1956E+05 -2.0617E+03   2.2162E+05  0.000E+00  0.000E+00  0.000E+00  3.59707E+01  1.930E-01  2.000E+01  2.000E+04 -1.031E-01
   1   15   25     3     4    2.2162E+05 -1.9249E+03   2.2355E+05  0.000E+00  0.000E+00  0.000E+00  3.50829E+01  1.940E-01  2.000E+01  2.000E+04 -9.625E-02
   1   15   26     3     5    2.2355E+05 -2.2461E+03   2.2579E+05  0.000E+00  0.000E+00  0.000E+00  3.41951E+01  1.951E-01  2.000E+01  2.000E+04 -1.123E-01
   1   16   27     3     6    2.2579E+05 -3.2162E+03   2.2901E+05  0.000E+00  0.000E+00  0.000E+00  3.33076E+01  1.965E-01  2.000E+01  2.000E+04 -1.608E-01
   1   17   28     3     7    2.2901E+05 -4.0461E+03   2.3306E+05  0.000E+00  0.000E+00  0.000E+00  3.24206E+01  1.984E-01  2.000E+01  2.000E+04 -2.023E-01
   1   18   29     3     8    2.3306E+05 -5.7365E+03   2.3879E+05  0.000E+00  0.000E+00  0.000E+00  3.15342E+01  2.009E-01  2.000E+01  2.000E+04 -2.868E-01
   1   18   30     3     9    2.3879E+05 -4.7716E+03   2.4356E+05  0.000E+00  0.000E+00  0.000E+00  3.06480E+01  2.036E-01  2.000E+01  2.000E+04 -2.386E-01



1
              HEAD IN LAYER   1 AT END OF TIME STEP   1 IN STRESS PERIOD    5
  ---------------------------------------------------------------------------

          1      2      3      4      5      6      7      8      9     10
         11     12     13     14     15     16     17     18     19     20
         21     22     23     24     25     26     27     28     29     30
 .........................................................................
   1  ****** ****** ****** ****** ****** ****** ****** ****** ****** ******
      ****** ****** ****** ****** ****** ****** ****** ****** ****** ******
      ****** ****** ****** ****** ****** ****** ****** ****** ****** ******
   2  ****** ****** ****** ****** ****** ****** ****** ****** ****** ******
      ****** ****** ****** ****** ****** ****** ****** ****** ****** ******
      ****** ****** ****** ****** ****** ****** ****** ****** ****** ******
   3  ****** ****** ****** ****** ****** ****** ****** ****** ****** ******
      ****** ****** ****** ****** ****** ****** ****** ****** ****** ******
      ****** ****** ****** ****** ****** ****** ****** ****** ****** ******
   4  ****** ****** ****** ****** ****** ****** ****** ****** ****** ******
      ****** ****** ****** ****** ****** ****** ****** ****** ****** ******
      ****** ****** ****** ****** ****** ****** ****** ****** ****** ******
   5  ****** ****** ****** ****** ****** ****** ****** ****** ****** ******
      ****** ****** ****** ****** ****** ****** ****** ****** ****** ******
      ****** ****** ****** ****** ****** ****** ****** ****** ****** ******
   6  ****** ****** ****** ****** ****** ****** ****** ****** ****** ******
      ****** ****** ****** ****** ****** ****** ****** ****** ****** ******
      ****** ****** ****** ****** ****** ****** ****** ****** ****** ******
   7  ****** ****** ****** ****** ****** ****** ****** ****** ****** ******
      ****** ****** ****** ****** ****** ****** ****** ****** ****** ******
      ****** ****** ****** ****** ****** ****** ****** ****** ****** ******
   8  ****** ****** ****** ****** ****** ****** ****** ****** ****** ******
      ****** ****** ****** ****** ****** ****** ****** ****** ****** ******
      ****** ****** ****** ****** ****** ****** ****** ****** ****** ******
   9  ****** ****** ****** ****** ****** ****** ****** ****** ****** ******
      ****** ****** ****** ****** ****** ****** ****** ****** ****** ******
      ****** ****** ****** ****** ****** ****** ****** ****** ****** ******
  10  ****** ****** ****** ****** ****** ****** ****** ****** ****** ******
      ****** ****** ****** ****** ****** ****** ****** ****** ****** ******
      ****** ****** ****** ****** ****** ****** ****** ****** ****** ******
  11  ****** ****** ****** ****** ****** ****** ****** ****** ****** ******
      ****** ****** ****** ****** ****** ****** ****** ****** ****** ******
      ****** ****** ****** ****** ****** ****** ****** ****** ****** ******
  12  ****** ****** ****** ****** ****** ****** ****** ****** ****** ******
      ****** ****** ****** ****** ****** ****** ****** ****** ****** ******
      ****** ****** ****** ****** ****** ****** ****** ****** ****** ******
  13  ****** ****** ****** ****** ****** ****** ****** ****** ****** ******
      ****** ****** ****** ****** ****** ****** ****** ****** ****** ******
      ****** ****** ****** ****** ****** ****** ****** ****** ****** ******
  14  ****** ****** ****** ****** ****** ****** ****** ****** ****** ******
      ****** ****** ****** ****** ****** ****** ****** ****** ****** ******
      ****** ****** ****** ****** ****** ****** ****** ****** ****** ******
  15  ****** ****** ****** ****** ****** ****** ****** ****** ****** ******
      ****** ****** ****** ****** ****** ****** ****** ****** ****** ******
      ****** ****** ****** ****** ****** ****** ****** ****** ****** ******
  16  ****** ****** ****** ****** ****** ****** ****** ****** ****** ******
      ****** ****** ****** ****** ****** ****** ****** ****** ****** ******
      ****** ****** ****** ****** ****** ****** ****** ****** ****** ******
  17  ****** ****** ****** ****** ****** ****** ****** ****** ****** ******
      ****** ****** ****** ****** ****** ****** ****** ****** ****** ******
      ****** ****** ****** ****** ****** ****** ****** ****** ****** ******
  18  ****** ****** ****** ****** ****** ****** ****** ****** ****** ******
      ****** ****** ****** ****** ****** ****** ****** ****** ****** ******
      ****** ****** ****** ****** ****** ****** ****** ****** ****** ******
  19  ****** ****** ****** ****** ****** ****** ****** ****** ****** ******
      ****** ****** ****** ****** ****** ****** ****** ****** ****** ******
      ****** ****** ****** ****** ****** ****** ****** ****** ****** ******
  20  ****** ****** ****** ****** ****** ****** ****** ****** ****** ******
      ****** ****** ****** ****** ****** ****** ****** ****** ****** ******
      ****** ****** ****** ****** ****** ****** ****** ****** ****** ******
  21  ****** ****** ****** ****** ****** ****** ****** ****** ****** ******
      ****** ****** ****** ****** ****** ****** ****** ****** ****** ******
      ****** ****** ****** ****** ****** ****** ****** ****** ****** ******
  22  ****** ****** ****** ****** ****** ****** ****** ****** ****** ******
      ****** ****** ****** ****** ****** ****** ****** ****** ****** ******
      ****** ****** ****** ****** ****** ****** ****** ****** ****** ******
  23  ****** ****** ****** ****** ****** ****** ****** ****** ****** ******
      ****** ****** ****** ****** ****** ****** ****** ****** ****** ******
      ****** ****** ****** ****** ****** ****** ****** ****** ****** ******
  24  ****** ****** ****** ****** ****** ****** ****** ****** ****** ******
      ****** ****** ****** ****** ****** ****** ****** ****** ****** ******
      ****** ****** ****** ****** ****** ****** ****** ****** ****** ******
  25  ****** ****** ****** ****** ****** ****** ****** ****** ****** ******
      ****** ****** ****** ****** ****** ****** ****** ****** ****** ******
      ****** ****** ****** ****** ****** ****** ****** ****** ****** ******

 HEAD WILL BE SAVED ON UNIT   51 AT END OF TIME STEP    1, STRESS PERIOD    5
1
  VOLUMETRIC BUDGET FOR ENTIRE MODEL AT END OF TIME STEP    1, STRESS PERIOD   5
  ------------------------------------------------------------------------------

     CUMULATIVE VOLUMES      L**3       RATES FOR THIS TIME STEP      L**3/T
     ------------------                 ------------------------

           IN:                                      IN:
           ---                                      ---
             STORAGE =    26570585.7258               STORAGE =        4968.8594
       CONSTANT HEAD =    93329086.3457         CONSTANT HEAD =      224795.0705
               WELLS =           0.0000                 WELLS =           0.0000
            RECHARGE =    10074000.0000              RECHARGE =       13800.0000
      STREAM LEAKAGE =     3455076.1557        STREAM LEAKAGE =        9028.4657

            TOTAL IN =   133428748.2272              TOTAL IN =      252592.3956

          OUT:                                     OUT:
          ----                                     ----
             STORAGE =       30625.0659               STORAGE =           0.0000
       CONSTANT HEAD =           0.0000         CONSTANT HEAD =           0.0000
               WELLS =    68550000.0000                 WELLS =      150000.0000
            RECHARGE =           0.0000              RECHARGE =           0.0000
      STREAM LEAKAGE =    64848124.0093        STREAM LEAKAGE =      102592.3965

           TOTAL OUT =   133428749.0752             TOTAL OUT =      252592.3965

            IN - OUT =          -0.8480              IN - OUT =      -8.3950E-04

 PERCENT DISCREPANCY =          -0.00     PERCENT DISCREPANCY =          -0.00






         TIME SUMMARY AT END OF TIME STEP    1 IN STRESS PERIOD    5
                    SECONDS     MINUTES      HOURS       DAYS        YEARS
                    -----------------------------------------------------------
   TIME STEP LENGTH 7.94880E+06 1.32480E+05  2208.0      92.000     0.25188    
 STRESS PERIOD TIME 7.94880E+06 1.32480E+05  2208.0      92.000     0.25188    
         TOTAL TIME 3.94848E+07 6.58080E+05  10968.      457.00      1.2512    
1
1
                            STRESS PERIOD NO.    6, LENGTH =   91.00000    
                            -----------------------------------------------

                              NUMBER OF TIME STEPS =     1

                               MULTIPLIER FOR DELT =     1.500

                            INITIAL TIME STEP SIZE =   91.00000    

 WELL NO.  LAYER   ROW   COL   STRESS RATE         
 --------------------------------------------------
      1      1      5     22     -0.5000E+05
      2      1      3     18     -0.5000E+05
      3      1      3     21     -0.5000E+05

      3 WELLS

                 RECHARGE =  2.000000E-03

 REUSING STREAM SEGMENT DATA FROM LAST STRESS PERIOD
 
 SOLVING FOR HEAD 


     7 CALLS TO PCG ROUTINE FOR TIME STEP   1 IN STRESS PERIOD    6
    26 TOTAL ITERATIONS

 OUTPUT CONTROL FOR STRESS PERIOD    6   TIME STEP    1
    SAVE BUDGET
    SAVE HEAD FOR ALL LAYERS
    PRINT HEAD FOR ALL LAYERS
 UBDSV2 SAVING "STREAMFLOW OUT  " ON UNIT  50 AT TIME STEP  1, STRESS PERIOD   6



 STREAM LISTING     PERIOD      6   STEP        1

 LAYER ROW COL. STREAM  RCH.  FLOW INTO     FLOW TO   FLOW OUT OF   OVRLND.     DIRECT     STREAM       STREAM     STREAM     STREAM   STREAMBED  STREAMBED
                SEG.NO.  NO.  STRM. RCH.    AQUIFER    STRM. RCH.    RUNOFF     PRECIP       ET          HEAD       DEPTH      WIDTH   CONDCTNC.   GRADIENT

   1   13    1     1     1    1.0000E+05 -3.0602E+03   1.0306E+05  0.000E+00  0.000E+00  0.000E+00  4.84073E+01  1.460E-01  2.000E+01  2.000E+04 -1.530E-01
   1   13    2     1     2    1.0306E+05 -4.9902E+03   1.0805E+05  0.000E+00  0.000E+00  0.000E+00  4.79335E+01  1.494E-01  2.000E+01  2.000E+04 -2.495E-01
   1   14    3     1     3    1.0805E+05 -4.1118E+03   1.1216E+05  0.000E+00  0.000E+00  0.000E+00  4.74601E+01  1.533E-01  2.000E+01  2.000E+04 -2.056E-01
   1   15    4     1     4    1.1216E+05 -4.0458E+03   1.1621E+05  0.000E+00  0.000E+00  0.000E+00  4.69862E+01  1.566E-01  2.000E+01  2.000E+04 -2.023E-01
   1   16    5     1     5    1.1621E+05 -4.4325E+03   1.2064E+05  0.000E+00  0.000E+00  0.000E+00  4.65124E+01  1.601E-01  2.000E+01  2.000E+04 -2.216E-01
   1   16    6     1     6    1.2064E+05 -3.4567E+03   1.2410E+05  0.000E+00  0.000E+00  0.000E+00  4.60383E+01  1.633E-01  2.000E+01  2.000E+04 -1.728E-01
   1   16    7     1     7    1.2410E+05 -3.5047E+03   1.2760E+05  0.000E+00  0.000E+00  0.000E+00  4.55638E+01  1.660E-01  2.000E+01  2.000E+04 -1.752E-01
   1   16    8     1     8    1.2760E+05 -3.5280E+03   1.3113E+05  0.000E+00  0.000E+00  0.000E+00  4.50893E+01  1.688E-01  2.000E+01  2.000E+04 -1.764E-01
   1   16    9     1     9    1.3113E+05 -3.5140E+03   1.3464E+05  0.000E+00  0.000E+00  0.000E+00  4.46147E+01  1.716E-01  2.000E+01  2.000E+04 -1.757E-01
   1   16   10     1    10    1.3464E+05 -3.4716E+03   1.3812E+05  0.000E+00  0.000E+00  0.000E+00  4.41402E+01  1.743E-01  2.000E+01  2.000E+04 -1.736E-01
   1   16   11     1    11    1.3812E+05 -3.4403E+03   1.4156E+05  0.000E+00  0.000E+00  0.000E+00  4.36655E+01  1.769E-01  2.000E+01  2.000E+04 -1.720E-01
   1   16   12     1    12    1.4156E+05 -4.6660E+03   1.4622E+05  0.000E+00  0.000E+00  0.000E+00  4.31913E+01  1.799E-01  2.000E+01  2.000E+04 -2.333E-01
   1   15   13     1    13    1.4622E+05 -4.1259E+03   1.5035E+05  0.000E+00  0.000E+00  0.000E+00  4.27173E+01  1.832E-01  2.000E+01  2.000E+04 -2.063E-01
   1   14   14     1    14    1.5035E+05 -3.9096E+03   1.5426E+05  0.000E+00  0.000E+00  0.000E+00  4.22430E+01  1.862E-01  2.000E+01  2.000E+04 -1.955E-01
   1   13   15     1    15    1.5426E+05 -3.6794E+03   1.5794E+05  0.000E+00  0.000E+00  0.000E+00  4.17685E+01  1.890E-01  2.000E+01  2.000E+04 -1.840E-01
   1   12   16     1    16    1.5794E+05 -3.3946E+03   1.6133E+05  0.000E+00  0.000E+00  0.000E+00  4.12938E+01  1.915E-01  2.000E+01  2.000E+04 -1.697E-01
   1   12   17     1    17    1.6133E+05 -1.9076E+03   1.6324E+05  0.000E+00  0.000E+00  0.000E+00  4.08184E+01  1.934E-01  2.000E+01  2.000E+04 -9.538E-02
   1   12   18     1    18    1.6324E+05 -1.4898E+03   1.6473E+05  0.000E+00  0.000E+00  0.000E+00  4.03424E+01  1.946E-01  2.000E+01  2.000E+04 -7.449E-02
   1   12   19     1    19    1.6473E+05 -1.1358E+03   1.6586E+05  0.000E+00  0.000E+00  0.000E+00  3.98660E+01  1.956E-01  2.000E+01  2.000E+04 -5.679E-02
   1   13   20     1    20    1.6586E+05 -1.6512E+03   1.6752E+05  0.000E+00  0.000E+00  0.000E+00  3.93897E+01  1.965E-01  2.000E+01  2.000E+04 -8.256E-02
   1   14   21     1    21    1.6752E+05 -2.1791E+03   1.6969E+05  0.000E+00  0.000E+00  0.000E+00  3.89138E+01  1.979E-01  2.000E+01  2.000E+04 -1.090E-01
   1   14   22     1    22    1.6969E+05  5.2937E+03   1.6440E+05  0.000E+00  0.000E+00  0.000E+00  3.84354E+01  1.968E-01  2.000E+01  2.000E+04  2.647E-01
   1    9   30     2     1    5.0000E+04 -2.0125E+03   5.2012E+04  0.000E+00  0.000E+00  0.000E+00  4.02423E+01  1.173E-01  2.000E+01  2.000E+04 -1.006E-01
   1    9   29     2     2    5.2012E+04 -2.1622E+03   5.4175E+04  0.000E+00  0.000E+00  0.000E+00  3.99951E+01  1.201E-01  2.000E+01  2.000E+04 -1.081E-01
   1    9   28     2     3    5.4175E+04 -2.0850E+03   5.6260E+04  0.000E+00  0.000E+00  0.000E+00  3.97480E+01  1.230E-01  2.000E+01  2.000E+04 -1.042E-01
   1    9   27     2     4    5.6260E+04 -2.3421E+03   5.8602E+04  0.000E+00  0.000E+00  0.000E+00  3.95009E+01  1.259E-01  2.000E+01  2.000E+04 -1.171E-01
   1   10   26     2     5    5.8602E+04 -4.5719E+02   5.9059E+04  0.000E+00  0.000E+00  0.000E+00  3.92527E+01  1.277E-01  2.000E+01  2.000E+04 -2.286E-02
   1   11   25     2     6    5.9059E+04  1.5902E+02   5.8900E+04  0.000E+00  0.000E+00  0.000E+00  3.90029E+01  1.279E-01  2.000E+01  2.000E+04  7.951E-03
   1   12   24     2     7    5.8900E+04  3.1636E+02   5.8584E+04  0.000E+00  0.000E+00  0.000E+00  3.87526E+01  1.276E-01  2.000E+01  2.000E+04  1.582E-02
   1   13   23     2     8    5.8584E+04  2.4595E+02   5.8338E+04  0.000E+00  0.000E+00  0.000E+00  3.85023E+01  1.273E-01  2.000E+01  2.000E+04  1.230E-02
   1   14   22     2     9    5.8338E+04  1.6058E+03   5.6732E+04  0.000E+00  0.000E+00  0.000E+00  3.82510E+01  1.260E-01  2.000E+01  2.000E+04  8.029E-02
   1   14   22     3     1    2.2113E+05 -8.3954E+03   2.2953E+05  0.000E+00  0.000E+00  0.000E+00  3.77510E+01  1.954E-01  2.000E+01  2.000E+04 -4.198E-01
   1   15   23     3     2    2.2953E+05 -3.4288E+03   2.3296E+05  0.000E+00  0.000E+00  0.000E+00  3.68652E+01  1.985E-01  2.000E+01  2.000E+04 -1.714E-01
   1   15   24     3     3    2.3296E+05 -2.3488E+03   2.3531E+05  0.000E+00  0.000E+00  0.000E+00  3.59778E+01  2.000E-01  2.000E+01  2.000E+04 -1.174E-01
   1   15   25     3     4    2.3531E+05 -2.2128E+03   2.3752E+05  0.000E+00  0.000E+00  0.000E+00  3.50900E+01  2.011E-01  2.000E+01  2.000E+04 -1.106E-01
   1   15   26     3     5    2.3752E+05 -2.6172E+03   2.4014E+05  0.000E+00  0.000E+00  0.000E+00  3.42024E+01  2.024E-01  2.000E+01  2.000E+04 -1.309E-01
   1   16   27     3     6    2.4014E+05 -3.6819E+03   2.4382E+05  0.000E+00  0.000E+00  0.000E+00  3.33151E+01  2.040E-01  2.000E+01  2.000E+04 -1.841E-01
   1   17   28     3     7    2.4382E+05 -4.5216E+03   2.4834E+05  0.000E+00  0.000E+00  0.000E+00  3.24283E+01  2.060E-01  2.000E+01  2.000E+04 -2.261E-01
   1   18   29     3     8    2.4834E+05 -6.1829E+03   2.5452E+05  0.000E+00  0.000E+00  0.000E+00  3.15420E+01  2.087E-01  2.000E+01  2.000E+04 -3.091E-01
   1   18   30     3     9    2.5452E+05 -5.1083E+03   2.5963E+05  0.000E+00  0.000E+00  0.000E+00  3.06560E+01  2.115E-01  2.000E+01  2.000E+04 -2.554E-01



1
              HEAD IN LAYER   1 AT END OF TIME STEP   1 IN STRESS PERIOD    6
  ---------------------------------------------------------------------------

          1      2      3      4      5      6      7      8      9     10
         11     12     13     14     15     16     17     18     19     20
         21     22     23     24     25     26     27     28     29     30
 .........................................................................
   1  ****** ****** ****** ****** ****** ****** ****** ****** ****** ******
      ****** ****** ****** ****** ****** ****** ****** ****** ****** ******
      ****** ****** ****** ****** ****** ****** ****** ****** ****** ******
   2  ****** ****** ****** ****** ****** ****** ****** ****** ****** ******
      ****** ****** ****** ****** ****** ****** ****** ****** ****** ******
      ****** ****** ****** ****** ****** ****** ****** ****** ****** ******
   3  ****** ****** ****** ****** ****** ****** ****** ****** ****** ******
      ****** ****** ****** ****** ****** ****** ****** ****** ****** ******
      ****** ****** ****** ****** ****** ****** ****** ****** ****** ******
   4  ****** ****** ****** ****** ****** ****** ****** ****** ****** ******
      ****** ****** ****** ****** ****** ****** ****** ****** ****** ******
      ****** ****** ****** ****** ****** ****** ****** ****** ****** ******
   5  ****** ****** ****** ****** ****** ****** ****** ****** ****** ******
      ****** ****** ****** ****** ****** ****** ****** ****** ****** ******
      ****** ****** ****** ****** ****** ****** ****** ****** ****** ******
   6  ****** ****** ****** ****** ****** ****** ****** ****** ****** ******
      ****** ****** ****** ****** ****** ****** ****** ****** ****** ******
      ****** ****** ****** ****** ****** ****** ****** ****** ****** ******
   7  ****** ****** ****** ****** ****** ****** ****** ****** ****** ******
      ****** ****** ****** ****** ****** ****** ****** ****** ****** ******
      ****** ****** ****** ****** ****** ****** ****** ****** ****** ******
   8  ****** ****** ****** ****** ****** ****** ****** ****** ****** ******
      ****** ****** ****** ****** ****** ****** ****** ****** ****** ******
      ****** ****** ****** ****** ****** ****** ****** ****** ****** ******
   9  ****** ****** ****** ****** ****** ****** ****** ****** ****** ******
      ****** ****** ****** ****** ****** ****** ****** ****** ****** ******
      ****** ****** ****** ****** ****** ****** ****** ****** ****** ******
  10  ****** ****** ****** ****** ****** ****** ****** ****** ****** ******
      ****** ****** ****** ****** ****** ****** ****** ****** ****** ******
      ****** ****** ****** ****** ****** ****** ****** ****** ****** ******
  11  ****** ****** ****** ****** ****** ****** ****** ****** ****** ******
      ****** ****** ****** ****** ****** ****** ****** ****** ****** ******
      ****** ****** ****** ****** ****** ****** ****** ****** ****** ******
  12  ****** ****** ****** ****** ****** ****** ****** ****** ****** ******
      ****** ****** ****** ****** ****** ****** ****** ****** ****** ******
      ****** ****** ****** ****** ****** ****** ****** ****** ****** ******
  13  ****** ****** ****** ****** ****** ****** ****** ****** ****** ******
      ****** ****** ****** ****** ****** ****** ****** ****** ****** ******
      ****** ****** ****** ****** ****** ****** ****** ****** ****** ******
  14  ****** ****** ****** ****** ****** ****** ****** ****** ****** ******
      ****** ****** ****** ****** ****** ****** ****** ****** ****** ******
      ****** ****** ****** ****** ****** ****** ****** ****** ****** ******
  15  ****** ****** ****** ****** ****** ****** ****** ****** ****** ******
      ****** ****** ****** ****** ****** ****** ****** ****** ****** ******
      ****** ****** ****** ****** ****** ****** ****** ****** ****** ******
  16  ****** ****** ****** ****** ****** ****** ****** ****** ****** ******
      ****** ****** ****** ****** ****** ****** ****** ****** ****** ******
      ****** ****** ****** ****** ****** ****** ****** ****** ****** ******
  17  ****** ****** ****** ****** ****** ****** ****** ****** ****** ******
      ****** ****** ****** ****** ****** ****** ****** ****** ****** ******
      ****** ****** ****** ****** ****** ****** ****** ****** ****** ******
  18  ****** ****** ****** ****** ****** ****** ****** ****** ****** ******
      ****** ****** ****** ****** ****** ****** ****** ****** ****** ******
      ****** ****** ****** ****** ****** ****** ****** ****** ****** ******
  19  ****** ****** ****** ****** ****** ****** ****** ****** ****** ******
      ****** ****** ****** ****** ****** ****** ****** ****** ****** ******
      ****** ****** ****** ****** ****** ****** ****** ****** ****** ******
  20  ****** ****** ****** ****** ****** ****** ****** ****** ****** ******
      ****** ****** ****** ****** ****** ****** ****** ****** ****** ******
      ****** ****** ****** ****** ****** ****** ****** ****** ****** ******
  21  ****** ****** ****** ****** ****** ****** ****** ****** ****** ******
      ****** ****** ****** ****** ****** ****** ****** ****** ****** ******
      ****** ****** ****** ****** ****** ****** ****** ****** ****** ******
  22  ****** ****** ****** ****** ****** ****** ****** ****** ****** ******
      ****** ****** ****** ****** ****** ****** ****** ****** ****** ******
      ****** ****** ****** ****** ****** ****** ****** ****** ****** ******
  23  ****** ****** ****** ****** ****** ****** ****** ****** ****** ******
      ****** ****** ****** ****** ****** ****** ****** ****** ****** ******
      ****** ****** ****** ****** ****** ****** ****** ****** ****** ******
  24  ****** ****** ****** ****** ****** ****** ****** ****** ****** ******
      ****** ****** ****** ****** ****** ****** ****** ****** ****** ******
      ****** ****** ****** ****** ****** ****** ****** ****** ****** ******
  25  ****** ****** ****** ****** ****** ****** ****** ****** ****** ******
      ****** ****** ****** ****** ****** ****** ****** ****** ****** ******
      ****** ****** ****** ****** ****** ****** ****** ****** ****** ******

 HEAD WILL BE SAVED ON UNIT   51 AT END OF TIME STEP    1, STRESS PERIOD    6
1
  VOLUMETRIC BUDGET FOR ENTIRE MODEL AT END OF TIME STEP    1, STRESS PERIOD   6
  ------------------------------------------------------------------------------

     CUMULATIVE VOLUMES      L**3       RATES FOR THIS TIME STEP      L**3/T
     ------------------                 ------------------------

           IN:                                      IN:
           ---                                      ---
             STORAGE =    26570585.7258               STORAGE =           0.0000
       CONSTANT HEAD =   112831509.1575         CONSTANT HEAD =      214312.3386
               WELLS =           0.0000                 WELLS =           0.0000
            RECHARGE =    15097200.0000              RECHARGE =       55200.0000
      STREAM LEAKAGE =     4148572.9922        STREAM LEAKAGE =        7620.8444

            TOTAL IN =   158647867.8755              TOTAL IN =      277133.1829

          OUT:                                     OUT:
          ----                                     ----
             STORAGE =      929860.9147               STORAGE =        9881.7126
       CONSTANT HEAD =           0.0000         CONSTANT HEAD =           0.0000
               WELLS =    82200000.0000                 WELLS =      150000.0000
            RECHARGE =           0.0000              RECHARGE =           0.0000
      STREAM LEAKAGE =    75518007.6543        STREAM LEAKAGE =      117251.4686

           TOTAL OUT =   158647868.5690             TOTAL OUT =      277133.1813

            IN - OUT =          -0.6935              IN - OUT =       1.6969E-03

 PERCENT DISCREPANCY =          -0.00     PERCENT DISCREPANCY =           0.00






         TIME SUMMARY AT END OF TIME STEP    1 IN STRESS PERIOD    6
                    SECONDS     MINUTES      HOURS       DAYS        YEARS
                    -----------------------------------------------------------
   TIME STEP LENGTH 7.86240E+06 1.31040E+05  2184.0      91.000     0.24914    
 STRESS PERIOD TIME 7.86240E+06 1.31040E+05  2184.0      91.000     0.24914    
         TOTAL TIME 4.73472E+07 7.89120E+05  13152.      548.00      1.5003    
1
1
                            STRESS PERIOD NO.    7, LENGTH =   91.00000    
                            -----------------------------------------------

                              NUMBER OF TIME STEPS =     1

                               MULTIPLIER FOR DELT =     1.500

                            INITIAL TIME STEP SIZE =   91.00000    

 WELL NO.  LAYER   ROW   COL   STRESS RATE         
 --------------------------------------------------
      1      1      5     22     -0.1180E+05
      2      1      3     18     -0.5000E+05
      3      1      3     21     -0.5250E+05

      3 WELLS

                 RECHARGE =   0.00000    

 REUSING STREAM SEGMENT DATA FROM LAST STRESS PERIOD
 
 SOLVING FOR HEAD 


     7 CALLS TO PCG ROUTINE FOR TIME STEP   1 IN STRESS PERIOD    7
    26 TOTAL ITERATIONS

 OUTPUT CONTROL FOR STRESS PERIOD    7   TIME STEP    1
    SAVE BUDGET
    SAVE HEAD FOR ALL LAYERS
    PRINT HEAD FOR ALL LAYERS
 UBDSV2 SAVING "STREAMFLOW OUT  " ON UNIT  50 AT TIME STEP  1, STRESS PERIOD   7



 STREAM LISTING     PERIOD      7   STEP        1

 LAYER ROW COL. STREAM  RCH.  FLOW INTO     FLOW TO   FLOW OUT OF   OVRLND.     DIRECT     STREAM       STREAM     STREAM     STREAM   STREAMBED  STREAMBED
                SEG.NO.  NO.  STRM. RCH.    AQUIFER    STRM. RCH.    RUNOFF     PRECIP       ET          HEAD       DEPTH      WIDTH   CONDCTNC.   GRADIENT

   1   13    1     1     1    1.0000E+05 -2.5678E+03   1.0257E+05  0.000E+00  0.000E+00  0.000E+00  4.84071E+01  1.458E-01  2.000E+01  2.000E+04 -1.284E-01
   1   13    2     1     2    1.0257E+05 -4.3458E+03   1.0691E+05  0.000E+00  0.000E+00  0.000E+00  4.79328E+01  1.487E-01  2.000E+01  2.000E+04 -2.173E-01
   1   14    3     1     3    1.0691E+05 -3.4502E+03   1.1036E+05  0.000E+00  0.000E+00  0.000E+00  4.74588E+01  1.520E-01  2.000E+01  2.000E+04 -1.725E-01
   1   15    4     1     4    1.1036E+05 -3.3895E+03   1.1375E+05  0.000E+00  0.000E+00  0.000E+00  4.69844E+01  1.549E-01  2.000E+01  2.000E+04 -1.695E-01
   1   16    5     1     5    1.1375E+05 -3.8273E+03   1.1758E+05  0.000E+00  0.000E+00  0.000E+00  4.65101E+01  1.579E-01  2.000E+01  2.000E+04 -1.914E-01
   1   16    6     1     6    1.1758E+05 -2.9786E+03   1.2056E+05  0.000E+00  0.000E+00  0.000E+00  4.60356E+01  1.606E-01  2.000E+01  2.000E+04 -1.489E-01
   1   16    7     1     7    1.2056E+05 -3.0208E+03   1.2358E+05  0.000E+00  0.000E+00  0.000E+00  4.55608E+01  1.630E-01  2.000E+01  2.000E+04 -1.510E-01
   1   16    8     1     8    1.2358E+05 -3.0416E+03   1.2662E+05  0.000E+00  0.000E+00  0.000E+00  4.50859E+01  1.655E-01  2.000E+01  2.000E+04 -1.521E-01
   1   16    9     1     9    1.2662E+05 -3.0295E+03   1.2965E+05  0.000E+00  0.000E+00  0.000E+00  4.46110E+01  1.679E-01  2.000E+01  2.000E+04 -1.515E-01
   1   16   10     1    10    1.2965E+05 -2.9931E+03   1.3264E+05  0.000E+00  0.000E+00  0.000E+00  4.41361E+01  1.702E-01  2.000E+01  2.000E+04 -1.497E-01
   1   16   11     1    11    1.3264E+05 -2.9692E+03   1.3561E+05  0.000E+00  0.000E+00  0.000E+00  4.36612E+01  1.725E-01  2.000E+01  2.000E+04 -1.485E-01
   1   16   12     1    12    1.3561E+05 -4.0597E+03   1.3967E+05  0.000E+00  0.000E+00  0.000E+00  4.31866E+01  1.752E-01  2.000E+01  2.000E+04 -2.030E-01
   1   15   13     1    13    1.3967E+05 -3.4807E+03   1.4315E+05  0.000E+00  0.000E+00  0.000E+00  4.27122E+01  1.781E-01  2.000E+01  2.000E+04 -1.740E-01
   1   14   14     1    14    1.4315E+05 -3.2791E+03   1.4643E+05  0.000E+00  0.000E+00  0.000E+00  4.22374E+01  1.806E-01  2.000E+01  2.000E+04 -1.640E-01
   1   13   15     1    15    1.4643E+05 -3.1194E+03   1.4955E+05  0.000E+00  0.000E+00  0.000E+00  4.17626E+01  1.830E-01  2.000E+01  2.000E+04 -1.560E-01
   1   12   16     1    16    1.4955E+05 -3.0661E+03   1.5262E+05  0.000E+00  0.000E+00  0.000E+00  4.12876E+01  1.853E-01  2.000E+01  2.000E+04 -1.533E-01
   1   12   17     1    17    1.5262E+05 -1.7380E+03   1.5436E+05  0.000E+00  0.000E+00  0.000E+00  4.08121E+01  1.871E-01  2.000E+01  2.000E+04 -8.690E-02
   1   12   18     1    18    1.5436E+05 -1.4234E+03   1.5578E+05  0.000E+00  0.000E+00  0.000E+00  4.03359E+01  1.882E-01  2.000E+01  2.000E+04 -7.117E-02
   1   12   19     1    19    1.5578E+05 -1.3291E+03   1.5711E+05  0.000E+00  0.000E+00  0.000E+00  3.98597E+01  1.892E-01  2.000E+01  2.000E+04 -6.646E-02
   1   13   20     1    20    1.5711E+05 -1.4892E+03   1.5860E+05  0.000E+00  0.000E+00  0.000E+00  3.93834E+01  1.902E-01  2.000E+01  2.000E+04 -7.446E-02
   1   14   21     1    21    1.5860E+05 -1.7982E+03   1.6040E+05  0.000E+00  0.000E+00  0.000E+00  3.89073E+01  1.914E-01  2.000E+01  2.000E+04 -8.991E-02
   1   14   22     1    22    1.6040E+05  5.3037E+03   1.5509E+05  0.000E+00  0.000E+00  0.000E+00  3.84288E+01  1.902E-01  2.000E+01  2.000E+04  2.652E-01
   1    9   30     2     1    5.0000E+04 -1.8137E+03   5.1814E+04  0.000E+00  0.000E+00  0.000E+00  4.02421E+01  1.171E-01  2.000E+01  2.000E+04 -9.068E-02
   1    9   29     2     2    5.1814E+04 -2.0213E+03   5.3835E+04  0.000E+00  0.000E+00  0.000E+00  3.99947E+01  1.197E-01  2.000E+01  2.000E+04 -1.011E-01
   1    9   28     2     3    5.3835E+04 -2.0854E+03   5.5920E+04  0.000E+00  0.000E+00  0.000E+00  3.97475E+01  1.225E-01  2.000E+01  2.000E+04 -1.043E-01
   1    9   27     2     4    5.5920E+04 -2.9500E+03   5.8870E+04  0.000E+00  0.000E+00  0.000E+00  3.95009E+01  1.259E-01  2.000E+01  2.000E+04 -1.475E-01
   1   10   26     2     5    5.8870E+04 -9.1099E+02   5.9781E+04  0.000E+00  0.000E+00  0.000E+00  3.92534E+01  1.284E-01  2.000E+01  2.000E+04 -4.555E-02
   1   11   25     2     6    5.9781E+04 -1.5923E+02   5.9941E+04  0.000E+00  0.000E+00  0.000E+00  3.90041E+01  1.291E-01  2.000E+01  2.000E+04 -7.961E-03
   1   12   24     2     7    5.9941E+04  1.7148E+02   5.9769E+04  0.000E+00  0.000E+00  0.000E+00  3.87541E+01  1.291E-01  2.000E+01  2.000E+04  8.574E-03
   1   13   23     2     8    5.9769E+04  2.5840E+02   5.9511E+04  0.000E+00  0.000E+00  0.000E+00  3.85038E+01  1.288E-01  2.000E+01  2.000E+04  1.292E-02
   1   14   22     2     9    5.9511E+04  1.7774E+03   5.7733E+04  0.000E+00  0.000E+00  0.000E+00  3.82525E+01  1.275E-01  2.000E+01  2.000E+04  8.887E-02
   1   14   22     3     1    2.1283E+05 -8.3397E+03   2.2117E+05  0.000E+00  0.000E+00  0.000E+00  3.77466E+01  1.911E-01  2.000E+01  2.000E+04 -4.170E-01
   1   15   23     3     2    2.2117E+05 -2.9488E+03   2.2411E+05  0.000E+00  0.000E+00  0.000E+00  3.68607E+01  1.940E-01  2.000E+01  2.000E+04 -1.474E-01
   1   15   24     3     3    2.2411E+05 -1.9965E+03   2.2611E+05  0.000E+00  0.000E+00  0.000E+00  3.59731E+01  1.953E-01  2.000E+01  2.000E+04 -9.983E-02
   1   15   25     3     4    2.2611E+05 -1.8572E+03   2.2797E+05  0.000E+00  0.000E+00  0.000E+00  3.50852E+01  1.963E-01  2.000E+01  2.000E+04 -9.286E-02
   1   15   26     3     5    2.2797E+05 -2.1574E+03   2.3013E+05  0.000E+00  0.000E+00  0.000E+00  3.41974E+01  1.974E-01  2.000E+01  2.000E+04 -1.079E-01
   1   16   27     3     6    2.3013E+05 -3.1058E+03   2.3323E+05  0.000E+00  0.000E+00  0.000E+00  3.33098E+01  1.987E-01  2.000E+01  2.000E+04 -1.553E-01
   1   17   28     3     7    2.3323E+05 -3.9337E+03   2.3716E+05  0.000E+00  0.000E+00  0.000E+00  3.24227E+01  2.005E-01  2.000E+01  2.000E+04 -1.967E-01
   1   18   29     3     8    2.3716E+05 -5.6335E+03   2.4280E+05  0.000E+00  0.000E+00  0.000E+00  3.15363E+01  2.030E-01  2.000E+01  2.000E+04 -2.817E-01
   1   18   30     3     9    2.4280E+05 -4.6902E+03   2.4749E+05  0.000E+00  0.000E+00  0.000E+00  3.06500E+01  2.056E-01  2.000E+01  2.000E+04 -2.345E-01



1
              HEAD IN LAYER   1 AT END OF TIME STEP   1 IN STRESS PERIOD    7
  ---------------------------------------------------------------------------

          1      2      3      4      5      6      7      8      9     10
         11     12     13     14     15     16     17     18     19     20
         21     22     23     24     25     26     27     28     29     30
 .........................................................................
   1  ****** ****** ****** ****** ****** ****** ****** ****** ****** ******
      ****** ****** ****** ****** ****** ****** ****** ****** ****** ******
      ****** ****** ****** ****** ****** ****** ****** ****** ****** ******
   2  ****** ****** ****** ****** ****** ****** ****** ****** ****** ******
      ****** ****** ****** ****** ****** ****** ****** ****** ****** ******
      ****** ****** ****** ****** ****** ****** ****** ****** ****** ******
   3  ****** ****** ****** ****** ****** ****** ****** ****** ****** ******
      ****** ****** ****** ****** ****** ****** ****** ****** ****** ******
      ****** ****** ****** ****** ****** ****** ****** ****** ****** ******
   4  ****** ****** ****** ****** ****** ****** ****** ****** ****** ******
      ****** ****** ****** ****** ****** ****** ****** ****** ****** ******
      ****** ****** ****** ****** ****** ****** ****** ****** ****** ******
   5  ****** ****** ****** ****** ****** ****** ****** ****** ****** ******
      ****** ****** ****** ****** ****** ****** ****** ****** ****** ******
      ****** ****** ****** ****** ****** ****** ****** ****** ****** ******
   6  ****** ****** ****** ****** ****** ****** ****** ****** ****** ******
      ****** ****** ****** ****** ****** ****** ****** ****** ****** ******
      ****** ****** ****** ****** ****** ****** ****** ****** ****** ******
   7  ****** ****** ****** ****** ****** ****** ****** ****** ****** ******
      ****** ****** ****** ****** ****** ****** ****** ****** ****** ******
      ****** ****** ****** ****** ****** ****** ****** ****** ****** ******
   8  ****** ****** ****** ****** ****** ****** ****** ****** ****** ******
      ****** ****** ****** ****** ****** ****** ****** ****** ****** ******
      ****** ****** ****** ****** ****** ****** ****** ****** ****** ******
   9  ****** ****** ****** ****** ****** ****** ****** ****** ****** ******
      ****** ****** ****** ****** ****** ****** ****** ****** ****** ******
      ****** ****** ****** ****** ****** ****** ****** ****** ****** ******
  10  ****** ****** ****** ****** ****** ****** ****** ****** ****** ******
      ****** ****** ****** ****** ****** ****** ****** ****** ****** ******
      ****** ****** ****** ****** ****** ****** ****** ****** ****** ******
  11  ****** ****** ****** ****** ****** ****** ****** ****** ****** ******
      ****** ****** ****** ****** ****** ****** ****** ****** ****** ******
      ****** ****** ****** ****** ****** ****** ****** ****** ****** ******
  12  ****** ****** ****** ****** ****** ****** ****** ****** ****** ******
      ****** ****** ****** ****** ****** ****** ****** ****** ****** ******
      ****** ****** ****** ****** ****** ****** ****** ****** ****** ******
  13  ****** ****** ****** ****** ****** ****** ****** ****** ****** ******
      ****** ****** ****** ****** ****** ****** ****** ****** ****** ******
      ****** ****** ****** ****** ****** ****** ****** ****** ****** ******
  14  ****** ****** ****** ****** ****** ****** ****** ****** ****** ******
      ****** ****** ****** ****** ****** ****** ****** ****** ****** ******
      ****** ****** ****** ****** ****** ****** ****** ****** ****** ******
  15  ****** ****** ****** ****** ****** ****** ****** ****** ****** ******
      ****** ****** ****** ****** ****** ****** ****** ****** ****** ******
      ****** ****** ****** ****** ****** ****** ****** ****** ****** ******
  16  ****** ****** ****** ****** ****** ****** ****** ****** ****** ******
      ****** ****** ****** ****** ****** ****** ****** ****** ****** ******
      ****** ****** ****** ****** ****** ****** ****** ****** ****** ******
  17  ****** ****** ****** ****** ****** ****** ****** ****** ****** ******
      ****** ****** ****** ****** ****** ****** ****** ****** ****** ******
      ****** ****** ****** ****** ****** ****** ****** ****** ****** ******
  18  ****** ****** ****** ****** ****** ****** ****** ****** ****** ******
      ****** ****** ****** ****** ****** ****** ****** ****** ****** ******
      ****** ****** ****** ****** ****** ****** ****** ****** ****** ******
  19  ****** ****** ****** ****** ****** ****** ****** ****** ****** ******
      ****** ****** ****** ****** ****** ****** ****** ****** ****** ******
      ****** ****** ****** ****** ****** ****** ****** ****** ****** ******
  20  ****** ****** ****** ****** ****** ****** ****** ****** ****** ******
      ****** ****** ****** ****** ****** ****** ****** ****** ****** ******
      ****** ****** ****** ****** ****** ****** ****** ****** ****** ******
  21  ****** ****** ****** ****** ****** ****** ****** ****** ****** ******
      ****** ****** ****** ****** ****** ****** ****** ****** ****** ******
      ****** ****** ****** ****** ****** ****** ****** ****** ****** ******
  22  ****** ****** ****** ****** ****** ****** ****** ****** ****** ******
      ****** ****** ****** ****** ****** ****** ****** ****** ****** ******
      ****** ****** ****** ****** ****** ****** ****** ****** ****** ******
  23  ****** ****** ****** ****** ****** ****** ****** ****** ****** ******
      ****** ****** ****** ****** ****** ****** ****** ****** ****** ******
      ****** ****** ****** ****** ****** ****** ****** ****** ****** ******
  24  ****** ****** ****** ****** ****** ****** ****** ****** ****** ******
      ****** ****** ****** ****** ****** ****** ****** ****** ****** ******
      ****** ****** ****** ****** ****** ****** ****** ****** ****** ******
  25  ****** ****** ****** ****** ****** ****** ****** ****** ****** ******
      ****** ****** ****** ****** ****** ****** ****** ****** ****** ******
      ****** ****** ****** ****** ****** ****** ****** ****** ****** ******

 HEAD WILL BE SAVED ON UNIT   51 AT END OF TIME STEP    1, STRESS PERIOD    7
1
  VOLUMETRIC BUDGET FOR ENTIRE MODEL AT END OF TIME STEP    1, STRESS PERIOD   7
  ------------------------------------------------------------------------------

     CUMULATIVE VOLUMES      L**3       RATES FOR THIS TIME STEP      L**3/T
     ------------------                 ------------------------

           IN:                                      IN:
           ---                                      ---
             STORAGE =    27365891.5749               STORAGE =        8739.6247
       CONSTANT HEAD =   132252391.6819         CONSTANT HEAD =      213416.2915
               WELLS =           0.0000                 WELLS =           0.0000
            RECHARGE =    15097200.0000              RECHARGE =           0.0000
      STREAM LEAKAGE =     4832073.9891        STREAM LEAKAGE =        7511.0000

            TOTAL IN =   179547557.2459              TOTAL IN =      229666.9162

          OUT:                                     OUT:
          ----                                     ----
             STORAGE =     1872842.6689               STORAGE =       10362.4369
       CONSTANT HEAD =           0.0000         CONSTANT HEAD =           0.0000
               WELLS =    92601729.0732                 WELLS =      114304.7151
            RECHARGE =           0.0000              RECHARGE =           0.0000
      STREAM LEAKAGE =    85072986.3575        STREAM LEAKAGE =      104999.7660

           TOTAL OUT =   179547558.0996             TOTAL OUT =      229666.9179

            IN - OUT =          -0.8537              IN - OUT =      -1.7602E-03

 PERCENT DISCREPANCY =          -0.00     PERCENT DISCREPANCY =          -0.00






         TIME SUMMARY AT END OF TIME STEP    1 IN STRESS PERIOD    7
                    SECONDS     MINUTES      HOURS       DAYS        YEARS
                    -----------------------------------------------------------
   TIME STEP LENGTH 7.86240E+06 1.31040E+05  2184.0      91.000     0.24914    
 STRESS PERIOD TIME 7.86240E+06 1.31040E+05  2184.0      91.000     0.24914    
         TOTAL TIME 5.52096E+07 9.20160E+05  15336.      639.00      1.7495    
1
1
                            STRESS PERIOD NO.    8, LENGTH =   91.00000    
                            -----------------------------------------------

                              NUMBER OF TIME STEPS =     1

                               MULTIPLIER FOR DELT =     1.500

                            INITIAL TIME STEP SIZE =   91.00000    

 WELL NO.  LAYER   ROW   COL   STRESS RATE         
 --------------------------------------------------
      1      1      5     22     -0.1180E+05
      2      1      3     18     -0.5000E+05
      3      1      3     21     -0.5250E+05

      3 WELLS

                 RECHARGE =  1.000000E-03

 REUSING STREAM SEGMENT DATA FROM LAST STRESS PERIOD
 
 SOLVING FOR HEAD 


     6 CALLS TO PCG ROUTINE FOR TIME STEP   1 IN STRESS PERIOD    8
    23 TOTAL ITERATIONS

 OUTPUT CONTROL FOR STRESS PERIOD    8   TIME STEP    1
    SAVE BUDGET
    SAVE HEAD FOR ALL LAYERS
    PRINT HEAD FOR ALL LAYERS
 UBDSV2 SAVING "STREAMFLOW OUT  " ON UNIT  50 AT TIME STEP  1, STRESS PERIOD   8



 STREAM LISTING     PERIOD      8   STEP        1

 LAYER ROW COL. STREAM  RCH.  FLOW INTO     FLOW TO   FLOW OUT OF   OVRLND.     DIRECT     STREAM       STREAM     STREAM     STREAM   STREAMBED  STREAMBED
                SEG.NO.  NO.  STRM. RCH.    AQUIFER    STRM. RCH.    RUNOFF     PRECIP       ET          HEAD       DEPTH      WIDTH   CONDCTNC.   GRADIENT

   1   13    1     1     1    1.0000E+05 -2.7432E+03   1.0274E+05  0.000E+00  0.000E+00  0.000E+00  4.84072E+01  1.458E-01  2.000E+01  2.000E+04 -1.372E-01
   1   13    2     1     2    1.0274E+05 -4.5692E+03   1.0731E+05  0.000E+00  0.000E+00  0.000E+00  4.79331E+01  1.490E-01  2.000E+01  2.000E+04 -2.285E-01
   1   14    3     1     3    1.0731E+05 -3.6945E+03   1.1101E+05  0.000E+00  0.000E+00  0.000E+00  4.74593E+01  1.525E-01  2.000E+01  2.000E+04 -1.847E-01
   1   15    4     1     4    1.1101E+05 -3.6356E+03   1.1464E+05  0.000E+00  0.000E+00  0.000E+00  4.69851E+01  1.555E-01  2.000E+01  2.000E+04 -1.818E-01
   1   16    5     1     5    1.1464E+05 -4.0518E+03   1.1869E+05  0.000E+00  0.000E+00  0.000E+00  4.65109E+01  1.587E-01  2.000E+01  2.000E+04 -2.026E-01
   1   16    6     1     6    1.1869E+05 -3.1599E+03   1.2185E+05  0.000E+00  0.000E+00  0.000E+00  4.60366E+01  1.616E-01  2.000E+01  2.000E+04 -1.580E-01
   1   16    7     1     7    1.2185E+05 -3.2057E+03   1.2506E+05  0.000E+00  0.000E+00  0.000E+00  4.55619E+01  1.641E-01  2.000E+01  2.000E+04 -1.603E-01
   1   16    8     1     8    1.2506E+05 -3.2295E+03   1.2829E+05  0.000E+00  0.000E+00  0.000E+00  4.50872E+01  1.667E-01  2.000E+01  2.000E+04 -1.615E-01
   1   16    9     1     9    1.2829E+05 -3.2191E+03   1.3151E+05  0.000E+00  0.000E+00  0.000E+00  4.46124E+01  1.692E-01  2.000E+01  2.000E+04 -1.610E-01
   1   16   10     1    10    1.3151E+05 -3.1828E+03   1.3469E+05  0.000E+00  0.000E+00  0.000E+00  4.41376E+01  1.717E-01  2.000E+01  2.000E+04 -1.591E-01
   1   16   11     1    11    1.3469E+05 -3.1572E+03   1.3785E+05  0.000E+00  0.000E+00  0.000E+00  4.36628E+01  1.742E-01  2.000E+01  2.000E+04 -1.579E-01
   1   16   12     1    12    1.3785E+05 -4.2914E+03   1.4214E+05  0.000E+00  0.000E+00  0.000E+00  4.31884E+01  1.770E-01  2.000E+01  2.000E+04 -2.146E-01
   1   15   13     1    13    1.4214E+05 -3.7498E+03   1.4589E+05  0.000E+00  0.000E+00  0.000E+00  4.27141E+01  1.800E-01  2.000E+01  2.000E+04 -1.875E-01
   1   14   14     1    14    1.4589E+05 -3.5725E+03   1.4946E+05  0.000E+00  0.000E+00  0.000E+00  4.22396E+01  1.828E-01  2.000E+01  2.000E+04 -1.786E-01
   1   13   15     1    15    1.4946E+05 -3.4480E+03   1.5291E+05  0.000E+00  0.000E+00  0.000E+00  4.17649E+01  1.854E-01  2.000E+01  2.000E+04 -1.724E-01
   1   12   16     1    16    1.5291E+05 -3.4937E+03   1.5640E+05  0.000E+00  0.000E+00  0.000E+00  4.12902E+01  1.879E-01  2.000E+01  2.000E+04 -1.747E-01
   1   12   17     1    17    1.5640E+05 -2.0952E+03   1.5850E+05  0.000E+00  0.000E+00  0.000E+00  4.08149E+01  1.899E-01  2.000E+01  2.000E+04 -1.048E-01
   1   12   18     1    18    1.5850E+05 -1.8183E+03   1.6032E+05  0.000E+00  0.000E+00  0.000E+00  4.03391E+01  1.914E-01  2.000E+01  2.000E+04 -9.091E-02
   1   12   19     1    19    1.6032E+05 -1.9317E+03   1.6225E+05  0.000E+00  0.000E+00  0.000E+00  3.98632E+01  1.927E-01  2.000E+01  2.000E+04 -9.658E-02
   1   13   20     1    20    1.6225E+05 -1.9124E+03   1.6416E+05  0.000E+00  0.000E+00  0.000E+00  3.93873E+01  1.941E-01  2.000E+01  2.000E+04 -9.562E-02
   1   14   21     1    21    1.6416E+05 -2.0649E+03   1.6623E+05  0.000E+00  0.000E+00  0.000E+00  3.89114E+01  1.955E-01  2.000E+01  2.000E+04 -1.032E-01
   1   14   22     1    22    1.6623E+05  5.2156E+03   1.6101E+05  0.000E+00  0.000E+00  0.000E+00  3.84330E+01  1.944E-01  2.000E+01  2.000E+04  2.608E-01
   1    9   30     2     1    5.0000E+04 -2.1351E+03   5.2135E+04  0.000E+00  0.000E+00  0.000E+00  4.02423E+01  1.173E-01  2.000E+01  2.000E+04 -1.068E-01
   1    9   29     2     2    5.2135E+04 -2.3617E+03   5.4497E+04  0.000E+00  0.000E+00  0.000E+00  3.99954E+01  1.204E-01  2.000E+01  2.000E+04 -1.181E-01
   1    9   28     2     3    5.4497E+04 -2.4755E+03   5.6972E+04  0.000E+00  0.000E+00  0.000E+00  3.97487E+01  1.237E-01  2.000E+01  2.000E+04 -1.238E-01
   1    9   27     2     4    5.6972E+04 -3.6843E+03   6.0657E+04  0.000E+00  0.000E+00  0.000E+00  3.95027E+01  1.277E-01  2.000E+01  2.000E+04 -1.842E-01
   1   10   26     2     5    6.0657E+04 -1.5934E+03   6.2250E+04  0.000E+00  0.000E+00  0.000E+00  3.92561E+01  1.311E-01  2.000E+01  2.000E+04 -7.967E-02
   1   11   25     2     6    6.2250E+04 -7.7908E+02   6.3029E+04  0.000E+00  0.000E+00  0.000E+00  3.90076E+01  1.326E-01  2.000E+01  2.000E+04 -3.895E-02
   1   12   24     2     7    6.3029E+04 -3.4041E+02   6.3369E+04  0.000E+00  0.000E+00  0.000E+00  3.87584E+01  1.334E-01  2.000E+01  2.000E+04 -1.702E-02
   1   13   23     2     8    6.3369E+04 -1.0252E+02   6.3472E+04  0.000E+00  0.000E+00  0.000E+00  3.85086E+01  1.336E-01  2.000E+01  2.000E+04 -5.126E-03
   1   14   22     2     9    6.3472E+04  1.7079E+03   6.1764E+04  0.000E+00  0.000E+00  0.000E+00  3.82576E+01  1.326E-01  2.000E+01  2.000E+04  8.539E-02
   1   14   22     3     1    2.2277E+05 -8.4076E+03   2.3118E+05  0.000E+00  0.000E+00  0.000E+00  3.77518E+01  1.963E-01  2.000E+01  2.000E+04 -4.204E-01
   1   15   23     3     2    2.3118E+05 -3.1354E+03   2.3432E+05  0.000E+00  0.000E+00  0.000E+00  3.68659E+01  1.993E-01  2.000E+01  2.000E+04 -1.568E-01
   1   15   24     3     3    2.3432E+05 -2.1432E+03   2.3646E+05  0.000E+00  0.000E+00  0.000E+00  3.59784E+01  2.006E-01  2.000E+01  2.000E+04 -1.072E-01
   1   15   25     3     4    2.3646E+05 -2.0087E+03   2.3847E+05  0.000E+00  0.000E+00  0.000E+00  3.50906E+01  2.017E-01  2.000E+01  2.000E+04 -1.004E-01
   1   15   26     3     5    2.3847E+05 -2.3558E+03   2.4083E+05  0.000E+00  0.000E+00  0.000E+00  3.42028E+01  2.028E-01  2.000E+01  2.000E+04 -1.178E-01
   1   16   27     3     6    2.4083E+05 -3.3418E+03   2.4417E+05  0.000E+00  0.000E+00  0.000E+00  3.33153E+01  2.042E-01  2.000E+01  2.000E+04 -1.671E-01
   1   17   28     3     7    2.4417E+05 -4.1713E+03   2.4834E+05  0.000E+00  0.000E+00  0.000E+00  3.24283E+01  2.061E-01  2.000E+01  2.000E+04 -2.086E-01
   1   18   29     3     8    2.4834E+05 -5.8500E+03   2.5419E+05  0.000E+00  0.000E+00  0.000E+00  3.15420E+01  2.086E-01  2.000E+01  2.000E+04 -2.925E-01
   1   18   30     3     9    2.5419E+05 -4.8612E+03   2.5905E+05  0.000E+00  0.000E+00  0.000E+00  3.06557E+01  2.113E-01  2.000E+01  2.000E+04 -2.431E-01



1
              HEAD IN LAYER   1 AT END OF TIME STEP   1 IN STRESS PERIOD    8
  ---------------------------------------------------------------------------

          1      2      3      4      5      6      7      8      9     10
         11     12     13     14     15     16     17     18     19     20
         21     22     23     24     25     26     27     28     29     30
 .........................................................................
   1  ****** ****** ****** ****** ****** ****** ****** ****** ****** ******
      ****** ****** ****** ****** ****** ****** ****** ****** ****** ******
      ****** ****** ****** ****** ****** ****** ****** ****** ****** ******
   2  ****** ****** ****** ****** ****** ****** ****** ****** ****** ******
      ****** ****** ****** ****** ****** ****** ****** ****** ****** ******
      ****** ****** ****** ****** ****** ****** ****** ****** ****** ******
   3  ****** ****** ****** ****** ****** ****** ****** ****** ****** ******
      ****** ****** ****** ****** ****** ****** ****** ****** ****** ******
      ****** ****** ****** ****** ****** ****** ****** ****** ****** ******
   4  ****** ****** ****** ****** ****** ****** ****** ****** ****** ******
      ****** ****** ****** ****** ****** ****** ****** ****** ****** ******
      ****** ****** ****** ****** ****** ****** ****** ****** ****** ******
   5  ****** ****** ****** ****** ****** ****** ****** ****** ****** ******
      ****** ****** ****** ****** ****** ****** ****** ****** ****** ******
      ****** ****** ****** ****** ****** ****** ****** ****** ****** ******
   6  ****** ****** ****** ****** ****** ****** ****** ****** ****** ******
      ****** ****** ****** ****** ****** ****** ****** ****** ****** ******
      ****** ****** ****** ****** ****** ****** ****** ****** ****** ******
   7  ****** ****** ****** ****** ****** ****** ****** ****** ****** ******
      ****** ****** ****** ****** ****** ****** ****** ****** ****** ******
      ****** ****** ****** ****** ****** ****** ****** ****** ****** ******
   8  ****** ****** ****** ****** ****** ****** ****** ****** ****** ******
      ****** ****** ****** ****** ****** ****** ****** ****** ****** ******
      ****** ****** ****** ****** ****** ****** ****** ****** ****** ******
   9  ****** ****** ****** ****** ****** ****** ****** ****** ****** ******
      ****** ****** ****** ****** ****** ****** ****** ****** ****** ******
      ****** ****** ****** ****** ****** ****** ****** ****** ****** ******
  10  ****** ****** ****** ****** ****** ****** ****** ****** ****** ******
      ****** ****** ****** ****** ****** ****** ****** ****** ****** ******
      ****** ****** ****** ****** ****** ****** ****** ****** ****** ******
  11  ****** ****** ****** ****** ****** ****** ****** ****** ****** ******
      ****** ****** ****** ****** ****** ****** ****** ****** ****** ******
      ****** ****** ****** ****** ****** ****** ****** ****** ****** ******
  12  ****** ****** ****** ****** ****** ****** ****** ****** ****** ******
      ****** ****** ****** ****** ****** ****** ****** ****** ****** ******
      ****** ****** ****** ****** ****** ****** ****** ****** ****** ******
  13  ****** ****** ****** ****** ****** ****** ****** ****** ****** ******
      ****** ****** ****** ****** ****** ****** ****** ****** ****** ******
      ****** ****** ****** ****** ****** ****** ****** ****** ****** ******
  14  ****** ****** ****** ****** ****** ****** ****** ****** ****** ******
      ****** ****** ****** ****** ****** ****** ****** ****** ****** ******
      ****** ****** ****** ****** ****** ****** ****** ****** ****** ******
  15  ****** ****** ****** ****** ****** ****** ****** ****** ****** ******
      ****** ****** ****** ****** ****** ****** ****** ****** ****** ******
      ****** ****** ****** ****** ****** ****** ****** ****** ****** ******
  16  ****** ****** ****** ****** ****** ****** ****** ****** ****** ******
      ****** ****** ****** ****** ****** ****** ****** ****** ****** ******
      ****** ****** ****** ****** ****** ****** ****** ****** ****** ******
  17  ****** ****** ****** ****** ****** ****** ****** ****** ****** ******
      ****** ****** ****** ****** ****** ****** ****** ****** ****** ******
      ****** ****** ****** ****** ****** ****** ****** ****** ****** ******
  18  ****** ****** ****** ****** ****** ****** ****** ****** ****** ******
      ****** ****** ****** ****** ****** ****** ****** ****** ****** ******
      ****** ****** ****** ****** ****** ****** ****** ****** ****** ******
  19  ****** ****** ****** ****** ****** ****** ****** ****** ****** ******
      ****** ****** ****** ****** ****** ****** ****** ****** ****** ******
      ****** ****** ****** ****** ****** ****** ****** ****** ****** ******
  20  ****** ****** ****** ****** ****** ****** ****** ****** ****** ******
      ****** ****** ****** ****** ****** ****** ****** ****** ****** ******
      ****** ****** ****** ****** ****** ****** ****** ****** ****** ******
  21  ****** ****** ****** ****** ****** ****** ****** ****** ****** ******
      ****** ****** ****** ****** ****** ****** ****** ****** ****** ******
      ****** ****** ****** ****** ****** ****** ****** ****** ****** ******
  22  ****** ****** ****** ****** ****** ****** ****** ****** ****** ******
      ****** ****** ****** ****** ****** ****** ****** ****** ****** ******
      ****** ****** ****** ****** ****** ****** ****** ****** ****** ******
  23  ****** ****** ****** ****** ****** ****** ****** ****** ****** ******
      ****** ****** ****** ****** ****** ****** ****** ****** ****** ******
      ****** ****** ****** ****** ****** ****** ****** ****** ****** ******
  24  ****** ****** ****** ****** ****** ****** ****** ****** ****** ******
      ****** ****** ****** ****** ****** ****** ****** ****** ****** ******
      ****** ****** ****** ****** ****** ****** ****** ****** ****** ******
  25  ****** ****** ****** ****** ****** ****** ****** ****** ****** ******
      ****** ****** ****** ****** ****** ****** ****** ****** ****** ******
      ****** ****** ****** ****** ****** ****** ****** ****** ****** ******

 HEAD WILL BE SAVED ON UNIT   51 AT END OF TIME STEP    1, STRESS PERIOD    8
1
  VOLUMETRIC BUDGET FOR ENTIRE MODEL AT END OF TIME STEP    1, STRESS PERIOD   8
  ------------------------------------------------------------------------------

     CUMULATIVE VOLUMES      L**3       RATES FOR THIS TIME STEP      L**3/T
     ------------------                 ------------------------

           IN:                                      IN:
           ---                                      ---
             STORAGE =    27365891.5749               STORAGE =           0.0000
       CONSTANT HEAD =   150823021.5982         CONSTANT HEAD =      204072.8562
               WELLS =           0.0000                 WELLS =           0.0000
            RECHARGE =    17608800.0000              RECHARGE =       27600.0000
      STREAM LEAKAGE =     5462110.9127        STREAM LEAKAGE =        6923.4827

            TOTAL IN =   201259824.0858              TOTAL IN =      238596.3389

          OUT:                                     OUT:
          ----                                     ----
             STORAGE =     2629813.5155               STORAGE =        8318.3610
       CONSTANT HEAD =           0.0000         CONSTANT HEAD =           0.0000
               WELLS =   103003458.1465                 WELLS =      114304.7151
            RECHARGE =           0.0000              RECHARGE =           0.0000
      STREAM LEAKAGE =    95626553.1832        STREAM LEAKAGE =      115973.2618

           TOTAL OUT =   201259824.8452             TOTAL OUT =      238596.3379

            IN - OUT =          -0.7593              IN - OUT =       1.0370E-03

 PERCENT DISCREPANCY =          -0.00     PERCENT DISCREPANCY =           0.00






         TIME SUMMARY AT END OF TIME STEP    1 IN STRESS PERIOD    8
                    SECONDS     MINUTES      HOURS       DAYS        YEARS
                    -----------------------------------------------------------
   TIME STEP LENGTH 7.86240E+06 1.31040E+05  2184.0      91.000     0.24914    
 STRESS PERIOD TIME 7.86240E+06 1.31040E+05  2184.0      91.000     0.24914    
         TOTAL TIME 6.30720E+07 1.05120E+06  17520.      730.00      1.9986    
1
1
                            STRESS PERIOD NO.    9, LENGTH =   92.00000    
                            -----------------------------------------------

                              NUMBER OF TIME STEPS =     1

                               MULTIPLIER FOR DELT =     1.500

                            INITIAL TIME STEP SIZE =   92.00000    

 WELL NO.  LAYER   ROW   COL   STRESS RATE         
 --------------------------------------------------
      1      1      5     22     -0.1180E+05
      2      1      3     18     -0.5000E+05
      3      1      3     21     -0.5250E+05

      3 WELLS

                 RECHARGE =  5.000000E-04

 REUSING STREAM SEGMENT DATA FROM LAST STRESS PERIOD
 
 SOLVING FOR HEAD 


     6 CALLS TO PCG ROUTINE FOR TIME STEP   1 IN STRESS PERIOD    9
    22 TOTAL ITERATIONS

 OUTPUT CONTROL FOR STRESS PERIOD    9   TIME STEP    1
    SAVE BUDGET
    SAVE HEAD FOR ALL LAYERS
    PRINT HEAD FOR ALL LAYERS
 UBDSV2 SAVING "STREAMFLOW OUT  " ON UNIT  50 AT TIME STEP  1, STRESS PERIOD   9



 STREAM LISTING     PERIOD      9   STEP        1

 LAYER ROW COL. STREAM  RCH.  FLOW INTO     FLOW TO   FLOW OUT OF   OVRLND.     DIRECT     STREAM       STREAM     STREAM     STREAM   STREAMBED  STREAMBED
                SEG.NO.  NO.  STRM. RCH.    AQUIFER    STRM. RCH.    RUNOFF     PRECIP       ET          HEAD       DEPTH      WIDTH   CONDCTNC.   GRADIENT

   1   13    1     1     1    1.0000E+05 -2.6340E+03   1.0263E+05  0.000E+00  0.000E+00  0.000E+00  4.84072E+01  1.458E-01  2.000E+01  2.000E+04 -1.317E-01
   1   13    2     1     2    1.0263E+05 -4.4289E+03   1.0706E+05  0.000E+00  0.000E+00  0.000E+00  4.79329E+01  1.488E-01  2.000E+01  2.000E+04 -2.214E-01
   1   14    3     1     3    1.0706E+05 -3.5494E+03   1.1061E+05  0.000E+00  0.000E+00  0.000E+00  4.74590E+01  1.522E-01  2.000E+01  2.000E+04 -1.775E-01
   1   15    4     1     4    1.1061E+05 -3.4914E+03   1.1410E+05  0.000E+00  0.000E+00  0.000E+00  4.69847E+01  1.551E-01  2.000E+01  2.000E+04 -1.746E-01
   1   16    5     1     5    1.1410E+05 -3.9180E+03   1.1802E+05  0.000E+00  0.000E+00  0.000E+00  4.65104E+01  1.582E-01  2.000E+01  2.000E+04 -1.959E-01
   1   16    6     1     6    1.1802E+05 -3.0549E+03   1.2108E+05  0.000E+00  0.000E+00  0.000E+00  4.60360E+01  1.610E-01  2.000E+01  2.000E+04 -1.527E-01
   1   16    7     1     7    1.2108E+05 -3.1004E+03   1.2418E+05  0.000E+00  0.000E+00  0.000E+00  4.55612E+01  1.635E-01  2.000E+01  2.000E+04 -1.550E-01
   1   16    8     1     8    1.2418E+05 -3.1244E+03   1.2730E+05  0.000E+00  0.000E+00  0.000E+00  4.50864E+01  1.660E-01  2.000E+01  2.000E+04 -1.562E-01
   1   16    9     1     9    1.2730E+05 -3.1150E+03   1.3042E+05  0.000E+00  0.000E+00  0.000E+00  4.46116E+01  1.684E-01  2.000E+01  2.000E+04 -1.558E-01
   1   16   10     1    10    1.3042E+05 -3.0803E+03   1.3350E+05  0.000E+00  0.000E+00  0.000E+00  4.41367E+01  1.708E-01  2.000E+01  2.000E+04 -1.540E-01
   1   16   11     1    11    1.3350E+05 -3.0561E+03   1.3655E+05  0.000E+00  0.000E+00  0.000E+00  4.36618E+01  1.732E-01  2.000E+01  2.000E+04 -1.528E-01
   1   16   12     1    12    1.3655E+05 -4.1595E+03   1.4071E+05  0.000E+00  0.000E+00  0.000E+00  4.31873E+01  1.760E-01  2.000E+01  2.000E+04 -2.080E-01
   1   15   13     1    13    1.4071E+05 -3.6144E+03   1.4433E+05  0.000E+00  0.000E+00  0.000E+00  4.27130E+01  1.789E-01  2.000E+01  2.000E+04 -1.807E-01
   1   14   14     1    14    1.4433E+05 -3.4450E+03   1.4777E+05  0.000E+00  0.000E+00  0.000E+00  4.22384E+01  1.816E-01  2.000E+01  2.000E+04 -1.723E-01
   1   13   15     1    15    1.4777E+05 -3.3410E+03   1.5111E+05  0.000E+00  0.000E+00  0.000E+00  4.17636E+01  1.841E-01  2.000E+01  2.000E+04 -1.670E-01
   1   12   16     1    16    1.5111E+05 -3.4432E+03   1.5456E+05  0.000E+00  0.000E+00  0.000E+00  4.12888E+01  1.866E-01  2.000E+01  2.000E+04 -1.722E-01
   1   12   17     1    17    1.5456E+05 -2.0610E+03   1.5662E+05  0.000E+00  0.000E+00  0.000E+00  4.08136E+01  1.886E-01  2.000E+01  2.000E+04 -1.030E-01
   1   12   18     1    18    1.5662E+05 -1.7958E+03   1.5841E+05  0.000E+00  0.000E+00  0.000E+00  4.03377E+01  1.900E-01  2.000E+01  2.000E+04 -8.979E-02
   1   12   19     1    19    1.5841E+05 -1.9422E+03   1.6035E+05  0.000E+00  0.000E+00  0.000E+00  3.98618E+01  1.913E-01  2.000E+01  2.000E+04 -9.711E-02
   1   13   20     1    20    1.6035E+05 -1.8557E+03   1.6221E+05  0.000E+00  0.000E+00  0.000E+00  3.93859E+01  1.927E-01  2.000E+01  2.000E+04 -9.279E-02
   1   14   21     1    21    1.6221E+05 -1.9724E+03   1.6418E+05  0.000E+00  0.000E+00  0.000E+00  3.89100E+01  1.941E-01  2.000E+01  2.000E+04 -9.862E-02
   1   14   22     1    22    1.6418E+05  5.2258E+03   1.5896E+05  0.000E+00  0.000E+00  0.000E+00  3.84315E+01  1.929E-01  2.000E+01  2.000E+04  2.613E-01
   1    9   30     2     1    5.0000E+04 -2.0899E+03   5.2090E+04  0.000E+00  0.000E+00  0.000E+00  4.02423E+01  1.173E-01  2.000E+01  2.000E+04 -1.045E-01
   1    9   29     2     2    5.2090E+04 -2.3229E+03   5.4413E+04  0.000E+00  0.000E+00  0.000E+00  3.99953E+01  1.203E-01  2.000E+01  2.000E+04 -1.161E-01
   1    9   28     2     3    5.4413E+04 -2.4518E+03   5.6865E+04  0.000E+00  0.000E+00  0.000E+00  3.97485E+01  1.235E-01  2.000E+01  2.000E+04 -1.226E-01
   1    9   27     2     4    5.6865E+04 -3.7198E+03   6.0584E+04  0.000E+00  0.000E+00  0.000E+00  3.95026E+01  1.276E-01  2.000E+01  2.000E+04 -1.860E-01
   1   10   26     2     5    6.0584E+04 -1.5974E+03   6.2182E+04  0.000E+00  0.000E+00  0.000E+00  3.92560E+01  1.310E-01  2.000E+01  2.000E+04 -7.987E-02
   1   11   25     2     6    6.2182E+04 -7.7242E+02   6.2954E+04  0.000E+00  0.000E+00  0.000E+00  3.90076E+01  1.326E-01  2.000E+01  2.000E+04 -3.862E-02
   1   12   24     2     7    6.2954E+04 -3.2272E+02   6.3277E+04  0.000E+00  0.000E+00  0.000E+00  3.87582E+01  1.332E-01  2.000E+01  2.000E+04 -1.614E-02
   1   13   23     2     8    6.3277E+04 -7.3844E+01   6.3351E+04  0.000E+00  0.000E+00  0.000E+00  3.85085E+01  1.335E-01  2.000E+01  2.000E+04 -3.692E-03
   1   14   22     2     9    6.3351E+04  1.7438E+03   6.1607E+04  0.000E+00  0.000E+00  0.000E+00  3.82574E+01  1.324E-01  2.000E+01  2.000E+04  8.719E-02
   1   14   22     3     1    2.2056E+05 -8.3912E+03   2.2896E+05  0.000E+00  0.000E+00  0.000E+00  3.77507E+01  1.951E-01  2.000E+01  2.000E+04 -4.196E-01
   1   15   23     3     2    2.2896E+05 -3.0269E+03   2.3198E+05  0.000E+00  0.000E+00  0.000E+00  3.68648E+01  1.981E-01  2.000E+01  2.000E+04 -1.513E-01
   1   15   24     3     3    2.3198E+05 -2.0625E+03   2.3404E+05  0.000E+00  0.000E+00  0.000E+00  3.59772E+01  1.994E-01  2.000E+01  2.000E+04 -1.031E-01
   1   15   25     3     4    2.3404E+05 -1.9273E+03   2.3597E+05  0.000E+00  0.000E+00  0.000E+00  3.50893E+01  2.004E-01  2.000E+01  2.000E+04 -9.636E-02
   1   15   26     3     5    2.3597E+05 -2.2520E+03   2.3822E+05  0.000E+00  0.000E+00  0.000E+00  3.42015E+01  2.015E-01  2.000E+01  2.000E+04 -1.126E-01
   1   16   27     3     6    2.3822E+05 -3.2127E+03   2.4144E+05  0.000E+00  0.000E+00  0.000E+00  3.33140E+01  2.029E-01  2.000E+01  2.000E+04 -1.606E-01
   1   17   28     3     7    2.4144E+05 -4.0397E+03   2.4548E+05  0.000E+00  0.000E+00  0.000E+00  3.24269E+01  2.047E-01  2.000E+01  2.000E+04 -2.020E-01
   1   18   29     3     8    2.4548E+05 -5.7274E+03   2.5120E+05  0.000E+00  0.000E+00  0.000E+00  3.15405E+01  2.072E-01  2.000E+01  2.000E+04 -2.864E-01
   1   18   30     3     9    2.5120E+05 -4.7674E+03   2.5597E+05  0.000E+00  0.000E+00  0.000E+00  3.06542E+01  2.098E-01  2.000E+01  2.000E+04 -2.384E-01



1
              HEAD IN LAYER   1 AT END OF TIME STEP   1 IN STRESS PERIOD    9
  ---------------------------------------------------------------------------

          1      2      3      4      5      6      7      8      9     10
         11     12     13     14     15     16     17     18     19     20
         21     22     23     24     25     26     27     28     29     30
 .........................................................................
   1  ****** ****** ****** ****** ****** ****** ****** ****** ****** ******
      ****** ****** ****** ****** ****** ****** ****** ****** ****** ******
      ****** ****** ****** ****** ****** ****** ****** ****** ****** ******
   2  ****** ****** ****** ****** ****** ****** ****** ****** ****** ******
      ****** ****** ****** ****** ****** ****** ****** ****** ****** ******
      ****** ****** ****** ****** ****** ****** ****** ****** ****** ******
   3  ****** ****** ****** ****** ****** ****** ****** ****** ****** ******
      ****** ****** ****** ****** ****** ****** ****** ****** ****** ******
      ****** ****** ****** ****** ****** ****** ****** ****** ****** ******
   4  ****** ****** ****** ****** ****** ****** ****** ****** ****** ******
      ****** ****** ****** ****** ****** ****** ****** ****** ****** ******
      ****** ****** ****** ****** ****** ****** ****** ****** ****** ******
   5  ****** ****** ****** ****** ****** ****** ****** ****** ****** ******
      ****** ****** ****** ****** ****** ****** ****** ****** ****** ******
      ****** ****** ****** ****** ****** ****** ****** ****** ****** ******
   6  ****** ****** ****** ****** ****** ****** ****** ****** ****** ******
      ****** ****** ****** ****** ****** ****** ****** ****** ****** ******
      ****** ****** ****** ****** ****** ****** ****** ****** ****** ******
   7  ****** ****** ****** ****** ****** ****** ****** ****** ****** ******
      ****** ****** ****** ****** ****** ****** ****** ****** ****** ******
      ****** ****** ****** ****** ****** ****** ****** ****** ****** ******
   8  ****** ****** ****** ****** ****** ****** ****** ****** ****** ******
      ****** ****** ****** ****** ****** ****** ****** ****** ****** ******
      ****** ****** ****** ****** ****** ****** ****** ****** ****** ******
   9  ****** ****** ****** ****** ****** ****** ****** ****** ****** ******
      ****** ****** ****** ****** ****** ****** ****** ****** ****** ******
      ****** ****** ****** ****** ****** ****** ****** ****** ****** ******
  10  ****** ****** ****** ****** ****** ****** ****** ****** ****** ******
      ****** ****** ****** ****** ****** ****** ****** ****** ****** ******
      ****** ****** ****** ****** ****** ****** ****** ****** ****** ******
  11  ****** ****** ****** ****** ****** ****** ****** ****** ****** ******
      ****** ****** ****** ****** ****** ****** ****** ****** ****** ******
      ****** ****** ****** ****** ****** ****** ****** ****** ****** ******
  12  ****** ****** ****** ****** ****** ****** ****** ****** ****** ******
      ****** ****** ****** ****** ****** ****** ****** ****** ****** ******
      ****** ****** ****** ****** ****** ****** ****** ****** ****** ******
  13  ****** ****** ****** ****** ****** ****** ****** ****** ****** ******
      ****** ****** ****** ****** ****** ****** ****** ****** ****** ******
      ****** ****** ****** ****** ****** ****** ****** ****** ****** ******
  14  ****** ****** ****** ****** ****** ****** ****** ****** ****** ******
      ****** ****** ****** ****** ****** ****** ****** ****** ****** ******
      ****** ****** ****** ****** ****** ****** ****** ****** ****** ******
  15  ****** ****** ****** ****** ****** ****** ****** ****** ****** ******
      ****** ****** ****** ****** ****** ****** ****** ****** ****** ******
      ****** ****** ****** ****** ****** ****** ****** ****** ****** ******
  16  ****** ****** ****** ****** ****** ****** ****** ****** ****** ******
      ****** ****** ****** ****** ****** ****** ****** ****** ****** ******
      ****** ****** ****** ****** ****** ****** ****** ****** ****** ******
  17  ****** ****** ****** ****** ****** ****** ****** ****** ****** ******
      ****** ****** ****** ****** ****** ****** ****** ****** ****** ******
      ****** ****** ****** ****** ****** ****** ****** ****** ****** ******
  18  ****** ****** ****** ****** ****** ****** ****** ****** ****** ******
      ****** ****** ****** ****** ****** ****** ****** ****** ****** ******
      ****** ****** ****** ****** ****** ****** ****** ****** ****** ******
  19  ****** ****** ****** ****** ****** ****** ****** ****** ****** ******
      ****** ****** ****** ****** ****** ****** ****** ****** ****** ******
      ****** ****** ****** ****** ****** ****** ****** ****** ****** ******
  20  ****** ****** ****** ****** ****** ****** ****** ****** ****** ******
      ****** ****** ****** ****** ****** ****** ****** ****** ****** ******
      ****** ****** ****** ****** ****** ****** ****** ****** ****** ******
  21  ****** ****** ****** ****** ****** ****** ****** ****** ****** ******
      ****** ****** ****** ****** ****** ****** ****** ****** ****** ******
      ****** ****** ****** ****** ****** ****** ****** ****** ****** ******
  22  ****** ****** ****** ****** ****** ****** ****** ****** ****** ******
      ****** ****** ****** ****** ****** ****** ****** ****** ****** ******
      ****** ****** ****** ****** ****** ****** ****** ****** ****** ******
  23  ****** ****** ****** ****** ****** ****** ****** ****** ****** ******
      ****** ****** ****** ****** ****** ****** ****** ****** ****** ******
      ****** ****** ****** ****** ****** ****** ****** ****** ****** ******
  24  ****** ****** ****** ****** ****** ****** ****** ****** ****** ******
      ****** ****** ****** ****** ****** ****** ****** ****** ****** ******
      ****** ****** ****** ****** ****** ****** ****** ****** ****** ******
  25  ****** ****** ****** ****** ****** ****** ****** ****** ****** ******
      ****** ****** ****** ****** ****** ****** ****** ****** ****** ******
      ****** ****** ****** ****** ****** ****** ****** ****** ****** ******

 HEAD WILL BE SAVED ON UNIT   51 AT END OF TIME STEP    1, STRESS PERIOD    9
1
  VOLUMETRIC BUDGET FOR ENTIRE MODEL AT END OF TIME STEP    1, STRESS PERIOD   9
  ------------------------------------------------------------------------------

     CUMULATIVE VOLUMES      L**3       RATES FOR THIS TIME STEP      L**3/T
     ------------------                 ------------------------

           IN:                                      IN:
           ---                                      ---
             STORAGE =    27524644.9355               STORAGE =        1725.5800
       CONSTANT HEAD =   169718665.3367         CONSTANT HEAD =      205387.4319
               WELLS =           0.0000                 WELLS =           0.0000
            RECHARGE =    18878400.0000              RECHARGE =       13800.0000
      STREAM LEAKAGE =     6103311.1018        STREAM LEAKAGE =        6969.5673

            TOTAL IN =   222225021.3740              TOTAL IN =      227882.5792

          OUT:                                     OUT:
          ----                                     ----
             STORAGE =     2688413.7997               STORAGE =         636.9596
       CONSTANT HEAD =           0.0000         CONSTANT HEAD =           0.0000
               WELLS =   113519491.9348                 WELLS =      114304.7151
            RECHARGE =           0.0000              RECHARGE =           0.0000
      STREAM LEAKAGE =   106017116.6255        STREAM LEAKAGE =      112940.9070

           TOTAL OUT =   222225022.3600             TOTAL OUT =      227882.5817

            IN - OUT =          -0.9860              IN - OUT =      -2.4637E-03

 PERCENT DISCREPANCY =          -0.00     PERCENT DISCREPANCY =          -0.00






         TIME SUMMARY AT END OF TIME STEP    1 IN STRESS PERIOD    9
                    SECONDS     MINUTES      HOURS       DAYS        YEARS
                    -----------------------------------------------------------
   TIME STEP LENGTH 7.94880E+06 1.32480E+05  2208.0      92.000     0.25188    
 STRESS PERIOD TIME 7.94880E+06 1.32480E+05  2208.0      92.000     0.25188    
         TOTAL TIME 7.10208E+07 1.18368E+06  19728.      822.00      2.2505    
1
1
                            STRESS PERIOD NO.   10, LENGTH =   91.00000    
                            -----------------------------------------------

                              NUMBER OF TIME STEPS =     1

                               MULTIPLIER FOR DELT =     1.500

                            INITIAL TIME STEP SIZE =   91.00000    

 WELL NO.  LAYER   ROW   COL   STRESS RATE         
 --------------------------------------------------
      1      1      5     22     -0.1180E+05
      2      1      3     18     -0.5000E+05
      3      1      3     21     -0.5250E+05

      3 WELLS

                 RECHARGE =  2.000000E-03

 REUSING STREAM SEGMENT DATA FROM LAST STRESS PERIOD
 
 SOLVING FOR HEAD 


     7 CALLS TO PCG ROUTINE FOR TIME STEP   1 IN STRESS PERIOD   10
    26 TOTAL ITERATIONS

 OUTPUT CONTROL FOR STRESS PERIOD   10   TIME STEP    1
    SAVE BUDGET
    SAVE HEAD FOR ALL LAYERS
    PRINT HEAD FOR ALL LAYERS
 UBDSV2 SAVING "STREAMFLOW OUT  " ON UNIT  50 AT TIME STEP  1, STRESS PERIOD  10



 STREAM LISTING     PERIOD     10   STEP        1

 LAYER ROW COL. STREAM  RCH.  FLOW INTO     FLOW TO   FLOW OUT OF   OVRLND.     DIRECT     STREAM       STREAM     STREAM     STREAM   STREAMBED  STREAMBED
                SEG.NO.  NO.  STRM. RCH.    AQUIFER    STRM. RCH.    RUNOFF     PRECIP       ET          HEAD       DEPTH      WIDTH   CONDCTNC.   GRADIENT

   1   13    1     1     1    1.0000E+05 -3.0618E+03   1.0306E+05  0.000E+00  0.000E+00  0.000E+00  4.84073E+01  1.460E-01  2.000E+01  2.000E+04 -1.531E-01
   1   13    2     1     2    1.0306E+05 -4.9993E+03   1.0806E+05  0.000E+00  0.000E+00  0.000E+00  4.79335E+01  1.494E-01  2.000E+01  2.000E+04 -2.500E-01
   1   14    3     1     3    1.0806E+05 -4.1223E+03   1.1218E+05  0.000E+00  0.000E+00  0.000E+00  4.74601E+01  1.533E-01  2.000E+01  2.000E+04 -2.061E-01
   1   15    4     1     4    1.1218E+05 -4.0561E+03   1.1624E+05  0.000E+00  0.000E+00  0.000E+00  4.69862E+01  1.567E-01  2.000E+01  2.000E+04 -2.028E-01
   1   16    5     1     5    1.1624E+05 -4.4354E+03   1.2067E+05  0.000E+00  0.000E+00  0.000E+00  4.65124E+01  1.601E-01  2.000E+01  2.000E+04 -2.218E-01
   1   16    6     1     6    1.2067E+05 -3.4657E+03   1.2414E+05  0.000E+00  0.000E+00  0.000E+00  4.60383E+01  1.633E-01  2.000E+01  2.000E+04 -1.733E-01
   1   16    7     1     7    1.2414E+05 -3.5187E+03   1.2766E+05  0.000E+00  0.000E+00  0.000E+00  4.55638E+01  1.661E-01  2.000E+01  2.000E+04 -1.759E-01
   1   16    8     1     8    1.2766E+05 -3.5472E+03   1.3121E+05  0.000E+00  0.000E+00  0.000E+00  4.50893E+01  1.689E-01  2.000E+01  2.000E+04 -1.774E-01
   1   16    9     1     9    1.3121E+05 -3.5382E+03   1.3474E+05  0.000E+00  0.000E+00  0.000E+00  4.46148E+01  1.716E-01  2.000E+01  2.000E+04 -1.769E-01
   1   16   10     1    10    1.3474E+05 -3.4997E+03   1.3824E+05  0.000E+00  0.000E+00  0.000E+00  4.41402E+01  1.743E-01  2.000E+01  2.000E+04 -1.750E-01
   1   16   11     1    11    1.3824E+05 -3.4692E+03   1.4171E+05  0.000E+00  0.000E+00  0.000E+00  4.36656E+01  1.770E-01  2.000E+01  2.000E+04 -1.735E-01
   1   16   12     1    12    1.4171E+05 -4.6881E+03   1.4640E+05  0.000E+00  0.000E+00  0.000E+00  4.31914E+01  1.801E-01  2.000E+01  2.000E+04 -2.344E-01
   1   15   13     1    13    1.4640E+05 -4.1958E+03   1.5060E+05  0.000E+00  0.000E+00  0.000E+00  4.27175E+01  1.834E-01  2.000E+01  2.000E+04 -2.098E-01
   1   14   14     1    14    1.5060E+05 -4.0426E+03   1.5464E+05  0.000E+00  0.000E+00  0.000E+00  4.22432E+01  1.864E-01  2.000E+01  2.000E+04 -2.021E-01
   1   13   15     1    15    1.5464E+05 -3.9366E+03   1.5858E+05  0.000E+00  0.000E+00  0.000E+00  4.17689E+01  1.893E-01  2.000E+01  2.000E+04 -1.968E-01
   1   12   16     1    16    1.5858E+05 -4.0336E+03   1.6261E+05  0.000E+00  0.000E+00  0.000E+00  4.12945E+01  1.922E-01  2.000E+01  2.000E+04 -2.017E-01
   1   12   17     1    17    1.6261E+05 -2.4967E+03   1.6511E+05  0.000E+00  0.000E+00  0.000E+00  4.08195E+01  1.945E-01  2.000E+01  2.000E+04 -1.248E-01
   1   12   18     1    18    1.6511E+05 -2.2254E+03   1.6733E+05  0.000E+00  0.000E+00  0.000E+00  4.03439E+01  1.962E-01  2.000E+01  2.000E+04 -1.113E-01
   1   12   19     1    19    1.6733E+05 -2.4757E+03   1.6981E+05  0.000E+00  0.000E+00  0.000E+00  3.98683E+01  1.979E-01  2.000E+01  2.000E+04 -1.238E-01
   1   13   20     1    20    1.6981E+05 -2.3516E+03   1.7216E+05  0.000E+00  0.000E+00  0.000E+00  3.93928E+01  1.996E-01  2.000E+01  2.000E+04 -1.176E-01
   1   14   21     1    21    1.7216E+05 -2.4158E+03   1.7458E+05  0.000E+00  0.000E+00  0.000E+00  3.89171E+01  2.012E-01  2.000E+01  2.000E+04 -1.208E-01
   1   14   22     1    22    1.7458E+05  5.1394E+03   1.6944E+05  0.000E+00  0.000E+00  0.000E+00  3.84389E+01  2.003E-01  2.000E+01  2.000E+04  2.570E-01
   1    9   30     2     1    5.0000E+04 -2.4687E+03   5.2469E+04  0.000E+00  0.000E+00  0.000E+00  4.02426E+01  1.176E-01  2.000E+01  2.000E+04 -1.234E-01
   1    9   29     2     2    5.2469E+04 -2.7006E+03   5.5169E+04  0.000E+00  0.000E+00  0.000E+00  3.99961E+01  1.211E-01  2.000E+01  2.000E+04 -1.350E-01
   1    9   28     2     3    5.5169E+04 -2.8318E+03   5.8001E+04  0.000E+00  0.000E+00  0.000E+00  3.97498E+01  1.248E-01  2.000E+01  2.000E+04 -1.416E-01
   1    9   27     2     4    5.8001E+04 -4.2478E+03   6.2249E+04  0.000E+00  0.000E+00  0.000E+00  3.95044E+01  1.294E-01  2.000E+01  2.000E+04 -2.124E-01
   1   10   26     2     5    6.2249E+04 -2.1335E+03   6.4382E+04  0.000E+00  0.000E+00  0.000E+00  3.92585E+01  1.335E-01  2.000E+01  2.000E+04 -1.067E-01
   1   11   25     2     6    6.4382E+04 -1.2831E+03   6.5665E+04  0.000E+00  0.000E+00  0.000E+00  3.90106E+01  1.356E-01  2.000E+01  2.000E+04 -6.415E-02
   1   12   24     2     7    6.5665E+04 -7.7163E+02   6.6437E+04  0.000E+00  0.000E+00  0.000E+00  3.87619E+01  1.369E-01  2.000E+01  2.000E+04 -3.858E-02
   1   13   23     2     8    6.6437E+04 -4.2013E+02   6.6857E+04  0.000E+00  0.000E+00  0.000E+00  3.85127E+01  1.377E-01  2.000E+01  2.000E+04 -2.101E-02
   1   14   22     2     9    6.6857E+04  1.5998E+03   6.5257E+04  0.000E+00  0.000E+00  0.000E+00  3.82619E+01  1.369E-01  2.000E+01  2.000E+04  7.999E-02
   1   14   22     3     1    2.3469E+05 -8.4794E+03   2.4317E+05  0.000E+00  0.000E+00  0.000E+00  3.77580E+01  2.024E-01  2.000E+01  2.000E+04 -4.240E-01
   1   15   23     3     2    2.4317E+05 -3.4336E+03   2.4661E+05  0.000E+00  0.000E+00  0.000E+00  3.68721E+01  2.054E-01  2.000E+01  2.000E+04 -1.717E-01
   1   15   24     3     3    2.4661E+05 -2.3550E+03   2.4896E+05  0.000E+00  0.000E+00  0.000E+00  3.59847E+01  2.069E-01  2.000E+01  2.000E+04 -1.178E-01
   1   15   25     3     4    2.4896E+05 -2.2196E+03   2.5118E+05  0.000E+00  0.000E+00  0.000E+00  3.50969E+01  2.080E-01  2.000E+01  2.000E+04 -1.110E-01
   1   15   26     3     5    2.5118E+05 -2.6272E+03   2.5381E+05  0.000E+00  0.000E+00  0.000E+00  3.42092E+01  2.092E-01  2.000E+01  2.000E+04 -1.314E-01
   1   16   27     3     6    2.5381E+05 -3.6847E+03   2.5749E+05  0.000E+00  0.000E+00  0.000E+00  3.33219E+01  2.108E-01  2.000E+01  2.000E+04 -1.842E-01
   1   17   28     3     7    2.5749E+05 -4.5218E+03   2.6201E+05  0.000E+00  0.000E+00  0.000E+00  3.24351E+01  2.128E-01  2.000E+01  2.000E+04 -2.261E-01
   1   18   29     3     8    2.6201E+05 -6.1805E+03   2.6820E+05  0.000E+00  0.000E+00  0.000E+00  3.15488E+01  2.155E-01  2.000E+01  2.000E+04 -3.090E-01
   1   18   30     3     9    2.6820E+05 -5.1079E+03   2.7330E+05  0.000E+00  0.000E+00  0.000E+00  3.06626E+01  2.182E-01  2.000E+01  2.000E+04 -2.554E-01



1
              HEAD IN LAYER   1 AT END OF TIME STEP   1 IN STRESS PERIOD   10
  ---------------------------------------------------------------------------

          1      2      3      4      5      6      7      8      9     10
         11     12     13     14     15     16     17     18     19     20
         21     22     23     24     25     26     27     28     29     30
 .........................................................................
   1  ****** ****** ****** ****** ****** ****** ****** ****** ****** ******
      ****** ****** ****** ****** ****** ****** ****** ****** ****** ******
      ****** ****** ****** ****** ****** ****** ****** ****** ****** ******
   2  ****** ****** ****** ****** ****** ****** ****** ****** ****** ******
      ****** ****** ****** ****** ****** ****** ****** ****** ****** ******
      ****** ****** ****** ****** ****** ****** ****** ****** ****** ******
   3  ****** ****** ****** ****** ****** ****** ****** ****** ****** ******
      ****** ****** ****** ****** ****** ****** ****** ****** ****** ******
      ****** ****** ****** ****** ****** ****** ****** ****** ****** ******
   4  ****** ****** ****** ****** ****** ****** ****** ****** ****** ******
      ****** ****** ****** ****** ****** ****** ****** ****** ****** ******
      ****** ****** ****** ****** ****** ****** ****** ****** ****** ******
   5  ****** ****** ****** ****** ****** ****** ****** ****** ****** ******
      ****** ****** ****** ****** ****** ****** ****** ****** ****** ******
      ****** ****** ****** ****** ****** ****** ****** ****** ****** ******
   6  ****** ****** ****** ****** ****** ****** ****** ****** ****** ******
      ****** ****** ****** ****** ****** ****** ****** ****** ****** ******
      ****** ****** ****** ****** ****** ****** ****** ****** ****** ******
   7  ****** ****** ****** ****** ****** ****** ****** ****** ****** ******
      ****** ****** ****** ****** ****** ****** ****** ****** ****** ******
      ****** ****** ****** ****** ****** ****** ****** ****** ****** ******
   8  ****** ****** ****** ****** ****** ****** ****** ****** ****** ******
      ****** ****** ****** ****** ****** ****** ****** ****** ****** ******
      ****** ****** ****** ****** ****** ****** ****** ****** ****** ******
   9  ****** ****** ****** ****** ****** ****** ****** ****** ****** ******
      ****** ****** ****** ****** ****** ****** ****** ****** ****** ******
      ****** ****** ****** ****** ****** ****** ****** ****** ****** ******
  10  ****** ****** ****** ****** ****** ****** ****** ****** ****** ******
      ****** ****** ****** ****** ****** ****** ****** ****** ****** ******
      ****** ****** ****** ****** ****** ****** ****** ****** ****** ******
  11  ****** ****** ****** ****** ****** ****** ****** ****** ****** ******
      ****** ****** ****** ****** ****** ****** ****** ****** ****** ******
      ****** ****** ****** ****** ****** ****** ****** ****** ****** ******
  12  ****** ****** ****** ****** ****** ****** ****** ****** ****** ******
      ****** ****** ****** ****** ****** ****** ****** ****** ****** ******
      ****** ****** ****** ****** ****** ****** ****** ****** ****** ******
  13  ****** ****** ****** ****** ****** ****** ****** ****** ****** ******
      ****** ****** ****** ****** ****** ****** ****** ****** ****** ******
      ****** ****** ****** ****** ****** ****** ****** ****** ****** ******
  14  ****** ****** ****** ****** ****** ****** ****** ****** ****** ******
      ****** ****** ****** ****** ****** ****** ****** ****** ****** ******
      ****** ****** ****** ****** ****** ****** ****** ****** ****** ******
  15  ****** ****** ****** ****** ****** ****** ****** ****** ****** ******
      ****** ****** ****** ****** ****** ****** ****** ****** ****** ******
      ****** ****** ****** ****** ****** ****** ****** ****** ****** ******
  16  ****** ****** ****** ****** ****** ****** ****** ****** ****** ******
      ****** ****** ****** ****** ****** ****** ****** ****** ****** ******
      ****** ****** ****** ****** ****** ****** ****** ****** ****** ******
  17  ****** ****** ****** ****** ****** ****** ****** ****** ****** ******
      ****** ****** ****** ****** ****** ****** ****** ****** ****** ******
      ****** ****** ****** ****** ****** ****** ****** ****** ****** ******
  18  ****** ****** ****** ****** ****** ****** ****** ****** ****** ******
      ****** ****** ****** ****** ****** ****** ****** ****** ****** ******
      ****** ****** ****** ****** ****** ****** ****** ****** ****** ******
  19  ****** ****** ****** ****** ****** ****** ****** ****** ****** ******
      ****** ****** ****** ****** ****** ****** ****** ****** ****** ******
      ****** ****** ****** ****** ****** ****** ****** ****** ****** ******
  20  ****** ****** ****** ****** ****** ****** ****** ****** ****** ******
      ****** ****** ****** ****** ****** ****** ****** ****** ****** ******
      ****** ****** ****** ****** ****** ****** ****** ****** ****** ******
  21  ****** ****** ****** ****** ****** ****** ****** ****** ****** ******
      ****** ****** ****** ****** ****** ****** ****** ****** ****** ******
      ****** ****** ****** ****** ****** ****** ****** ****** ****** ******
  22  ****** ****** ****** ****** ****** ****** ****** ****** ****** ******
      ****** ****** ****** ****** ****** ****** ****** ****** ****** ******
      ****** ****** ****** ****** ****** ****** ****** ****** ****** ******
  23  ****** ****** ****** ****** ****** ****** ****** ****** ****** ******
      ****** ****** ****** ****** ****** ****** ****** ****** ****** ******
      ****** ****** ****** ****** ****** ****** ****** ****** ****** ******
  24  ****** ****** ****** ****** ****** ****** ****** ****** ****** ******
      ****** ****** ****** ****** ****** ****** ****** ****** ****** ******
      ****** ****** ****** ****** ****** ****** ****** ****** ****** ******
  25  ****** ****** ****** ****** ****** ****** ****** ****** ****** ******
      ****** ****** ****** ****** ****** ****** ****** ****** ****** ******
      ****** ****** ****** ****** ****** ****** ****** ****** ****** ******

 HEAD WILL BE SAVED ON UNIT   51 AT END OF TIME STEP    1, STRESS PERIOD   10
1
  VOLUMETRIC BUDGET FOR ENTIRE MODEL AT END OF TIME STEP    1, STRESS PERIOD  10
  ------------------------------------------------------------------------------

     CUMULATIVE VOLUMES      L**3       RATES FOR THIS TIME STEP      L**3/T
     ------------------                 ------------------------

           IN:                                      IN:
           ---                                      ---
             STORAGE =    27524644.9355               STORAGE =           0.0000
       CONSTANT HEAD =   187347883.7985         CONSTANT HEAD =      193727.6754
               WELLS =           0.0000                 WELLS =           0.0000
            RECHARGE =    23901600.0000              RECHARGE =       55200.0000
      STREAM LEAKAGE =     6716579.8233        STREAM LEAKAGE =        6739.2167

            TOTAL IN =   245490708.5573              TOTAL IN =      255666.8921

          OUT:                                     OUT:
          ----                                     ----
             STORAGE =     3718495.5322               STORAGE =       11319.5795
       CONSTANT HEAD =           0.0000         CONSTANT HEAD =           0.0000
               WELLS =   123921221.0081                 WELLS =      114304.7151
            RECHARGE =           0.0000              RECHARGE =           0.0000
      STREAM LEAKAGE =   117850992.8429        STREAM LEAKAGE =      130042.5958

           TOTAL OUT =   245490709.3832             TOTAL OUT =      255666.8904

            IN - OUT =          -0.8259              IN - OUT =       1.7597E-03

 PERCENT DISCREPANCY =          -0.00     PERCENT DISCREPANCY =           0.00






         TIME SUMMARY AT END OF TIME STEP    1 IN STRESS PERIOD   10
                    SECONDS     MINUTES      HOURS       DAYS        YEARS
                    -----------------------------------------------------------
   TIME STEP LENGTH 7.86240E+06 1.31040E+05  2184.0      91.000     0.24914    
 STRESS PERIOD TIME 7.86240E+06 1.31040E+05  2184.0      91.000     0.24914    
         TOTAL TIME 7.88832E+07 1.31472E+06  21912.      913.00      2.4997    
1
1
                            STRESS PERIOD NO.   11, LENGTH =   91.00000    
                            -----------------------------------------------

                              NUMBER OF TIME STEPS =     1

                               MULTIPLIER FOR DELT =     1.500

                            INITIAL TIME STEP SIZE =   91.00000    

 WELL NO.  LAYER   ROW   COL   STRESS RATE         
 --------------------------------------------------
      1      1      5     22     -0.1180E+05
      2      1      3     18     -0.5000E+05
      3      1      3     21     -0.5250E+05

      3 WELLS

                 RECHARGE =   0.00000    

 REUSING STREAM SEGMENT DATA FROM LAST STRESS PERIOD
 
 SOLVING FOR HEAD 


     7 CALLS TO PCG ROUTINE FOR TIME STEP   1 IN STRESS PERIOD   11
    26 TOTAL ITERATIONS

 OUTPUT CONTROL FOR STRESS PERIOD   11   TIME STEP    1
    SAVE BUDGET
    SAVE HEAD FOR ALL LAYERS
    PRINT HEAD FOR ALL LAYERS
 UBDSV2 SAVING "STREAMFLOW OUT  " ON UNIT  50 AT TIME STEP  1, STRESS PERIOD  11



 STREAM LISTING     PERIOD     11   STEP        1

 LAYER ROW COL. STREAM  RCH.  FLOW INTO     FLOW TO   FLOW OUT OF   OVRLND.     DIRECT     STREAM       STREAM     STREAM     STREAM   STREAMBED  STREAMBED
                SEG.NO.  NO.  STRM. RCH.    AQUIFER    STRM. RCH.    RUNOFF     PRECIP       ET          HEAD       DEPTH      WIDTH   CONDCTNC.   GRADIENT

   1   13    1     1     1    1.0000E+05 -2.5804E+03   1.0258E+05  0.000E+00  0.000E+00  0.000E+00  4.84071E+01  1.458E-01  2.000E+01  2.000E+04 -1.290E-01
   1   13    2     1     2    1.0258E+05 -4.3711E+03   1.0695E+05  0.000E+00  0.000E+00  0.000E+00  4.79328E+01  1.487E-01  2.000E+01  2.000E+04 -2.186E-01
   1   14    3     1     3    1.0695E+05 -3.4710E+03   1.1042E+05  0.000E+00  0.000E+00  0.000E+00  4.74589E+01  1.521E-01  2.000E+01  2.000E+04 -1.735E-01
   1   15    4     1     4    1.1042E+05 -3.4072E+03   1.1383E+05  0.000E+00  0.000E+00  0.000E+00  4.69845E+01  1.549E-01  2.000E+01  2.000E+04 -1.704E-01
   1   16    5     1     5    1.1383E+05 -3.8350E+03   1.1766E+05  0.000E+00  0.000E+00  0.000E+00  4.65102E+01  1.579E-01  2.000E+01  2.000E+04 -1.917E-01
   1   16    6     1     6    1.1766E+05 -2.9917E+03   1.2066E+05  0.000E+00  0.000E+00  0.000E+00  4.60357E+01  1.607E-01  2.000E+01  2.000E+04 -1.496E-01
   1   16    7     1     7    1.2066E+05 -3.0382E+03   1.2369E+05  0.000E+00  0.000E+00  0.000E+00  4.55609E+01  1.631E-01  2.000E+01  2.000E+04 -1.519E-01
   1   16    8     1     8    1.2369E+05 -3.0630E+03   1.2676E+05  0.000E+00  0.000E+00  0.000E+00  4.50860E+01  1.656E-01  2.000E+01  2.000E+04 -1.531E-01
   1   16    9     1     9    1.2676E+05 -3.0542E+03   1.2981E+05  0.000E+00  0.000E+00  0.000E+00  4.46112E+01  1.680E-01  2.000E+01  2.000E+04 -1.527E-01
   1   16   10     1    10    1.2981E+05 -3.0198E+03   1.3283E+05  0.000E+00  0.000E+00  0.000E+00  4.41363E+01  1.703E-01  2.000E+01  2.000E+04 -1.510E-01
   1   16   11     1    11    1.3283E+05 -2.9954E+03   1.3583E+05  0.000E+00  0.000E+00  0.000E+00  4.36613E+01  1.727E-01  2.000E+01  2.000E+04 -1.498E-01
   1   16   12     1    12    1.3583E+05 -4.0803E+03   1.3991E+05  0.000E+00  0.000E+00  0.000E+00  4.31868E+01  1.754E-01  2.000E+01  2.000E+04 -2.040E-01
   1   15   13     1    13    1.3991E+05 -3.5364E+03   1.4344E+05  0.000E+00  0.000E+00  0.000E+00  4.27124E+01  1.783E-01  2.000E+01  2.000E+04 -1.768E-01
   1   14   14     1    14    1.4344E+05 -3.3739E+03   1.4682E+05  0.000E+00  0.000E+00  0.000E+00  4.22377E+01  1.809E-01  2.000E+01  2.000E+04 -1.687E-01
   1   13   15     1    15    1.4682E+05 -3.2822E+03   1.5010E+05  0.000E+00  0.000E+00  0.000E+00  4.17629E+01  1.834E-01  2.000E+01  2.000E+04 -1.641E-01
   1   12   16     1    16    1.5010E+05 -3.4204E+03   1.5352E+05  0.000E+00  0.000E+00  0.000E+00  4.12881E+01  1.858E-01  2.000E+01  2.000E+04 -1.710E-01
   1   12   17     1    17    1.5352E+05 -2.0329E+03   1.5555E+05  0.000E+00  0.000E+00  0.000E+00  4.08128E+01  1.878E-01  2.000E+01  2.000E+04 -1.016E-01
   1   12   18     1    18    1.5555E+05 -1.7684E+03   1.5732E+05  0.000E+00  0.000E+00  0.000E+00  4.03369E+01  1.892E-01  2.000E+01  2.000E+04 -8.842E-02
   1   12   19     1    19    1.5732E+05 -1.9213E+03   1.5924E+05  0.000E+00  0.000E+00  0.000E+00  3.98610E+01  1.905E-01  2.000E+01  2.000E+04 -9.606E-02
   1   13   20     1    20    1.5924E+05 -1.7958E+03   1.6104E+05  0.000E+00  0.000E+00  0.000E+00  3.93851E+01  1.919E-01  2.000E+01  2.000E+04 -8.979E-02
   1   14   21     1    21    1.6104E+05 -1.9030E+03   1.6294E+05  0.000E+00  0.000E+00  0.000E+00  3.89091E+01  1.932E-01  2.000E+01  2.000E+04 -9.515E-02
   1   14   22     1    22    1.6294E+05  5.2420E+03   1.5770E+05  0.000E+00  0.000E+00  0.000E+00  3.84306E+01  1.920E-01  2.000E+01  2.000E+04  2.621E-01
   1    9   30     2     1    5.0000E+04 -2.0326E+03   5.2033E+04  0.000E+00  0.000E+00  0.000E+00  4.02423E+01  1.173E-01  2.000E+01  2.000E+04 -1.016E-01
   1    9   29     2     2    5.2033E+04 -2.2687E+03   5.4301E+04  0.000E+00  0.000E+00  0.000E+00  3.99952E+01  1.202E-01  2.000E+01  2.000E+04 -1.134E-01
   1    9   28     2     3    5.4301E+04 -2.4044E+03   5.6706E+04  0.000E+00  0.000E+00  0.000E+00  3.97484E+01  1.234E-01  2.000E+01  2.000E+04 -1.202E-01
   1    9   27     2     4    5.6706E+04 -3.6904E+03   6.0396E+04  0.000E+00  0.000E+00  0.000E+00  3.95024E+01  1.274E-01  2.000E+01  2.000E+04 -1.845E-01
   1   10   26     2     5    6.0396E+04 -1.5479E+03   6.1944E+04  0.000E+00  0.000E+00  0.000E+00  3.92558E+01  1.308E-01  2.000E+01  2.000E+04 -7.740E-02
   1   11   25     2     6    6.1944E+04 -7.1970E+02   6.2664E+04  0.000E+00  0.000E+00  0.000E+00  3.90072E+01  1.322E-01  2.000E+01  2.000E+04 -3.598E-02
   1   12   24     2     7    6.2664E+04 -2.6963E+02   6.2933E+04  0.000E+00  0.000E+00  0.000E+00  3.87578E+01  1.328E-01  2.000E+01  2.000E+04 -1.348E-02
   1   13   23     2     8    6.2933E+04 -2.3586E+01   6.2957E+04  0.000E+00  0.000E+00  0.000E+00  3.85080E+01  1.330E-01  2.000E+01  2.000E+04 -1.179E-03
   1   14   22     2     9    6.2957E+04  1.7675E+03   6.1189E+04  0.000E+00  0.000E+00  0.000E+00  3.82569E+01  1.319E-01  2.000E+01  2.000E+04  8.838E-02
   1   14   22     3     1    2.1889E+05 -8.3747E+03   2.2726E+05  0.000E+00  0.000E+00  0.000E+00  3.77498E+01  1.943E-01  2.000E+01  2.000E+04 -4.187E-01
   1   15   23     3     2    2.2726E+05 -2.9521E+03   2.3022E+05  0.000E+00  0.000E+00  0.000E+00  3.68639E+01  1.972E-01  2.000E+01  2.000E+04 -1.476E-01
   1   15   24     3     3    2.3022E+05 -2.0000E+03   2.3222E+05  0.000E+00  0.000E+00  0.000E+00  3.59763E+01  1.985E-01  2.000E+01  2.000E+04 -1.000E-01
   1   15   25     3     4    2.3222E+05 -1.8609E+03   2.3408E+05  0.000E+00  0.000E+00  0.000E+00  3.50884E+01  1.995E-01  2.000E+01  2.000E+04 -9.305E-02
   1   15   26     3     5    2.3408E+05 -2.1631E+03   2.3624E+05  0.000E+00  0.000E+00  0.000E+00  3.42005E+01  2.005E-01  2.000E+01  2.000E+04 -1.082E-01
   1   16   27     3     6    2.3624E+05 -3.1087E+03   2.3935E+05  0.000E+00  0.000E+00  0.000E+00  3.33130E+01  2.018E-01  2.000E+01  2.000E+04 -1.554E-01
   1   17   28     3     7    2.3935E+05 -3.9352E+03   2.4328E+05  0.000E+00  0.000E+00  0.000E+00  3.24259E+01  2.036E-01  2.000E+01  2.000E+04 -1.968E-01
   1   18   29     3     8    2.4328E+05 -5.6336E+03   2.4892E+05  0.000E+00  0.000E+00  0.000E+00  3.15394E+01  2.060E-01  2.000E+01  2.000E+04 -2.817E-01
   1   18   30     3     9    2.4892E+05 -4.6909E+03   2.5361E+05  0.000E+00  0.000E+00  0.000E+00  3.06531E+01  2.086E-01  2.000E+01  2.000E+04 -2.345E-01



1
              HEAD IN LAYER   1 AT END OF TIME STEP   1 IN STRESS PERIOD   11
  ---------------------------------------------------------------------------

          1      2      3      4      5      6      7      8      9     10
         11     12     13     14     15     16     17     18     19     20
         21     22     23     24     25     26     27     28     29     30
 .........................................................................
   1  ****** ****** ****** ****** ****** ****** ****** ****** ****** ******
      ****** ****** ****** ****** ****** ****** ****** ****** ****** ******
      ****** ****** ****** ****** ****** ****** ****** ****** ****** ******
   2  ****** ****** ****** ****** ****** ****** ****** ****** ****** ******
      ****** ****** ****** ****** ****** ****** ****** ****** ****** ******
      ****** ****** ****** ****** ****** ****** ****** ****** ****** ******
   3  ****** ****** ****** ****** ****** ****** ****** ****** ****** ******
      ****** ****** ****** ****** ****** ****** ****** ****** ****** ******
      ****** ****** ****** ****** ****** ****** ****** ****** ****** ******
   4  ****** ****** ****** ****** ****** ****** ****** ****** ****** ******
      ****** ****** ****** ****** ****** ****** ****** ****** ****** ******
      ****** ****** ****** ****** ****** ****** ****** ****** ****** ******
   5  ****** ****** ****** ****** ****** ****** ****** ****** ****** ******
      ****** ****** ****** ****** ****** ****** ****** ****** ****** ******
      ****** ****** ****** ****** ****** ****** ****** ****** ****** ******
   6  ****** ****** ****** ****** ****** ****** ****** ****** ****** ******
      ****** ****** ****** ****** ****** ****** ****** ****** ****** ******
      ****** ****** ****** ****** ****** ****** ****** ****** ****** ******
   7  ****** ****** ****** ****** ****** ****** ****** ****** ****** ******
      ****** ****** ****** ****** ****** ****** ****** ****** ****** ******
      ****** ****** ****** ****** ****** ****** ****** ****** ****** ******
   8  ****** ****** ****** ****** ****** ****** ****** ****** ****** ******
      ****** ****** ****** ****** ****** ****** ****** ****** ****** ******
      ****** ****** ****** ****** ****** ****** ****** ****** ****** ******
   9  ****** ****** ****** ****** ****** ****** ****** ****** ****** ******
      ****** ****** ****** ****** ****** ****** ****** ****** ****** ******
      ****** ****** ****** ****** ****** ****** ****** ****** ****** ******
  10  ****** ****** ****** ****** ****** ****** ****** ****** ****** ******
      ****** ****** ****** ****** ****** ****** ****** ****** ****** ******
      ****** ****** ****** ****** ****** ****** ****** ****** ****** ******
  11  ****** ****** ****** ****** ****** ****** ****** ****** ****** ******
      ****** ****** ****** ****** ****** ****** ****** ****** ****** ******
      ****** ****** ****** ****** ****** ****** ****** ****** ****** ******
  12  ****** ****** ****** ****** ****** ****** ****** ****** ****** ******
      ****** ****** ****** ****** ****** ****** ****** ****** ****** ******
      ****** ****** ****** ****** ****** ****** ****** ****** ****** ******
  13  ****** ****** ****** ****** ****** ****** ****** ****** ****** ******
      ****** ****** ****** ****** ****** ****** ****** ****** ****** ******
      ****** ****** ****** ****** ****** ****** ****** ****** ****** ******
  14  ****** ****** ****** ****** ****** ****** ****** ****** ****** ******
      ****** ****** ****** ****** ****** ****** ****** ****** ****** ******
      ****** ****** ****** ****** ****** ****** ****** ****** ****** ******
  15  ****** ****** ****** ****** ****** ****** ****** ****** ****** ******
      ****** ****** ****** ****** ****** ****** ****** ****** ****** ******
      ****** ****** ****** ****** ****** ****** ****** ****** ****** ******
  16  ****** ****** ****** ****** ****** ****** ****** ****** ****** ******
      ****** ****** ****** ****** ****** ****** ****** ****** ****** ******
      ****** ****** ****** ****** ****** ****** ****** ****** ****** ******
  17  ****** ****** ****** ****** ****** ****** ****** ****** ****** ******
      ****** ****** ****** ****** ****** ****** ****** ****** ****** ******
      ****** ****** ****** ****** ****** ****** ****** ****** ****** ******
  18  ****** ****** ****** ****** ****** ****** ****** ****** ****** ******
      ****** ****** ****** ****** ****** ****** ****** ****** ****** ******
      ****** ****** ****** ****** ****** ****** ****** ****** ****** ******
  19  ****** ****** ****** ****** ****** ****** ****** ****** ****** ******
      ****** ****** ****** ****** ****** ****** ****** ****** ****** ******
      ****** ****** ****** ****** ****** ****** ****** ****** ****** ******
  20  ****** ****** ****** ****** ****** ****** ****** ****** ****** ******
      ****** ****** ****** ****** ****** ****** ****** ****** ****** ******
      ****** ****** ****** ****** ****** ****** ****** ****** ****** ******
  21  ****** ****** ****** ****** ****** ****** ****** ****** ****** ******
      ****** ****** ****** ****** ****** ****** ****** ****** ****** ******
      ****** ****** ****** ****** ****** ****** ****** ****** ****** ******
  22  ****** ****** ****** ****** ****** ****** ****** ****** ****** ******
      ****** ****** ****** ****** ****** ****** ****** ****** ****** ******
      ****** ****** ****** ****** ****** ****** ****** ****** ****** ******
  23  ****** ****** ****** ****** ****** ****** ****** ****** ****** ******
      ****** ****** ****** ****** ****** ****** ****** ****** ****** ******
      ****** ****** ****** ****** ****** ****** ****** ****** ****** ******
  24  ****** ****** ****** ****** ****** ****** ****** ****** ****** ******
      ****** ****** ****** ****** ****** ****** ****** ****** ****** ******
      ****** ****** ****** ****** ****** ****** ****** ****** ****** ******
  25  ****** ****** ****** ****** ****** ****** ****** ****** ****** ******
      ****** ****** ****** ****** ****** ****** ****** ****** ****** ******
      ****** ****** ****** ****** ****** ****** ****** ****** ****** ******

 HEAD WILL BE SAVED ON UNIT   51 AT END OF TIME STEP    1, STRESS PERIOD   11
1
  VOLUMETRIC BUDGET FOR ENTIRE MODEL AT END OF TIME STEP    1, STRESS PERIOD  11
  ------------------------------------------------------------------------------

     CUMULATIVE VOLUMES      L**3       RATES FOR THIS TIME STEP      L**3/T
     ------------------                 ------------------------

           IN:                                      IN:
           ---                                      ---
             STORAGE =    28584365.2946               STORAGE =       11645.2787
       CONSTANT HEAD =   206118245.2156         CONSTANT HEAD =      206267.7079
               WELLS =           0.0000                 WELLS =           0.0000
            RECHARGE =    23901600.0000              RECHARGE =           0.0000
      STREAM LEAKAGE =     7354443.8808        STREAM LEAKAGE =        7009.4951

            TOTAL IN =   265958654.3909              TOTAL IN =      224922.4817

          OUT:                                     OUT:
          ----                                     ----
             STORAGE =     3718495.5322               STORAGE =           0.0000
       CONSTANT HEAD =           0.0000         CONSTANT HEAD =           0.0000
               WELLS =   134322950.0813                 WELLS =      114304.7151
            RECHARGE =           0.0000              RECHARGE =           0.0000
      STREAM LEAKAGE =   127917209.7959        STREAM LEAKAGE =      110617.7687

           TOTAL OUT =   265958655.4094             TOTAL OUT =      224922.4838

            IN - OUT =          -1.0184              IN - OUT =      -2.1157E-03

 PERCENT DISCREPANCY =          -0.00     PERCENT DISCREPANCY =          -0.00






         TIME SUMMARY AT END OF TIME STEP    1 IN STRESS PERIOD   11
                    SECONDS     MINUTES      HOURS       DAYS        YEARS
                    -----------------------------------------------------------
   TIME STEP LENGTH 7.86240E+06 1.31040E+05  2184.0      91.000     0.24914    
 STRESS PERIOD TIME 7.86240E+06 1.31040E+05  2184.0      91.000     0.24914    
         TOTAL TIME 8.67456E+07 1.44576E+06  24096.      1004.0      2.7488    
1
1
                            STRESS PERIOD NO.   12, LENGTH =   91.00000    
                            -----------------------------------------------

                              NUMBER OF TIME STEPS =     1

                               MULTIPLIER FOR DELT =     1.500

                            INITIAL TIME STEP SIZE =   91.00000    

 WELL NO.  LAYER   ROW   COL   STRESS RATE         
 --------------------------------------------------
      1      1      5     22     -0.1180E+05
      2      1      3     18     -0.5000E+05
      3      1      3     21     -0.5250E+05

      3 WELLS

                 RECHARGE =  1.000000E-03

 REUSING STREAM SEGMENT DATA FROM LAST STRESS PERIOD
 
 SOLVING FOR HEAD 


     6 CALLS TO PCG ROUTINE FOR TIME STEP   1 IN STRESS PERIOD   12
    23 TOTAL ITERATIONS

 OUTPUT CONTROL FOR STRESS PERIOD   12   TIME STEP    1
    SAVE BUDGET
    SAVE HEAD FOR ALL LAYERS
    PRINT HEAD FOR ALL LAYERS
 UBDSV2 SAVING "STREAMFLOW OUT  " ON UNIT  50 AT TIME STEP  1, STRESS PERIOD  12



 STREAM LISTING     PERIOD     12   STEP        1

 LAYER ROW COL. STREAM  RCH.  FLOW INTO     FLOW TO   FLOW OUT OF   OVRLND.     DIRECT     STREAM       STREAM     STREAM     STREAM   STREAMBED  STREAMBED
                SEG.NO.  NO.  STRM. RCH.    AQUIFER    STRM. RCH.    RUNOFF     PRECIP       ET          HEAD       DEPTH      WIDTH   CONDCTNC.   GRADIENT

   1   13    1     1     1    1.0000E+05 -2.7554E+03   1.0276E+05  0.000E+00  0.000E+00  0.000E+00  4.84072E+01  1.458E-01  2.000E+01  2.000E+04 -1.378E-01
   1   13    2     1     2    1.0276E+05 -4.5918E+03   1.0735E+05  0.000E+00  0.000E+00  0.000E+00  4.79331E+01  1.490E-01  2.000E+01  2.000E+04 -2.296E-01
   1   14    3     1     3    1.0735E+05 -3.7118E+03   1.1106E+05  0.000E+00  0.000E+00  0.000E+00  4.74593E+01  1.525E-01  2.000E+01  2.000E+04 -1.856E-01
   1   15    4     1     4    1.1106E+05 -3.6497E+03   1.1471E+05  0.000E+00  0.000E+00  0.000E+00  4.69851E+01  1.556E-01  2.000E+01  2.000E+04 -1.825E-01
   1   16    5     1     5    1.1471E+05 -4.0582E+03   1.1877E+05  0.000E+00  0.000E+00  0.000E+00  4.65110E+01  1.587E-01  2.000E+01  2.000E+04 -2.029E-01
   1   16    6     1     6    1.1877E+05 -3.1698E+03   1.2194E+05  0.000E+00  0.000E+00  0.000E+00  4.60367E+01  1.617E-01  2.000E+01  2.000E+04 -1.585E-01
   1   16    7     1     7    1.2194E+05 -3.2183E+03   1.2515E+05  0.000E+00  0.000E+00  0.000E+00  4.55619E+01  1.642E-01  2.000E+01  2.000E+04 -1.609E-01
   1   16    8     1     8    1.2515E+05 -3.2443E+03   1.2840E+05  0.000E+00  0.000E+00  0.000E+00  4.50872E+01  1.668E-01  2.000E+01  2.000E+04 -1.622E-01
   1   16    9     1     9    1.2840E+05 -3.2355E+03   1.3163E+05  0.000E+00  0.000E+00  0.000E+00  4.46125E+01  1.693E-01  2.000E+01  2.000E+04 -1.618E-01
   1   16   10     1    10    1.3163E+05 -3.1999E+03   1.3483E+05  0.000E+00  0.000E+00  0.000E+00  4.41377E+01  1.718E-01  2.000E+01  2.000E+04 -1.600E-01
   1   16   11     1    11    1.3483E+05 -3.1734E+03   1.3801E+05  0.000E+00  0.000E+00  0.000E+00  4.36629E+01  1.743E-01  2.000E+01  2.000E+04 -1.587E-01
   1   16   12     1    12    1.3801E+05 -4.3040E+03   1.4231E+05  0.000E+00  0.000E+00  0.000E+00  4.31885E+01  1.771E-01  2.000E+01  2.000E+04 -2.152E-01
   1   15   13     1    13    1.4231E+05 -3.7816E+03   1.4609E+05  0.000E+00  0.000E+00  0.000E+00  4.27143E+01  1.802E-01  2.000E+01  2.000E+04 -1.891E-01
   1   14   14     1    14    1.4609E+05 -3.6225E+03   1.4972E+05  0.000E+00  0.000E+00  0.000E+00  4.22398E+01  1.829E-01  2.000E+01  2.000E+04 -1.811E-01
   1   13   15     1    15    1.4972E+05 -3.5262E+03   1.5324E+05  0.000E+00  0.000E+00  0.000E+00  4.17651E+01  1.856E-01  2.000E+01  2.000E+04 -1.763E-01
   1   12   16     1    16    1.5324E+05 -3.6453E+03   1.5689E+05  0.000E+00  0.000E+00  0.000E+00  4.12905E+01  1.882E-01  2.000E+01  2.000E+04 -1.823E-01
   1   12   17     1    17    1.5689E+05 -2.2100E+03   1.5910E+05  0.000E+00  0.000E+00  0.000E+00  4.08153E+01  1.903E-01  2.000E+01  2.000E+04 -1.105E-01
   1   12   18     1    18    1.5910E+05 -1.9450E+03   1.6104E+05  0.000E+00  0.000E+00  0.000E+00  4.03396E+01  1.918E-01  2.000E+01  2.000E+04 -9.725E-02
   1   12   19     1    19    1.6104E+05 -2.1374E+03   1.6318E+05  0.000E+00  0.000E+00  0.000E+00  3.98637E+01  1.933E-01  2.000E+01  2.000E+04 -1.069E-01
   1   13   20     1    20    1.6318E+05 -2.0169E+03   1.6520E+05  0.000E+00  0.000E+00  0.000E+00  3.93880E+01  1.948E-01  2.000E+01  2.000E+04 -1.008E-01
   1   14   21     1    21    1.6520E+05 -2.1007E+03   1.6730E+05  0.000E+00  0.000E+00  0.000E+00  3.89121E+01  1.962E-01  2.000E+01  2.000E+04 -1.050E-01
   1   14   22     1    22    1.6730E+05  5.1969E+03   1.6210E+05  0.000E+00  0.000E+00  0.000E+00  3.84338E+01  1.951E-01  2.000E+01  2.000E+04  2.598E-01
   1    9   30     2     1    5.0000E+04 -2.2137E+03   5.2214E+04  0.000E+00  0.000E+00  0.000E+00  4.02424E+01  1.174E-01  2.000E+01  2.000E+04 -1.107E-01
   1    9   29     2     2    5.2214E+04 -2.4481E+03   5.4662E+04  0.000E+00  0.000E+00  0.000E+00  3.99956E+01  1.206E-01  2.000E+01  2.000E+04 -1.224E-01
   1    9   28     2     3    5.4662E+04 -2.5816E+03   5.7243E+04  0.000E+00  0.000E+00  0.000E+00  3.97490E+01  1.240E-01  2.000E+01  2.000E+04 -1.291E-01
   1    9   27     2     4    5.7243E+04 -3.9153E+03   6.1159E+04  0.000E+00  0.000E+00  0.000E+00  3.95032E+01  1.282E-01  2.000E+01  2.000E+04 -1.958E-01
   1   10   26     2     5    6.1159E+04 -1.7891E+03   6.2948E+04  0.000E+00  0.000E+00  0.000E+00  3.92569E+01  1.319E-01  2.000E+01  2.000E+04 -8.945E-02
   1   11   25     2     6    6.2948E+04 -9.5407E+02   6.3902E+04  0.000E+00  0.000E+00  0.000E+00  3.90086E+01  1.336E-01  2.000E+01  2.000E+04 -4.770E-02
   1   12   24     2     7    6.3902E+04 -4.8220E+02   6.4384E+04  0.000E+00  0.000E+00  0.000E+00  3.87595E+01  1.345E-01  2.000E+01  2.000E+04 -2.411E-02
   1   13   23     2     8    6.4384E+04 -1.9584E+02   6.4580E+04  0.000E+00  0.000E+00  0.000E+00  3.85100E+01  1.350E-01  2.000E+01  2.000E+04 -9.792E-03
   1   14   22     2     9    6.4580E+04  1.7018E+03   6.2878E+04  0.000E+00  0.000E+00  0.000E+00  3.82590E+01  1.340E-01  2.000E+01  2.000E+04  8.509E-02
   1   14   22     3     1    2.2498E+05 -8.4189E+03   2.3340E+05  0.000E+00  0.000E+00  0.000E+00  3.77530E+01  1.974E-01  2.000E+01  2.000E+04 -4.209E-01
   1   15   23     3     2    2.3340E+05 -3.1368E+03   2.3653E+05  0.000E+00  0.000E+00  0.000E+00  3.68671E+01  2.004E-01  2.000E+01  2.000E+04 -1.568E-01
   1   15   24     3     3    2.3653E+05 -2.1445E+03   2.3868E+05  0.000E+00  0.000E+00  0.000E+00  3.59795E+01  2.018E-01  2.000E+01  2.000E+04 -1.072E-01
   1   15   25     3     4    2.3868E+05 -2.0101E+03   2.4069E+05  0.000E+00  0.000E+00  0.000E+00  3.50917E+01  2.028E-01  2.000E+01  2.000E+04 -1.005E-01
   1   15   26     3     5    2.4069E+05 -2.3581E+03   2.4305E+05  0.000E+00  0.000E+00  0.000E+00  3.42039E+01  2.039E-01  2.000E+01  2.000E+04 -1.179E-01
   1   16   27     3     6    2.4305E+05 -3.3432E+03   2.4639E+05  0.000E+00  0.000E+00  0.000E+00  3.33165E+01  2.054E-01  2.000E+01  2.000E+04 -1.672E-01
   1   17   28     3     7    2.4639E+05 -4.1722E+03   2.5056E+05  0.000E+00  0.000E+00  0.000E+00  3.24295E+01  2.072E-01  2.000E+01  2.000E+04 -2.086E-01
   1   18   29     3     8    2.5056E+05 -5.8503E+03   2.5641E+05  0.000E+00  0.000E+00  0.000E+00  3.15431E+01  2.097E-01  2.000E+01  2.000E+04 -2.925E-01
   1   18   30     3     9    2.5641E+05 -4.8617E+03   2.6127E+05  0.000E+00  0.000E+00  0.000E+00  3.06568E+01  2.124E-01  2.000E+01  2.000E+04 -2.431E-01



1
              HEAD IN LAYER   1 AT END OF TIME STEP   1 IN STRESS PERIOD   12
  ---------------------------------------------------------------------------

          1      2      3      4      5      6      7      8      9     10
         11     12     13     14     15     16     17     18     19     20
         21     22     23     24     25     26     27     28     29     30
 .........................................................................
   1  ****** ****** ****** ****** ****** ****** ****** ****** ****** ******
      ****** ****** ****** ****** ****** ****** ****** ****** ****** ******
      ****** ****** ****** ****** ****** ****** ****** ****** ****** ******
   2  ****** ****** ****** ****** ****** ****** ****** ****** ****** ******
      ****** ****** ****** ****** ****** ****** ****** ****** ****** ******
      ****** ****** ****** ****** ****** ****** ****** ****** ****** ******
   3  ****** ****** ****** ****** ****** ****** ****** ****** ****** ******
      ****** ****** ****** ****** ****** ****** ****** ****** ****** ******
      ****** ****** ****** ****** ****** ****** ****** ****** ****** ******
   4  ****** ****** ****** ****** ****** ****** ****** ****** ****** ******
      ****** ****** ****** ****** ****** ****** ****** ****** ****** ******
      ****** ****** ****** ****** ****** ****** ****** ****** ****** ******
   5  ****** ****** ****** ****** ****** ****** ****** ****** ****** ******
      ****** ****** ****** ****** ****** ****** ****** ****** ****** ******
      ****** ****** ****** ****** ****** ****** ****** ****** ****** ******
   6  ****** ****** ****** ****** ****** ****** ****** ****** ****** ******
      ****** ****** ****** ****** ****** ****** ****** ****** ****** ******
      ****** ****** ****** ****** ****** ****** ****** ****** ****** ******
   7  ****** ****** ****** ****** ****** ****** ****** ****** ****** ******
      ****** ****** ****** ****** ****** ****** ****** ****** ****** ******
      ****** ****** ****** ****** ****** ****** ****** ****** ****** ******
   8  ****** ****** ****** ****** ****** ****** ****** ****** ****** ******
      ****** ****** ****** ****** ****** ****** ****** ****** ****** ******
      ****** ****** ****** ****** ****** ****** ****** ****** ****** ******
   9  ****** ****** ****** ****** ****** ****** ****** ****** ****** ******
      ****** ****** ****** ****** ****** ****** ****** ****** ****** ******
      ****** ****** ****** ****** ****** ****** ****** ****** ****** ******
  10  ****** ****** ****** ****** ****** ****** ****** ****** ****** ******
      ****** ****** ****** ****** ****** ****** ****** ****** ****** ******
      ****** ****** ****** ****** ****** ****** ****** ****** ****** ******
  11  ****** ****** ****** ****** ****** ****** ****** ****** ****** ******
      ****** ****** ****** ****** ****** ****** ****** ****** ****** ******
      ****** ****** ****** ****** ****** ****** ****** ****** ****** ******
  12  ****** ****** ****** ****** ****** ****** ****** ****** ****** ******
      ****** ****** ****** ****** ****** ****** ****** ****** ****** ******
      ****** ****** ****** ****** ****** ****** ****** ****** ****** ******
  13  ****** ****** ****** ****** ****** ****** ****** ****** ****** ******
      ****** ****** ****** ****** ****** ****** ****** ****** ****** ******
      ****** ****** ****** ****** ****** ****** ****** ****** ****** ******
  14  ****** ****** ****** ****** ****** ****** ****** ****** ****** ******
      ****** ****** ****** ****** ****** ****** ****** ****** ****** ******
      ****** ****** ****** ****** ****** ****** ****** ****** ****** ******
  15  ****** ****** ****** ****** ****** ****** ****** ****** ****** ******
      ****** ****** ****** ****** ****** ****** ****** ****** ****** ******
      ****** ****** ****** ****** ****** ****** ****** ****** ****** ******
  16  ****** ****** ****** ****** ****** ****** ****** ****** ****** ******
      ****** ****** ****** ****** ****** ****** ****** ****** ****** ******
      ****** ****** ****** ****** ****** ****** ****** ****** ****** ******
  17  ****** ****** ****** ****** ****** ****** ****** ****** ****** ******
      ****** ****** ****** ****** ****** ****** ****** ****** ****** ******
      ****** ****** ****** ****** ****** ****** ****** ****** ****** ******
  18  ****** ****** ****** ****** ****** ****** ****** ****** ****** ******
      ****** ****** ****** ****** ****** ****** ****** ****** ****** ******
      ****** ****** ****** ****** ****** ****** ****** ****** ****** ******
  19  ****** ****** ****** ****** ****** ****** ****** ****** ****** ******
      ****** ****** ****** ****** ****** ****** ****** ****** ****** ******
      ****** ****** ****** ****** ****** ****** ****** ****** ****** ******
  20  ****** ****** ****** ****** ****** ****** ****** ****** ****** ******
      ****** ****** ****** ****** ****** ****** ****** ****** ****** ******
      ****** ****** ****** ****** ****** ****** ****** ****** ****** ******
  21  ****** ****** ****** ****** ****** ****** ****** ****** ****** ******
      ****** ****** ****** ****** ****** ****** ****** ****** ****** ******
      ****** ****** ****** ****** ****** ****** ****** ****** ****** ******
  22  ****** ****** ****** ****** ****** ****** ****** ****** ****** ******
      ****** ****** ****** ****** ****** ****** ****** ****** ****** ******
      ****** ****** ****** ****** ****** ****** ****** ****** ****** ******
  23  ****** ****** ****** ****** ****** ****** ****** ****** ****** ******
      ****** ****** ****** ****** ****** ****** ****** ****** ****** ******
      ****** ****** ****** ****** ****** ****** ****** ****** ****** ******
  24  ****** ****** ****** ****** ****** ****** ****** ****** ****** ******
      ****** ****** ****** ****** ****** ****** ****** ****** ****** ******
      ****** ****** ****** ****** ****** ****** ****** ****** ****** ******
  25  ****** ****** ****** ****** ****** ****** ****** ****** ****** ******
      ****** ****** ****** ****** ****** ****** ****** ****** ****** ******
      ****** ****** ****** ****** ****** ****** ****** ****** ****** ******

 HEAD WILL BE SAVED ON UNIT   51 AT END OF TIME STEP    1, STRESS PERIOD   12
1
  VOLUMETRIC BUDGET FOR ENTIRE MODEL AT END OF TIME STEP    1, STRESS PERIOD  12
  ------------------------------------------------------------------------------

     CUMULATIVE VOLUMES      L**3       RATES FOR THIS TIME STEP      L**3/T
     ------------------                 ------------------------

           IN:                                      IN:
           ---                                      ---
             STORAGE =    28584365.2946               STORAGE =           0.0000
       CONSTANT HEAD =   224481112.8258         CONSTANT HEAD =      201789.7540
               WELLS =           0.0000                 WELLS =           0.0000
            RECHARGE =    26413200.0000              RECHARGE =       27600.0000
      STREAM LEAKAGE =     7982226.5300        STREAM LEAKAGE =        6898.7104

            TOTAL IN =   287460904.6504              TOTAL IN =      236288.4644

          OUT:                                     OUT:
          ----                                     ----
             STORAGE =     4065242.8489               STORAGE =        3810.4101
       CONSTANT HEAD =           0.0000         CONSTANT HEAD =           0.0000
               WELLS =   144724679.1546                 WELLS =      114304.7151
            RECHARGE =           0.0000              RECHARGE =           0.0000
      STREAM LEAKAGE =   138670983.5887        STREAM LEAKAGE =      118173.3384

           TOTAL OUT =   287460905.5922             TOTAL OUT =      236288.4635

            IN - OUT =          -0.9418              IN - OUT =       8.4241E-04

 PERCENT DISCREPANCY =          -0.00     PERCENT DISCREPANCY =           0.00






         TIME SUMMARY AT END OF TIME STEP    1 IN STRESS PERIOD   12
                    SECONDS     MINUTES      HOURS       DAYS        YEARS
                    -----------------------------------------------------------
   TIME STEP LENGTH 7.86240E+06 1.31040E+05  2184.0      91.000     0.24914    
 STRESS PERIOD TIME 7.86240E+06 1.31040E+05  2184.0      91.000     0.24914    
         TOTAL TIME 9.46080E+07 1.57680E+06  26280.      1095.0      2.9979    
1

 Run end date and time (yyyy/mm/dd hh:mm:ss): 2018/10/08 20:32:28
 Elapsed run time:  0.132 Seconds

