                                  MODFLOW-2005     
      U.S. GEOLOGICAL SURVEY MODULAR FINITE-DIFFERENCE GROUND-WATER FLOW MODEL
                            VERSION 1.11.00 8/8/2013

 LIST FILE: supply2.lst
                         UNIT   10

 OPENING ..\data\supply.dis
 FILE TYPE:DIS   UNIT   11   STATUS:OLD    
 FORMAT:FORMATTED              ACCESS:SEQUENTIAL          

 OPENING ..\data\supply.ba6
 FILE TYPE:BAS6   UNIT   12   STATUS:OLD    
 FORMAT:FORMATTED              ACCESS:SEQUENTIAL          

 OPENING ..\data\supply.bc6
 FILE TYPE:BCF6   UNIT   13   STATUS:OLD    
 FORMAT:FORMATTED              ACCESS:SEQUENTIAL          

 OPENING ..\data\supply.rch
 FILE TYPE:RCH   UNIT   15   STATUS:OLD    
 FORMAT:FORMATTED              ACCESS:SEQUENTIAL          

 OPENING ..\data\supply2.sfr
 FILE TYPE:SFR   UNIT   16   STATUS:OLD    
 FORMAT:FORMATTED              ACCESS:SEQUENTIAL          

 OPENING ..\data\supply.oc
 FILE TYPE:OC   UNIT   17   STATUS:OLD    
 FORMAT:FORMATTED              ACCESS:SEQUENTIAL          

 OPENING ..\data\supply.pcg
 FILE TYPE:PCG   UNIT   18   STATUS:OLD    
 FORMAT:FORMATTED              ACCESS:SEQUENTIAL          

 OPENING supply2.wel
 FILE TYPE:WEL   UNIT   19   STATUS:OLD    
 FORMAT:FORMATTED              ACCESS:SEQUENTIAL          

 OPENING supply2sf.cbc
 FILE TYPE:DATA(BINARY)   UNIT   50   STATUS:UNKNOWN
 FORMAT:BINARY                 ACCESS:SEQUENTIAL          

 OPENING supply2hd.bhd
 FILE TYPE:DATA(BINARY)   UNIT   51   STATUS:UNKNOWN
 FORMAT:BINARY                 ACCESS:SEQUENTIAL          

 BAS -- BASIC PACKAGE, VERSION 7, 5/2/2005 INPUT READ FROM UNIT   12
 
 MODFLOW was compiled using uniform precision
 Precision of REAL and DOUBLE PRECISION variables:          15

 DISCRETIZATION INPUT DATA READ FROM UNIT   11
    1 LAYERS        25 ROWS        30 COLUMNS
   12 STRESS PERIOD(S) IN SIMULATION
 MODEL TIME UNIT IS DAYS
 MODEL LENGTH UNIT IS UNDEFINED
  Confining bed flag for each layer:
   0

                     DELR =   200.000    

                     DELC =   200.000    

 TOP ELEVATION OF LAYER 1 =  100.0000    

   MODEL LAYER BOTTOM EL. =   0.00000     FOR LAYER   1


 STRESS PERIOD     LENGTH       TIME STEPS     MULTIPLIER FOR DELT    SS FLAG
 ----------------------------------------------------------------------------
        1         92.00000          1                    1.500         TR
        2         91.00000          1                    1.500         TR
        3         91.00000          1                    1.500         TR
        4         91.00000          1                    1.500         TR
        5         92.00000          1                    1.500         TR
        6         91.00000          1                    1.500         TR
        7         91.00000          1                    1.500         TR
        8         91.00000          1                    1.500         TR
        9         92.00000          1                    1.500         TR
       10         91.00000          1                    1.500         TR
       11         91.00000          1                    1.500         TR
       12         91.00000          1                    1.500         TR

 TRANSIENT SIMULATION



 
 #MODOFC transient water supply sample problem                                   
 #                                                                               
 THE FREE FORMAT OPTION HAS BEEN SELECTED



                     BOUNDARY ARRAY FOR LAYER   1
 READING ON UNIT   12 WITH FORMAT: (20I4)              

 AQUIFER HEAD WILL BE SET TO   0.0000     AT ALL NO-FLOW NODES (IBOUND=0).



                       INITIAL HEAD FOR LAYER   1
 READING ON UNIT   12 WITH FORMAT: (10F13.0)           

 OUTPUT CONTROL IS SPECIFIED ONLY AT TIME STEPS FOR WHICH OUTPUT IS DESIRED
 COMPACT CELL-BY-CELL BUDGET FILES WILL BE WRITTEN
 HEAD PRINT FORMAT CODE IS  18    DRAWDOWN PRINT FORMAT CODE IS   0
 HEADS WILL BE SAVED ON UNIT   51    DRAWDOWNS WILL BE SAVED ON UNIT    0

 BCF -- BLOCK-CENTERED FLOW PACKAGE, VERSION 7, 5/2/2005
         INPUT READ FROM UNIT 13
 TRANSIENT SIMULATION
 HEAD AT CELLS THAT CONVERT TO DRY=   0.0000    
 WETTING CAPABILITY IS NOT ACTIVE
      LAYER  LAYER-TYPE CODE     INTERBLOCK T
      --------------------------------------------
         1            0          0 -- HARMONIC    

 COLUMN TO ROW ANISOTROPY =  1.000000    

     PRIMARY STORAGE COEF =  5.000000E-02 FOR LAYER   1

     TRANSMIS. ALONG ROWS =   500.000     FOR LAYER   1

 WEL -- WELL PACKAGE, VERSION 7, 5/2/2005 INPUT READ FROM UNIT   19
 # Well package input file written by MMProc
 No named parameters
 MAXIMUM OF      6 ACTIVE WELLS AT ONE TIME


     0 Well parameters

 RCH -- RECHARGE PACKAGE, VERSION 7, 5/2/2005 INPUT READ FROM UNIT   15
 No named parameters
 OPTION 1 -- RECHARGE TO TOP LAYER


     0 Recharge parameters

 SFR7 -- STREAMFLOW ROUTING PACKAGE, VERSION 1.0.7, 2013-01-15
         INPUT READ FROM UNIT  16
 #  Supply2 test problem for GWM-VI
 #  The eighth entry in the first data line is ISTCB2 -
 #    Setting this to a negative number indicates that
 #    streamflows out of the reach will be saved to a
 #    binary file.  The absolute value of ISTCB2 is the
 #    unit to which unformatted flows will be written.
 #
 No named parameters
 Segment information will not be 
 read by reach
 No named parameters
 No specifed inflow files


 NUMBER OF STREAM REACHES IS   40

 NUMBER OF STREAM SEGMENTS IS    3

 NUMBER OF STREAM PARAMETERS IS    0

 NUMBER OF STREAM SEGMENTS DEFINED USING PARAMETERS IS              0

 MAXIMUM ERROR FOR STREAM LEAKAGE RATES IS  1.00E-04

 CONSTANT FOR MANNINGS EQUATION IS  1.2839E+05





   STREAM NETWORK DESCRIPTION: 

   LAYER    ROW    COL   SEGMENT   REACH     LENGTH
                          NUMBER   NUMBER    IN CELL        
   --------------------------------------------------
      1     13      1       1        1    2.0000E+02
      1     13      2       1        2    2.0000E+02
      1     14      3       1        3    2.0000E+02
      1     15      4       1        4    2.0000E+02
      1     16      5       1        5    2.0000E+02
      1     16      6       1        6    2.0000E+02
      1     16      7       1        7    2.0000E+02
      1     16      8       1        8    2.0000E+02
      1     16      9       1        9    2.0000E+02
      1     16     10       1       10    2.0000E+02
      1     16     11       1       11    2.0000E+02
      1     16     12       1       12    2.0000E+02
      1     15     13       1       13    2.0000E+02
      1     14     14       1       14    2.0000E+02
      1     13     15       1       15    2.0000E+02
      1     12     16       1       16    2.0000E+02
      1     12     17       1       17    2.0000E+02
      1     12     18       1       18    2.0000E+02
      1     12     19       1       19    2.0000E+02
      1     13     20       1       20    2.0000E+02
      1     14     21       1       21    2.0000E+02
      1     14     22       1       22    2.0000E+02
      1      9     30       2        1    2.0000E+02
      1      9     29       2        2    2.0000E+02
      1      9     28       2        3    2.0000E+02
      1      9     27       2        4    2.0000E+02
      1     10     26       2        5    2.0000E+02
      1     11     25       2        6    2.0000E+02
      1     12     24       2        7    2.0000E+02
      1     13     23       2        8    2.0000E+02
      1     14     22       2        9    2.0000E+02
      1     14     22       3        1    2.0000E+02
      1     15     23       3        2    2.0000E+02
      1     15     24       3        3    2.0000E+02
      1     15     25       3        4    2.0000E+02
      1     15     26       3        5    2.0000E+02
      1     16     27       3        6    2.0000E+02
      1     17     28       3        7    2.0000E+02
      1     18     29       3        8    2.0000E+02
      1     18     30       3        9    2.0000E+02




 PCG -- CONJUGATE-GRADIENT SOLUTION PACKAGE, VERSION 7, 5/2/2005
 MAXIMUM OF    500 CALLS OF SOLUTION ROUTINE
 MAXIMUM OF      5 INTERNAL ITERATIONS PER CALL TO SOLUTION ROUTINE
 MATRIX PRECONDITIONING TYPE :    1



                                    SOLUTION BY THE CONJUGATE-GRADIENT METHOD
                                   -------------------------------------------
                    MAXIMUM NUMBER OF CALLS TO PCG ROUTINE =      500
                        MAXIMUM ITERATIONS PER CALL TO PCG =        5
                               MATRIX PRECONDITIONING TYPE =        1
        RELAXATION FACTOR (ONLY USED WITH PRECOND. TYPE 1) =    0.10000E+01
 PARAMETER OF POLYNOMIAL PRECOND. = 2 (2) OR IS CALCULATED :        0
                         HEAD CHANGE CRITERION FOR CLOSURE =    0.10000E-05
                     RESIDUAL CHANGE CRITERION FOR CLOSURE =    0.10000E+01
            PCG HEAD AND RESIDUAL CHANGE PRINTOUT INTERVAL =        1
     PRINTING FROM SOLVER IS LIMITED(1) OR SUPPRESSED (>1) =        1
                            STEADY-STATE DAMPING PARAMETER =    0.10000E+01
                               TRANSIENT DAMPING PARAMETER =    0.10000E+01
1
                            STRESS PERIOD NO.    1, LENGTH =   92.00000    
                            -----------------------------------------------

                              NUMBER OF TIME STEPS =     1

                               MULTIPLIER FOR DELT =     1.500

                            INITIAL TIME STEP SIZE =   92.00000    

 WELL NO.  LAYER   ROW   COL   STRESS RATE         
 --------------------------------------------------
      1      1     18     11     -0.3279E+05
      2      1     23     22     -0.3365E+05
      3      1     23     15     -0.3252E+05

      3 WELLS

                 RECHARGE =  5.000000E-04



 CLASSIFICATION & COUNT OF STREAM SEGMENTS BASED ON SOURCE OF INFLOW:

                HEADWATER     DIVERSION     RECEIVES TRIBUTARY FLOW
                ---------     ---------     -----------------------
                     2              0               1



                    INPUT DATA FOR EACH STREAM SEGMENT
 ---------------------------------------------------------------------------------------------

 SEGMENT    SEG.     INFLOW   OVERLAND   STREAM    STREAM   ICALC  OUTFLOW  DIVERSION PRIORITY
    NO.    LENGTH     RATE     RUNOFF      ET       PPT.    METH.  TO SEG.  FROM SEG.    NO.

      1  4.400E+03 1.000E+05 0.000E+00 0.000E+00 0.000E+00    1        3        0        0
      2  1.800E+03 5.000E+04 0.000E+00 0.000E+00 0.000E+00    1        3        0        0
      3  1.800E+03 0.000E+00 0.000E+00 0.000E+00 0.000E+00    1        0        0        0


         STREAMBED PROPERTIES AND STREAM DIMENSIONS

 SEGMENT     BED HYD. COND.      BED THICKNESS     ELEV.-TOP OF BED     WIDTH OF STREAM     DEPTH OF STREAM    STREAM ROUGHNESS
    No.     UPPER     LOWER     UPPER     LOWER     UPPER     LOWER     UPPER     LOWER     UPPER     LOWER   CHANNEL      BANK

     1  5.000E+00 5.000E+00 1.000E+00 1.000E+00 4.850E+01 3.800E+01 2.000E+01 2.000E+01                     5.000E-02
     2  5.000E+00 5.000E+00 1.000E+00 1.000E+00 4.025E+01 3.800E+01 2.000E+01 2.000E+01                     5.000E-02
     3  5.000E+00 5.000E+00 1.000E+00 1.000E+00 3.800E+01 3.000E+01 2.000E+01 2.000E+01                     5.000E-02



 
 SOLVING FOR HEAD 


     9 CALLS TO PCG ROUTINE FOR TIME STEP   1 IN STRESS PERIOD    1
    36 TOTAL ITERATIONS

 OUTPUT CONTROL FOR STRESS PERIOD    1   TIME STEP    1
    SAVE BUDGET
    SAVE HEAD FOR ALL LAYERS
    PRINT HEAD FOR ALL LAYERS
 UBDSV2 SAVING "STREAMFLOW OUT  " ON UNIT  50 AT TIME STEP  1, STRESS PERIOD   1



 STREAM LISTING     PERIOD      1   STEP        1

 LAYER ROW COL. STREAM  RCH.  FLOW INTO     FLOW TO   FLOW OUT OF   OVRLND.     DIRECT     STREAM       STREAM     STREAM     STREAM   STREAMBED  STREAMBED
                SEG.NO.  NO.  STRM. RCH.    AQUIFER    STRM. RCH.    RUNOFF     PRECIP       ET          HEAD       DEPTH      WIDTH   CONDCTNC.   GRADIENT

   1   13    1     1     1    1.0000E+05 -5.7287E+03   1.0573E+05  0.000E+00  0.000E+00  0.000E+00  4.84085E+01  1.471E-01  2.000E+01  2.000E+04 -2.864E-01
   1   13    2     1     2    1.0573E+05 -8.5808E+03   1.1431E+05  0.000E+00  0.000E+00  0.000E+00  4.79373E+01  1.532E-01  2.000E+01  2.000E+04 -4.290E-01
   1   14    3     1     3    1.1431E+05 -7.8189E+03   1.2213E+05  0.000E+00  0.000E+00  0.000E+00  4.74668E+01  1.599E-01  2.000E+01  2.000E+04 -3.909E-01
   1   15    4     1     4    1.2213E+05 -7.5852E+03   1.2971E+05  0.000E+00  0.000E+00  0.000E+00  4.69957E+01  1.661E-01  2.000E+01  2.000E+04 -3.793E-01
   1   16    5     1     5    1.2971E+05 -7.1370E+03   1.3685E+05  0.000E+00  0.000E+00  0.000E+00  4.65241E+01  1.719E-01  2.000E+01  2.000E+04 -3.568E-01
   1   16    6     1     6    1.3685E+05 -5.5653E+03   1.4242E+05  0.000E+00  0.000E+00  0.000E+00  4.60517E+01  1.767E-01  2.000E+01  2.000E+04 -2.783E-01
   1   16    7     1     7    1.4242E+05 -5.4343E+03   1.4785E+05  0.000E+00  0.000E+00  0.000E+00  4.55786E+01  1.809E-01  2.000E+01  2.000E+04 -2.717E-01
   1   16    8     1     8    1.4785E+05 -5.0354E+03   1.5289E+05  0.000E+00  0.000E+00  0.000E+00  4.51052E+01  1.848E-01  2.000E+01  2.000E+04 -2.518E-01
   1   16    9     1     9    1.5289E+05 -4.1868E+03   1.5707E+05  0.000E+00  0.000E+00  0.000E+00  4.46313E+01  1.881E-01  2.000E+01  2.000E+04 -2.093E-01
   1   16   10     1    10    1.5707E+05 -2.6756E+03   1.5975E+05  0.000E+00  0.000E+00  0.000E+00  4.41565E+01  1.906E-01  2.000E+01  2.000E+04 -1.338E-01
   1   16   11     1    11    1.5975E+05 -7.5997E+02   1.6051E+05  0.000E+00  0.000E+00  0.000E+00  4.36805E+01  1.919E-01  2.000E+01  2.000E+04 -3.800E-02
   1   16   12     1    12    1.6051E+05 -3.1180E+03   1.6363E+05  0.000E+00  0.000E+00  0.000E+00  4.32046E+01  1.933E-01  2.000E+01  2.000E+04 -1.559E-01
   1   15   13     1    13    1.6363E+05 -6.6478E+03   1.7027E+05  0.000E+00  0.000E+00  0.000E+00  4.27308E+01  1.967E-01  2.000E+01  2.000E+04 -3.324E-01
   1   14   14     1    14    1.7027E+05 -7.6794E+03   1.7795E+05  0.000E+00  0.000E+00  0.000E+00  4.22586E+01  2.018E-01  2.000E+01  2.000E+04 -3.840E-01
   1   13   15     1    15    1.7795E+05 -8.2624E+03   1.8622E+05  0.000E+00  0.000E+00  0.000E+00  4.17868E+01  2.072E-01  2.000E+01  2.000E+04 -4.131E-01
   1   12   16     1    16    1.8622E+05 -9.3090E+03   1.9552E+05  0.000E+00  0.000E+00  0.000E+00  4.13155E+01  2.132E-01  2.000E+01  2.000E+04 -4.654E-01
   1   12   17     1    17    1.9552E+05 -6.4876E+03   2.0201E+05  0.000E+00  0.000E+00  0.000E+00  4.08434E+01  2.184E-01  2.000E+01  2.000E+04 -3.244E-01
   1   12   18     1    18    2.0201E+05 -6.3224E+03   2.0833E+05  0.000E+00  0.000E+00  0.000E+00  4.03704E+01  2.226E-01  2.000E+01  2.000E+04 -3.161E-01
   1   12   19     1    19    2.0833E+05 -8.0488E+03   2.1638E+05  0.000E+00  0.000E+00  0.000E+00  3.98977E+01  2.273E-01  2.000E+01  2.000E+04 -4.024E-01
   1   13   20     1    20    2.1638E+05 -6.4325E+03   2.2282E+05  0.000E+00  0.000E+00  0.000E+00  3.94251E+01  2.319E-01  2.000E+01  2.000E+04 -3.216E-01
   1   14   21     1    21    2.2282E+05 -5.1070E+03   2.2792E+05  0.000E+00  0.000E+00  0.000E+00  3.89514E+01  2.355E-01  2.000E+01  2.000E+04 -2.553E-01
   1   14   22     1    22    2.2792E+05  4.3225E+03   2.2360E+05  0.000E+00  0.000E+00  0.000E+00  3.84744E+01  2.358E-01  2.000E+01  2.000E+04  2.161E-01
   1    9   30     2     1    5.0000E+04 -5.5708E+03   5.5571E+04  0.000E+00  0.000E+00  0.000E+00  4.02447E+01  1.197E-01  2.000E+01  2.000E+04 -2.785E-01
   1    9   29     2     2    5.5571E+04 -5.8698E+03   6.1441E+04  0.000E+00  0.000E+00  0.000E+00  4.00023E+01  1.273E-01  2.000E+01  2.000E+04 -2.935E-01
   1    9   28     2     3    6.1441E+04 -6.1940E+03   6.7635E+04  0.000E+00  0.000E+00  0.000E+00  3.97600E+01  1.350E-01  2.000E+01  2.000E+04 -3.097E-01
   1    9   27     2     4    6.7635E+04 -9.5872E+03   7.7222E+04  0.000E+00  0.000E+00  0.000E+00  3.95197E+01  1.447E-01  2.000E+01  2.000E+04 -4.794E-01
   1   10   26     2     5    7.7222E+04 -7.7172E+03   8.4939E+04  0.000E+00  0.000E+00  0.000E+00  3.92799E+01  1.549E-01  2.000E+01  2.000E+04 -3.859E-01
   1   11   25     2     6    8.4939E+04 -6.5908E+03   9.1530E+04  0.000E+00  0.000E+00  0.000E+00  3.90379E+01  1.629E-01  2.000E+01  2.000E+04 -3.295E-01
   1   12   24     2     7    9.1530E+04 -5.3302E+03   9.6860E+04  0.000E+00  0.000E+00  0.000E+00  3.87944E+01  1.694E-01  2.000E+01  2.000E+04 -2.665E-01
   1   13   23     2     8    9.6860E+04 -3.7795E+03   1.0064E+05  0.000E+00  0.000E+00  0.000E+00  3.85493E+01  1.743E-01  2.000E+01  2.000E+04 -1.890E-01
   1   14   22     2     9    1.0064E+05  8.5096E+02   9.9789E+04  0.000E+00  0.000E+00  0.000E+00  3.83008E+01  1.758E-01  2.000E+01  2.000E+04  4.255E-02
   1   14   22     3     1    3.2339E+05 -9.1590E+03   3.3255E+05  0.000E+00  0.000E+00  0.000E+00  3.78003E+01  2.448E-01  2.000E+01  2.000E+04 -4.579E-01
   1   15   23     3     2    3.3255E+05 -5.3534E+03   3.3790E+05  0.000E+00  0.000E+00  0.000E+00  3.69147E+01  2.480E-01  2.000E+01  2.000E+04 -2.677E-01
   1   15   24     3     3    3.3790E+05 -4.0057E+03   3.4191E+05  0.000E+00  0.000E+00  0.000E+00  3.60279E+01  2.501E-01  2.000E+01  2.000E+04 -2.003E-01
   1   15   25     3     4    3.4191E+05 -4.0941E+03   3.4600E+05  0.000E+00  0.000E+00  0.000E+00  3.51408E+01  2.519E-01  2.000E+01  2.000E+04 -2.047E-01
   1   15   26     3     5    3.4600E+05 -5.5108E+03   3.5151E+05  0.000E+00  0.000E+00  0.000E+00  3.42540E+01  2.540E-01  2.000E+01  2.000E+04 -2.755E-01
   1   16   27     3     6    3.5151E+05 -6.9439E+03   3.5846E+05  0.000E+00  0.000E+00  0.000E+00  3.33678E+01  2.567E-01  2.000E+01  2.000E+04 -3.472E-01
   1   17   28     3     7    3.5846E+05 -7.6906E+03   3.6615E+05  0.000E+00  0.000E+00  0.000E+00  3.24821E+01  2.599E-01  2.000E+01  2.000E+04 -3.845E-01
   1   18   29     3     8    3.6615E+05 -8.7142E+03   3.7486E+05  0.000E+00  0.000E+00  0.000E+00  3.15967E+01  2.634E-01  2.000E+01  2.000E+04 -4.357E-01
   1   18   30     3     9    3.7486E+05 -7.3633E+03   3.8222E+05  0.000E+00  0.000E+00  0.000E+00  3.07112E+01  2.668E-01  2.000E+01  2.000E+04 -3.682E-01



1
              HEAD IN LAYER   1 AT END OF TIME STEP   1 IN STRESS PERIOD    1
  ---------------------------------------------------------------------------

          1      2      3      4      5      6      7      8      9     10
         11     12     13     14     15     16     17     18     19     20
         21     22     23     24     25     26     27     28     29     30
 .........................................................................
   1  ****** ****** ****** ****** ****** ****** ****** ****** ****** ******
      ****** ****** ****** ****** ****** ****** ****** ****** ****** ******
      ****** ****** ****** ****** ****** ****** ****** ****** ****** ******
   2  ****** ****** ****** ****** ****** ****** ****** ****** ****** ******
      ****** ****** ****** ****** ****** ****** ****** ****** ****** ******
      ****** ****** ****** ****** ****** ****** ****** ****** ****** ******
   3  ****** ****** ****** ****** ****** ****** ****** ****** ****** ******
      ****** ****** ****** ****** ****** ****** ****** ****** ****** ******
      ****** ****** ****** ****** ****** ****** ****** ****** ****** ******
   4  ****** ****** ****** ****** ****** ****** ****** ****** ****** ******
      ****** ****** ****** ****** ****** ****** ****** ****** ****** ******
      ****** ****** ****** ****** ****** ****** ****** ****** ****** ******
   5  ****** ****** ****** ****** ****** ****** ****** ****** ****** ******
      ****** ****** ****** ****** ****** ****** ****** ****** ****** ******
      ****** ****** ****** ****** ****** ****** ****** ****** ****** ******
   6  ****** ****** ****** ****** ****** ****** ****** ****** ****** ******
      ****** ****** ****** ****** ****** ****** ****** ****** ****** ******
      ****** ****** ****** ****** ****** ****** ****** ****** ****** ******
   7  ****** ****** ****** ****** ****** ****** ****** ****** ****** ******
      ****** ****** ****** ****** ****** ****** ****** ****** ****** ******
      ****** ****** ****** ****** ****** ****** ****** ****** ****** ******
   8  ****** ****** ****** ****** ****** ****** ****** ****** ****** ******
      ****** ****** ****** ****** ****** ****** ****** ****** ****** ******
      ****** ****** ****** ****** ****** ****** ****** ****** ****** ******
   9  ****** ****** ****** ****** ****** ****** ****** ****** ****** ******
      ****** ****** ****** ****** ****** ****** ****** ****** ****** ******
      ****** ****** ****** ****** ****** ****** ****** ****** ****** ******
  10  ****** ****** ****** ****** ****** ****** ****** ****** ****** ******
      ****** ****** ****** ****** ****** ****** ****** ****** ****** ******
      ****** ****** ****** ****** ****** ****** ****** ****** ****** ******
  11  ****** ****** ****** ****** ****** ****** ****** ****** ****** ******
      ****** ****** ****** ****** ****** ****** ****** ****** ****** ******
      ****** ****** ****** ****** ****** ****** ****** ****** ****** ******
  12  ****** ****** ****** ****** ****** ****** ****** ****** ****** ******
      ****** ****** ****** ****** ****** ****** ****** ****** ****** ******
      ****** ****** ****** ****** ****** ****** ****** ****** ****** ******
  13  ****** ****** ****** ****** ****** ****** ****** ****** ****** ******
      ****** ****** ****** ****** ****** ****** ****** ****** ****** ******
      ****** ****** ****** ****** ****** ****** ****** ****** ****** ******
  14  ****** ****** ****** ****** ****** ****** ****** ****** ****** ******
      ****** ****** ****** ****** ****** ****** ****** ****** ****** ******
      ****** ****** ****** ****** ****** ****** ****** ****** ****** ******
  15  ****** ****** ****** ****** ****** ****** ****** ****** ****** ******
      ****** ****** ****** ****** ****** ****** ****** ****** ****** ******
      ****** ****** ****** ****** ****** ****** ****** ****** ****** ******
  16  ****** ****** ****** ****** ****** ****** ****** ****** ****** ******
      ****** ****** ****** ****** ****** ****** ****** ****** ****** ******
      ****** ****** ****** ****** ****** ****** ****** ****** ****** ******
  17  ****** ****** ****** ****** ****** ****** ****** ****** ****** ******
      ****** ****** ****** ****** ****** ****** ****** ****** ****** ******
      ****** ****** ****** ****** ****** ****** ****** ****** ****** ******
  18  ****** ****** ****** ****** ****** ****** ****** ****** ****** ******
      ****** ****** ****** ****** ****** ****** ****** ****** ****** ******
      ****** ****** ****** ****** ****** ****** ****** ****** ****** ******
  19  ****** ****** ****** ****** ****** ****** ****** ****** ****** ******
      ****** ****** ****** ****** ****** ****** ****** ****** ****** ******
      ****** ****** ****** ****** ****** ****** ****** ****** ****** ******
  20  ****** ****** ****** ****** ****** ****** ****** ****** ****** ******
      ****** ****** ****** ****** ****** ****** ****** ****** ****** ******
      ****** ****** ****** ****** ****** ****** ****** ****** ****** ******
  21  ****** ****** ****** ****** ****** ****** ****** ****** ****** ******
      ****** ****** ****** ****** ****** ****** ****** ****** ****** ******
      ****** ****** ****** ****** ****** ****** ****** ****** ****** ******
  22  ****** ****** ****** ****** ****** ****** ****** ****** ****** ******
      ****** ****** ****** ****** ****** ****** ****** ****** ****** ******
      ****** ****** ****** ****** ****** ****** ****** ****** ****** ******
  23  ****** ****** ****** ****** ****** ****** ****** ****** ****** ******
      ****** ****** ****** ****** ****** ****** ****** ****** ****** ******
      ****** ****** ****** ****** ****** ****** ****** ****** ****** ******
  24  ****** ****** ****** ****** ****** ****** ****** ****** ****** ******
      ****** ****** ****** ****** ****** ****** ****** ****** ****** ******
      ****** ****** ****** ****** ****** ****** ****** ****** ****** ******
  25  ****** ****** ****** ****** ****** ****** ****** ****** ****** ******
      ****** ****** ****** ****** ****** ****** ****** ****** ****** ******
      ****** ****** ****** ****** ****** ****** ****** ****** ****** ******

 HEAD WILL BE SAVED ON UNIT   51 AT END OF TIME STEP    1, STRESS PERIOD    1
1
  VOLUMETRIC BUDGET FOR ENTIRE MODEL AT END OF TIME STEP    1, STRESS PERIOD   1
  ------------------------------------------------------------------------------

     CUMULATIVE VOLUMES      L**3       RATES FOR THIS TIME STEP      L**3/T
     ------------------                 ------------------------

           IN:                                      IN:
           ---                                      ---
             STORAGE =    17567228.0219               STORAGE =      190948.1307
       CONSTANT HEAD =    11632798.0541         CONSTANT HEAD =      126443.4571
               WELLS =           0.0000                 WELLS =           0.0000
            RECHARGE =     1269600.0000              RECHARGE =       13800.0000
      STREAM LEAKAGE =      475956.8665        STREAM LEAKAGE =        5173.4442

            TOTAL IN =    30945582.9424              TOTAL IN =      336365.0320

          OUT:                                     OUT:
          ----                                     ----
             STORAGE =           0.0000               STORAGE =           0.0000
       CONSTANT HEAD =           0.0000         CONSTANT HEAD =           0.0000
               WELLS =     9105016.7473                 WELLS =       98967.5733
            RECHARGE =           0.0000              RECHARGE =           0.0000
      STREAM LEAKAGE =    21840566.3537        STREAM LEAKAGE =      237397.4604

           TOTAL OUT =    30945583.1010             TOTAL OUT =      336365.0337

            IN - OUT =          -0.1586              IN - OUT =      -1.7237E-03

 PERCENT DISCREPANCY =          -0.00     PERCENT DISCREPANCY =          -0.00






         TIME SUMMARY AT END OF TIME STEP    1 IN STRESS PERIOD    1
                    SECONDS     MINUTES      HOURS       DAYS        YEARS
                    -----------------------------------------------------------
   TIME STEP LENGTH 7.94880E+06 1.32480E+05  2208.0      92.000     0.25188    
 STRESS PERIOD TIME 7.94880E+06 1.32480E+05  2208.0      92.000     0.25188    
         TOTAL TIME 7.94880E+06 1.32480E+05  2208.0      92.000     0.25188    
1
1
                            STRESS PERIOD NO.    2, LENGTH =   91.00000    
                            -----------------------------------------------

                              NUMBER OF TIME STEPS =     1

                               MULTIPLIER FOR DELT =     1.500

                            INITIAL TIME STEP SIZE =   91.00000    

 WELL NO.  LAYER   ROW   COL   STRESS RATE         
 --------------------------------------------------
      1      1     18     11     -0.3279E+05
      2      1     23     22     -0.3365E+05
      3      1     23     15     -0.3252E+05

      3 WELLS

                 RECHARGE =  2.000000E-03

 REUSING STREAM SEGMENT DATA FROM LAST STRESS PERIOD
 
 SOLVING FOR HEAD 


     7 CALLS TO PCG ROUTINE FOR TIME STEP   1 IN STRESS PERIOD    2
    27 TOTAL ITERATIONS

 OUTPUT CONTROL FOR STRESS PERIOD    2   TIME STEP    1
    SAVE BUDGET
    SAVE HEAD FOR ALL LAYERS
    PRINT HEAD FOR ALL LAYERS
 UBDSV2 SAVING "STREAMFLOW OUT  " ON UNIT  50 AT TIME STEP  1, STRESS PERIOD   2



 STREAM LISTING     PERIOD      2   STEP        1

 LAYER ROW COL. STREAM  RCH.  FLOW INTO     FLOW TO   FLOW OUT OF   OVRLND.     DIRECT     STREAM       STREAM     STREAM     STREAM   STREAMBED  STREAMBED
                SEG.NO.  NO.  STRM. RCH.    AQUIFER    STRM. RCH.    RUNOFF     PRECIP       ET          HEAD       DEPTH      WIDTH   CONDCTNC.   GRADIENT

   1   13    1     1     1    1.0000E+05 -3.7981E+03   1.0380E+05  0.000E+00  0.000E+00  0.000E+00  4.84077E+01  1.463E-01  2.000E+01  2.000E+04 -1.899E-01
   1   13    2     1     2    1.0380E+05 -6.1571E+03   1.0996E+05  0.000E+00  0.000E+00  0.000E+00  4.79346E+01  1.505E-01  2.000E+01  2.000E+04 -3.079E-01
   1   14    3     1     3    1.0996E+05 -5.0555E+03   1.1501E+05  0.000E+00  0.000E+00  0.000E+00  4.74620E+01  1.552E-01  2.000E+01  2.000E+04 -2.528E-01
   1   15    4     1     4    1.1501E+05 -4.8046E+03   1.1982E+05  0.000E+00  0.000E+00  0.000E+00  4.69888E+01  1.593E-01  2.000E+01  2.000E+04 -2.402E-01
   1   16    5     1     5    1.1982E+05 -4.6416E+03   1.2446E+05  0.000E+00  0.000E+00  0.000E+00  4.65154E+01  1.631E-01  2.000E+01  2.000E+04 -2.321E-01
   1   16    6     1     6    1.2446E+05 -3.5030E+03   1.2796E+05  0.000E+00  0.000E+00  0.000E+00  4.60413E+01  1.663E-01  2.000E+01  2.000E+04 -1.751E-01
   1   16    7     1     7    1.2796E+05 -3.2786E+03   1.3124E+05  0.000E+00  0.000E+00  0.000E+00  4.55667E+01  1.690E-01  2.000E+01  2.000E+04 -1.639E-01
   1   16    8     1     8    1.3124E+05 -2.7761E+03   1.3401E+05  0.000E+00  0.000E+00  0.000E+00  4.50918E+01  1.714E-01  2.000E+01  2.000E+04 -1.388E-01
   1   16    9     1     9    1.3401E+05 -1.8146E+03   1.3583E+05  0.000E+00  0.000E+00  0.000E+00  4.46163E+01  1.731E-01  2.000E+01  2.000E+04 -9.073E-02
   1   16   10     1    10    1.3583E+05 -1.8722E+02   1.3602E+05  0.000E+00  0.000E+00  0.000E+00  4.41398E+01  1.739E-01  2.000E+01  2.000E+04 -9.361E-03
   1   16   11     1    11    1.3602E+05  1.8244E+03   1.3419E+05  0.000E+00  0.000E+00  0.000E+00  4.36619E+01  1.733E-01  2.000E+01  2.000E+04  9.122E-02
   1   16   12     1    12    1.3419E+05  2.5267E+02   1.3394E+05  0.000E+00  0.000E+00  0.000E+00  4.31838E+01  1.725E-01  2.000E+01  2.000E+04  1.263E-02
   1   15   13     1    13    1.3394E+05 -3.2500E+03   1.3719E+05  0.000E+00  0.000E+00  0.000E+00  4.27077E+01  1.736E-01  2.000E+01  2.000E+04 -1.625E-01
   1   14   14     1    14    1.3719E+05 -4.3409E+03   1.4153E+05  0.000E+00  0.000E+00  0.000E+00  4.22333E+01  1.765E-01  2.000E+01  2.000E+04 -2.170E-01
   1   13   15     1    15    1.4153E+05 -5.0928E+03   1.4662E+05  0.000E+00  0.000E+00  0.000E+00  4.17596E+01  1.801E-01  2.000E+01  2.000E+04 -2.546E-01
   1   12   16     1    16    1.4662E+05 -6.6331E+03   1.5326E+05  0.000E+00  0.000E+00  0.000E+00  4.12867E+01  1.844E-01  2.000E+01  2.000E+04 -3.317E-01
   1   12   17     1    17    1.5326E+05 -4.2911E+03   1.5755E+05  0.000E+00  0.000E+00  0.000E+00  4.08135E+01  1.885E-01  2.000E+01  2.000E+04 -2.146E-01
   1   12   18     1    18    1.5755E+05 -4.1344E+03   1.6168E+05  0.000E+00  0.000E+00  0.000E+00  4.03392E+01  1.915E-01  2.000E+01  2.000E+04 -2.067E-01
   1   12   19     1    19    1.6168E+05 -5.4568E+03   1.6714E+05  0.000E+00  0.000E+00  0.000E+00  3.98654E+01  1.949E-01  2.000E+01  2.000E+04 -2.728E-01
   1   13   20     1    20    1.6714E+05 -3.5630E+03   1.7070E+05  0.000E+00  0.000E+00  0.000E+00  3.93913E+01  1.981E-01  2.000E+01  2.000E+04 -1.782E-01
   1   14   21     1    21    1.7070E+05 -2.4546E+03   1.7316E+05  0.000E+00  0.000E+00  0.000E+00  3.89161E+01  2.002E-01  2.000E+01  2.000E+04 -1.227E-01
   1   14   22     1    22    1.7316E+05  4.8769E+03   1.6828E+05  0.000E+00  0.000E+00  0.000E+00  3.84380E+01  1.994E-01  2.000E+01  2.000E+04  2.438E-01
   1    9   30     2     1    5.0000E+04 -3.4569E+03   5.3457E+04  0.000E+00  0.000E+00  0.000E+00  4.02433E+01  1.183E-01  2.000E+01  2.000E+04 -1.728E-01
   1    9   29     2     2    5.3457E+04 -3.7810E+03   5.7238E+04  0.000E+00  0.000E+00  0.000E+00  3.99981E+01  1.231E-01  2.000E+01  2.000E+04 -1.891E-01
   1    9   28     2     3    5.7238E+04 -4.1569E+03   6.1395E+04  0.000E+00  0.000E+00  0.000E+00  3.97534E+01  1.284E-01  2.000E+01  2.000E+04 -2.078E-01
   1    9   27     2     4    6.1395E+04 -7.1634E+03   6.8558E+04  0.000E+00  0.000E+00  0.000E+00  3.95106E+01  1.356E-01  2.000E+01  2.000E+04 -3.582E-01
   1   10   26     2     5    6.8558E+04 -4.8326E+03   7.3391E+04  0.000E+00  0.000E+00  0.000E+00  3.92680E+01  1.430E-01  2.000E+01  2.000E+04 -2.416E-01
   1   11   25     2     6    7.3391E+04 -3.7350E+03   7.7126E+04  0.000E+00  0.000E+00  0.000E+00  3.90231E+01  1.481E-01  2.000E+01  2.000E+04 -1.868E-01
   1   12   24     2     7    7.7126E+04 -2.7412E+03   7.9867E+04  0.000E+00  0.000E+00  0.000E+00  3.87769E+01  1.519E-01  2.000E+01  2.000E+04 -1.371E-01
   1   13   23     2     8    7.9867E+04 -1.6892E+03   8.1556E+04  0.000E+00  0.000E+00  0.000E+00  3.85294E+01  1.544E-01  2.000E+01  2.000E+04 -8.446E-02
   1   14   22     2     9    8.1556E+04  1.7050E+03   7.9851E+04  0.000E+00  0.000E+00  0.000E+00  3.82794E+01  1.544E-01  2.000E+01  2.000E+04  8.525E-02
   1   14   22     3     1    2.4813E+05 -8.5882E+03   2.5672E+05  0.000E+00  0.000E+00  0.000E+00  3.77648E+01  2.092E-01  2.000E+01  2.000E+04 -4.294E-01
   1   15   23     3     2    2.5672E+05 -2.8902E+03   2.5961E+05  0.000E+00  0.000E+00  0.000E+00  3.68787E+01  2.120E-01  2.000E+01  2.000E+04 -1.445E-01
   1   15   24     3     3    2.5961E+05 -2.1154E+03   2.6172E+05  0.000E+00  0.000E+00  0.000E+00  3.59911E+01  2.133E-01  2.000E+01  2.000E+04 -1.058E-01
   1   15   25     3     4    2.6172E+05 -2.1205E+03   2.6384E+05  0.000E+00  0.000E+00  0.000E+00  3.51032E+01  2.143E-01  2.000E+01  2.000E+04 -1.060E-01
   1   15   26     3     5    2.6384E+05 -2.8156E+03   2.6666E+05  0.000E+00  0.000E+00  0.000E+00  3.42155E+01  2.155E-01  2.000E+01  2.000E+04 -1.408E-01
   1   16   27     3     6    2.6666E+05 -3.7265E+03   2.7039E+05  0.000E+00  0.000E+00  0.000E+00  3.33282E+01  2.171E-01  2.000E+01  2.000E+04 -1.863E-01
   1   17   28     3     7    2.7039E+05 -4.5088E+03   2.7490E+05  0.000E+00  0.000E+00  0.000E+00  3.24413E+01  2.191E-01  2.000E+01  2.000E+04 -2.254E-01
   1   18   29     3     8    2.7490E+05 -6.0549E+03   2.8095E+05  0.000E+00  0.000E+00  0.000E+00  3.15550E+01  2.216E-01  2.000E+01  2.000E+04 -3.027E-01
   1   18   30     3     9    2.8095E+05 -5.1920E+03   2.8614E+05  0.000E+00  0.000E+00  0.000E+00  3.06688E+01  2.243E-01  2.000E+01  2.000E+04 -2.596E-01



1
              HEAD IN LAYER   1 AT END OF TIME STEP   1 IN STRESS PERIOD    2
  ---------------------------------------------------------------------------

          1      2      3      4      5      6      7      8      9     10
         11     12     13     14     15     16     17     18     19     20
         21     22     23     24     25     26     27     28     29     30
 .........................................................................
   1  ****** ****** ****** ****** ****** ****** ****** ****** ****** ******
      ****** ****** ****** ****** ****** ****** ****** ****** ****** ******
      ****** ****** ****** ****** ****** ****** ****** ****** ****** ******
   2  ****** ****** ****** ****** ****** ****** ****** ****** ****** ******
      ****** ****** ****** ****** ****** ****** ****** ****** ****** ******
      ****** ****** ****** ****** ****** ****** ****** ****** ****** ******
   3  ****** ****** ****** ****** ****** ****** ****** ****** ****** ******
      ****** ****** ****** ****** ****** ****** ****** ****** ****** ******
      ****** ****** ****** ****** ****** ****** ****** ****** ****** ******
   4  ****** ****** ****** ****** ****** ****** ****** ****** ****** ******
      ****** ****** ****** ****** ****** ****** ****** ****** ****** ******
      ****** ****** ****** ****** ****** ****** ****** ****** ****** ******
   5  ****** ****** ****** ****** ****** ****** ****** ****** ****** ******
      ****** ****** ****** ****** ****** ****** ****** ****** ****** ******
      ****** ****** ****** ****** ****** ****** ****** ****** ****** ******
   6  ****** ****** ****** ****** ****** ****** ****** ****** ****** ******
      ****** ****** ****** ****** ****** ****** ****** ****** ****** ******
      ****** ****** ****** ****** ****** ****** ****** ****** ****** ******
   7  ****** ****** ****** ****** ****** ****** ****** ****** ****** ******
      ****** ****** ****** ****** ****** ****** ****** ****** ****** ******
      ****** ****** ****** ****** ****** ****** ****** ****** ****** ******
   8  ****** ****** ****** ****** ****** ****** ****** ****** ****** ******
      ****** ****** ****** ****** ****** ****** ****** ****** ****** ******
      ****** ****** ****** ****** ****** ****** ****** ****** ****** ******
   9  ****** ****** ****** ****** ****** ****** ****** ****** ****** ******
      ****** ****** ****** ****** ****** ****** ****** ****** ****** ******
      ****** ****** ****** ****** ****** ****** ****** ****** ****** ******
  10  ****** ****** ****** ****** ****** ****** ****** ****** ****** ******
      ****** ****** ****** ****** ****** ****** ****** ****** ****** ******
      ****** ****** ****** ****** ****** ****** ****** ****** ****** ******
  11  ****** ****** ****** ****** ****** ****** ****** ****** ****** ******
      ****** ****** ****** ****** ****** ****** ****** ****** ****** ******
      ****** ****** ****** ****** ****** ****** ****** ****** ****** ******
  12  ****** ****** ****** ****** ****** ****** ****** ****** ****** ******
      ****** ****** ****** ****** ****** ****** ****** ****** ****** ******
      ****** ****** ****** ****** ****** ****** ****** ****** ****** ******
  13  ****** ****** ****** ****** ****** ****** ****** ****** ****** ******
      ****** ****** ****** ****** ****** ****** ****** ****** ****** ******
      ****** ****** ****** ****** ****** ****** ****** ****** ****** ******
  14  ****** ****** ****** ****** ****** ****** ****** ****** ****** ******
      ****** ****** ****** ****** ****** ****** ****** ****** ****** ******
      ****** ****** ****** ****** ****** ****** ****** ****** ****** ******
  15  ****** ****** ****** ****** ****** ****** ****** ****** ****** ******
      ****** ****** ****** ****** ****** ****** ****** ****** ****** ******
      ****** ****** ****** ****** ****** ****** ****** ****** ****** ******
  16  ****** ****** ****** ****** ****** ****** ****** ****** ****** ******
      ****** ****** ****** ****** ****** ****** ****** ****** ****** ******
      ****** ****** ****** ****** ****** ****** ****** ****** ****** ******
  17  ****** ****** ****** ****** ****** ****** ****** ****** ****** ******
      ****** ****** ****** ****** ****** ****** ****** ****** ****** ******
      ****** ****** ****** ****** ****** ****** ****** ****** ****** ******
  18  ****** ****** ****** ****** ****** ****** ****** ****** ****** ******
      ****** ****** ****** ****** ****** ****** ****** ****** ****** ******
      ****** ****** ****** ****** ****** ****** ****** ****** ****** ******
  19  ****** ****** ****** ****** ****** ****** ****** ****** ****** ******
      ****** ****** ****** ****** ****** ****** ****** ****** ****** ******
      ****** ****** ****** ****** ****** ****** ****** ****** ****** ******
  20  ****** ****** ****** ****** ****** ****** ****** ****** ****** ******
      ****** ****** ****** ****** ****** ****** ****** ****** ****** ******
      ****** ****** ****** ****** ****** ****** ****** ****** ****** ******
  21  ****** ****** ****** ****** ****** ****** ****** ****** ****** ******
      ****** ****** ****** ****** ****** ****** ****** ****** ****** ******
      ****** ****** ****** ****** ****** ****** ****** ****** ****** ******
  22  ****** ****** ****** ****** ****** ****** ****** ****** ****** ******
      ****** ****** ****** ****** ****** ****** ****** ****** ****** ******
      ****** ****** ****** ****** ****** ****** ****** ****** ****** ******
  23  ****** ****** ****** ****** ****** ****** ****** ****** ****** ******
      ****** ****** ****** ****** ****** ****** ****** ****** ****** ******
      ****** ****** ****** ****** ****** ****** ****** ****** ****** ******
  24  ****** ****** ****** ****** ****** ****** ****** ****** ****** ******
      ****** ****** ****** ****** ****** ****** ****** ****** ****** ******
      ****** ****** ****** ****** ****** ****** ****** ****** ****** ******
  25  ****** ****** ****** ****** ****** ****** ****** ****** ****** ******
      ****** ****** ****** ****** ****** ****** ****** ****** ****** ******
      ****** ****** ****** ****** ****** ****** ****** ****** ****** ******

 HEAD WILL BE SAVED ON UNIT   51 AT END OF TIME STEP    1, STRESS PERIOD    2
1
  VOLUMETRIC BUDGET FOR ENTIRE MODEL AT END OF TIME STEP    1, STRESS PERIOD   2
  ------------------------------------------------------------------------------

     CUMULATIVE VOLUMES      L**3       RATES FOR THIS TIME STEP      L**3/T
     ------------------                 ------------------------

           IN:                                      IN:
           ---                                      ---
             STORAGE =    20652544.6266               STORAGE =       33904.5781
       CONSTANT HEAD =    24919304.5854         CONSTANT HEAD =      146005.5663
               WELLS =           0.0000                 WELLS =           0.0000
            RECHARGE =     6292800.0000              RECHARGE =       55200.0000
      STREAM LEAKAGE =     1263927.0235        STREAM LEAKAGE =        8659.0127

            TOTAL IN =    53128576.2354              TOTAL IN =      243769.1571

          OUT:                                     OUT:
          ----                                     ----
             STORAGE =           0.0000               STORAGE =           0.0000
       CONSTANT HEAD =           0.0000         CONSTANT HEAD =           0.0000
               WELLS =    18111065.9213                 WELLS =       98967.5733
            RECHARGE =           0.0000              RECHARGE =           0.0000
      STREAM LEAKAGE =    35017510.9793        STREAM LEAKAGE =      144801.5893

           TOTAL OUT =    53128576.9005             TOTAL OUT =      243769.1626

            IN - OUT =          -0.6651              IN - OUT =      -5.5663E-03

 PERCENT DISCREPANCY =          -0.00     PERCENT DISCREPANCY =          -0.00






         TIME SUMMARY AT END OF TIME STEP    1 IN STRESS PERIOD    2
                    SECONDS     MINUTES      HOURS       DAYS        YEARS
                    -----------------------------------------------------------
   TIME STEP LENGTH 7.86240E+06 1.31040E+05  2184.0      91.000     0.24914    
 STRESS PERIOD TIME 7.86240E+06 1.31040E+05  2184.0      91.000     0.24914    
         TOTAL TIME 1.58112E+07 2.63520E+05  4392.0      183.00     0.50103    
1
1
                            STRESS PERIOD NO.    3, LENGTH =   91.00000    
                            -----------------------------------------------

                              NUMBER OF TIME STEPS =     1

                               MULTIPLIER FOR DELT =     1.500

                            INITIAL TIME STEP SIZE =   91.00000    

 WELL NO.  LAYER   ROW   COL   STRESS RATE         
 --------------------------------------------------
      1      1     18     11     -0.3279E+05
      2      1     23     22     -0.3365E+05
      3      1     23     15     -0.3252E+05

      3 WELLS

                 RECHARGE =   0.00000    

 REUSING STREAM SEGMENT DATA FROM LAST STRESS PERIOD
 
 SOLVING FOR HEAD 


     7 CALLS TO PCG ROUTINE FOR TIME STEP   1 IN STRESS PERIOD    3
    27 TOTAL ITERATIONS

 OUTPUT CONTROL FOR STRESS PERIOD    3   TIME STEP    1
    SAVE BUDGET
    SAVE HEAD FOR ALL LAYERS
    PRINT HEAD FOR ALL LAYERS
 UBDSV2 SAVING "STREAMFLOW OUT  " ON UNIT  50 AT TIME STEP  1, STRESS PERIOD   3



 STREAM LISTING     PERIOD      3   STEP        1

 LAYER ROW COL. STREAM  RCH.  FLOW INTO     FLOW TO   FLOW OUT OF   OVRLND.     DIRECT     STREAM       STREAM     STREAM     STREAM   STREAMBED  STREAMBED
                SEG.NO.  NO.  STRM. RCH.    AQUIFER    STRM. RCH.    RUNOFF     PRECIP       ET          HEAD       DEPTH      WIDTH   CONDCTNC.   GRADIENT

   1   13    1     1     1    1.0000E+05 -2.8775E+03   1.0288E+05  0.000E+00  0.000E+00  0.000E+00  4.84073E+01  1.459E-01  2.000E+01  2.000E+04 -1.439E-01
   1   13    2     1     2    1.0288E+05 -4.9027E+03   1.0778E+05  0.000E+00  0.000E+00  0.000E+00  4.79333E+01  1.492E-01  2.000E+01  2.000E+04 -2.451E-01
   1   14    3     1     3    1.0778E+05 -3.7955E+03   1.1158E+05  0.000E+00  0.000E+00  0.000E+00  4.74597E+01  1.529E-01  2.000E+01  2.000E+04 -1.898E-01
   1   15    4     1     4    1.1158E+05 -3.5539E+03   1.1513E+05  0.000E+00  0.000E+00  0.000E+00  4.69855E+01  1.559E-01  2.000E+01  2.000E+04 -1.777E-01
   1   16    5     1     5    1.1513E+05 -3.4741E+03   1.1860E+05  0.000E+00  0.000E+00  0.000E+00  4.65111E+01  1.588E-01  2.000E+01  2.000E+04 -1.737E-01
   1   16    6     1     6    1.1860E+05 -2.5801E+03   1.2118E+05  0.000E+00  0.000E+00  0.000E+00  4.60363E+01  1.613E-01  2.000E+01  2.000E+04 -1.290E-01
   1   16    7     1     7    1.2118E+05 -2.3249E+03   1.2351E+05  0.000E+00  0.000E+00  0.000E+00  4.55610E+01  1.633E-01  2.000E+01  2.000E+04 -1.162E-01
   1   16    8     1     8    1.2351E+05 -1.7962E+03   1.2530E+05  0.000E+00  0.000E+00  0.000E+00  4.50854E+01  1.649E-01  2.000E+01  2.000E+04 -8.981E-02
   1   16    9     1     9    1.2530E+05 -8.1713E+02   1.2612E+05  0.000E+00  0.000E+00  0.000E+00  4.46091E+01  1.659E-01  2.000E+01  2.000E+04 -4.086E-02
   1   16   10     1    10    1.2612E+05  8.1924E+02   1.2530E+05  0.000E+00  0.000E+00  0.000E+00  4.41318E+01  1.659E-01  2.000E+01  2.000E+04  4.096E-02
   1   16   11     1    11    1.2530E+05  2.8381E+03   1.2246E+05  0.000E+00  0.000E+00  0.000E+00  4.36531E+01  1.645E-01  2.000E+01  2.000E+04  1.419E-01
   1   16   12     1    12    1.2246E+05  1.6445E+03   1.2082E+05  0.000E+00  0.000E+00  0.000E+00  4.31741E+01  1.627E-01  2.000E+01  2.000E+04  8.223E-02
   1   15   13     1    13    1.2082E+05 -1.8039E+03   1.2262E+05  0.000E+00  0.000E+00  0.000E+00  4.26969E+01  1.628E-01  2.000E+01  2.000E+04 -9.019E-02
   1   14   14     1    14    1.2262E+05 -2.8957E+03   1.2552E+05  0.000E+00  0.000E+00  0.000E+00  4.22215E+01  1.646E-01  2.000E+01  2.000E+04 -1.448E-01
   1   13   15     1    15    1.2552E+05 -3.7096E+03   1.2923E+05  0.000E+00  0.000E+00  0.000E+00  4.17468E+01  1.673E-01  2.000E+01  2.000E+04 -1.855E-01
   1   12   16     1    16    1.2923E+05 -5.3514E+03   1.3458E+05  0.000E+00  0.000E+00  0.000E+00  4.12731E+01  1.708E-01  2.000E+01  2.000E+04 -2.676E-01
   1   12   17     1    17    1.3458E+05 -3.3466E+03   1.3793E+05  0.000E+00  0.000E+00  0.000E+00  4.07992E+01  1.742E-01  2.000E+01  2.000E+04 -1.673E-01
   1   12   18     1    18    1.3793E+05 -3.2110E+03   1.4114E+05  0.000E+00  0.000E+00  0.000E+00  4.03244E+01  1.767E-01  2.000E+01  2.000E+04 -1.606E-01
   1   12   19     1    19    1.4114E+05 -4.3520E+03   1.4549E+05  0.000E+00  0.000E+00  0.000E+00  3.98500E+01  1.795E-01  2.000E+01  2.000E+04 -2.176E-01
   1   13   20     1    20    1.4549E+05 -2.4555E+03   1.4795E+05  0.000E+00  0.000E+00  0.000E+00  3.93752E+01  1.821E-01  2.000E+01  2.000E+04 -1.228E-01
   1   14   21     1    21    1.4795E+05 -1.3623E+03   1.4931E+05  0.000E+00  0.000E+00  0.000E+00  3.88994E+01  1.835E-01  2.000E+01  2.000E+04 -6.811E-02
   1   14   22     1    22    1.4931E+05  5.0384E+03   1.4427E+05  0.000E+00  0.000E+00  0.000E+00  3.84207E+01  1.821E-01  2.000E+01  2.000E+04  2.519E-01
   1    9   30     2     1    5.0000E+04 -2.6898E+03   5.2690E+04  0.000E+00  0.000E+00  0.000E+00  4.02427E+01  1.177E-01  2.000E+01  2.000E+04 -1.345E-01
   1    9   29     2     2    5.2690E+04 -3.0240E+03   5.5714E+04  0.000E+00  0.000E+00  0.000E+00  3.99966E+01  1.216E-01  2.000E+01  2.000E+04 -1.512E-01
   1    9   28     2     3    5.5714E+04 -3.4110E+03   5.9125E+04  0.000E+00  0.000E+00  0.000E+00  3.97509E+01  1.259E-01  2.000E+01  2.000E+04 -1.705E-01
   1    9   27     2     4    5.9125E+04 -6.1559E+03   6.5281E+04  0.000E+00  0.000E+00  0.000E+00  3.95071E+01  1.321E-01  2.000E+01  2.000E+04 -3.078E-01
   1   10   26     2     5    6.5281E+04 -3.7666E+03   6.9047E+04  0.000E+00  0.000E+00  0.000E+00  3.92633E+01  1.383E-01  2.000E+01  2.000E+04 -1.883E-01
   1   11   25     2     6    6.9047E+04 -2.7186E+03   7.1766E+04  0.000E+00  0.000E+00  0.000E+00  3.90173E+01  1.423E-01  2.000E+01  2.000E+04 -1.359E-01
   1   12   24     2     7    7.1766E+04 -1.8683E+03   7.3634E+04  0.000E+00  0.000E+00  0.000E+00  3.87700E+01  1.450E-01  2.000E+01  2.000E+04 -9.342E-02
   1   13   23     2     8    7.3634E+04 -1.0422E+03   7.4676E+04  0.000E+00  0.000E+00  0.000E+00  3.85218E+01  1.468E-01  2.000E+01  2.000E+04 -5.211E-02
   1   14   22     2     9    7.4676E+04  2.0470E+03   7.2629E+04  0.000E+00  0.000E+00  0.000E+00  3.82712E+01  1.462E-01  2.000E+01  2.000E+04  1.023E-01
   1   14   22     3     1    2.1690E+05 -8.4011E+03   2.2530E+05  0.000E+00  0.000E+00  0.000E+00  3.77488E+01  1.932E-01  2.000E+01  2.000E+04 -4.201E-01
   1   15   23     3     2    2.2530E+05 -1.8705E+03   2.2717E+05  0.000E+00  0.000E+00  0.000E+00  3.68626E+01  1.959E-01  2.000E+01  2.000E+04 -9.352E-02
   1   15   24     3     3    2.2717E+05 -1.4453E+03   2.2862E+05  0.000E+00  0.000E+00  0.000E+00  3.59745E+01  1.968E-01  2.000E+01  2.000E+04 -7.226E-02
   1   15   25     3     4    2.2862E+05 -1.4695E+03   2.3009E+05  0.000E+00  0.000E+00  0.000E+00  3.50864E+01  1.975E-01  2.000E+01  2.000E+04 -7.348E-02
   1   15   26     3     5    2.3009E+05 -1.9644E+03   2.3205E+05  0.000E+00  0.000E+00  0.000E+00  3.41984E+01  1.984E-01  2.000E+01  2.000E+04 -9.822E-02
   1   16   27     3     6    2.3205E+05 -2.6195E+03   2.3467E+05  0.000E+00  0.000E+00  0.000E+00  3.33107E+01  1.996E-01  2.000E+01  2.000E+04 -1.310E-01
   1   17   28     3     7    2.3467E+05 -3.3877E+03   2.3806E+05  0.000E+00  0.000E+00  0.000E+00  3.24233E+01  2.011E-01  2.000E+01  2.000E+04 -1.694E-01
   1   18   29     3     8    2.3806E+05 -5.0257E+03   2.4308E+05  0.000E+00  0.000E+00  0.000E+00  3.15366E+01  2.033E-01  2.000E+01  2.000E+04 -2.513E-01
   1   18   30     3     9    2.4308E+05 -4.4440E+03   2.4753E+05  0.000E+00  0.000E+00  0.000E+00  3.06501E+01  2.056E-01  2.000E+01  2.000E+04 -2.222E-01



1
              HEAD IN LAYER   1 AT END OF TIME STEP   1 IN STRESS PERIOD    3
  ---------------------------------------------------------------------------

          1      2      3      4      5      6      7      8      9     10
         11     12     13     14     15     16     17     18     19     20
         21     22     23     24     25     26     27     28     29     30
 .........................................................................
   1  ****** ****** ****** ****** ****** ****** ****** ****** ****** ******
      ****** ****** ****** ****** ****** ****** ****** ****** ****** ******
      ****** ****** ****** ****** ****** ****** ****** ****** ****** ******
   2  ****** ****** ****** ****** ****** ****** ****** ****** ****** ******
      ****** ****** ****** ****** ****** ****** ****** ****** ****** ******
      ****** ****** ****** ****** ****** ****** ****** ****** ****** ******
   3  ****** ****** ****** ****** ****** ****** ****** ****** ****** ******
      ****** ****** ****** ****** ****** ****** ****** ****** ****** ******
      ****** ****** ****** ****** ****** ****** ****** ****** ****** ******
   4  ****** ****** ****** ****** ****** ****** ****** ****** ****** ******
      ****** ****** ****** ****** ****** ****** ****** ****** ****** ******
      ****** ****** ****** ****** ****** ****** ****** ****** ****** ******
   5  ****** ****** ****** ****** ****** ****** ****** ****** ****** ******
      ****** ****** ****** ****** ****** ****** ****** ****** ****** ******
      ****** ****** ****** ****** ****** ****** ****** ****** ****** ******
   6  ****** ****** ****** ****** ****** ****** ****** ****** ****** ******
      ****** ****** ****** ****** ****** ****** ****** ****** ****** ******
      ****** ****** ****** ****** ****** ****** ****** ****** ****** ******
   7  ****** ****** ****** ****** ****** ****** ****** ****** ****** ******
      ****** ****** ****** ****** ****** ****** ****** ****** ****** ******
      ****** ****** ****** ****** ****** ****** ****** ****** ****** ******
   8  ****** ****** ****** ****** ****** ****** ****** ****** ****** ******
      ****** ****** ****** ****** ****** ****** ****** ****** ****** ******
      ****** ****** ****** ****** ****** ****** ****** ****** ****** ******
   9  ****** ****** ****** ****** ****** ****** ****** ****** ****** ******
      ****** ****** ****** ****** ****** ****** ****** ****** ****** ******
      ****** ****** ****** ****** ****** ****** ****** ****** ****** ******
  10  ****** ****** ****** ****** ****** ****** ****** ****** ****** ******
      ****** ****** ****** ****** ****** ****** ****** ****** ****** ******
      ****** ****** ****** ****** ****** ****** ****** ****** ****** ******
  11  ****** ****** ****** ****** ****** ****** ****** ****** ****** ******
      ****** ****** ****** ****** ****** ****** ****** ****** ****** ******
      ****** ****** ****** ****** ****** ****** ****** ****** ****** ******
  12  ****** ****** ****** ****** ****** ****** ****** ****** ****** ******
      ****** ****** ****** ****** ****** ****** ****** ****** ****** ******
      ****** ****** ****** ****** ****** ****** ****** ****** ****** ******
  13  ****** ****** ****** ****** ****** ****** ****** ****** ****** ******
      ****** ****** ****** ****** ****** ****** ****** ****** ****** ******
      ****** ****** ****** ****** ****** ****** ****** ****** ****** ******
  14  ****** ****** ****** ****** ****** ****** ****** ****** ****** ******
      ****** ****** ****** ****** ****** ****** ****** ****** ****** ******
      ****** ****** ****** ****** ****** ****** ****** ****** ****** ******
  15  ****** ****** ****** ****** ****** ****** ****** ****** ****** ******
      ****** ****** ****** ****** ****** ****** ****** ****** ****** ******
      ****** ****** ****** ****** ****** ****** ****** ****** ****** ******
  16  ****** ****** ****** ****** ****** ****** ****** ****** ****** ******
      ****** ****** ****** ****** ****** ****** ****** ****** ****** ******
      ****** ****** ****** ****** ****** ****** ****** ****** ****** ******
  17  ****** ****** ****** ****** ****** ****** ****** ****** ****** ******
      ****** ****** ****** ****** ****** ****** ****** ****** ****** ******
      ****** ****** ****** ****** ****** ****** ****** ****** ****** ******
  18  ****** ****** ****** ****** ****** ****** ****** ****** ****** ******
      ****** ****** ****** ****** ****** ****** ****** ****** ****** ******
      ****** ****** ****** ****** ****** ****** ****** ****** ****** ******
  19  ****** ****** ****** ****** ****** ****** ****** ****** ****** ******
      ****** ****** ****** ****** ****** ****** ****** ****** ****** ******
      ****** ****** ****** ****** ****** ****** ****** ****** ****** ******
  20  ****** ****** ****** ****** ****** ****** ****** ****** ****** ******
      ****** ****** ****** ****** ****** ****** ****** ****** ****** ******
      ****** ****** ****** ****** ****** ****** ****** ****** ****** ******
  21  ****** ****** ****** ****** ****** ****** ****** ****** ****** ******
      ****** ****** ****** ****** ****** ****** ****** ****** ****** ******
      ****** ****** ****** ****** ****** ****** ****** ****** ****** ******
  22  ****** ****** ****** ****** ****** ****** ****** ****** ****** ******
      ****** ****** ****** ****** ****** ****** ****** ****** ****** ******
      ****** ****** ****** ****** ****** ****** ****** ****** ****** ******
  23  ****** ****** ****** ****** ****** ****** ****** ****** ****** ******
      ****** ****** ****** ****** ****** ****** ****** ****** ****** ******
      ****** ****** ****** ****** ****** ****** ****** ****** ****** ******
  24  ****** ****** ****** ****** ****** ****** ****** ****** ****** ******
      ****** ****** ****** ****** ****** ****** ****** ****** ****** ******
      ****** ****** ****** ****** ****** ****** ****** ****** ****** ******
  25  ****** ****** ****** ****** ****** ****** ****** ****** ****** ******
      ****** ****** ****** ****** ****** ****** ****** ****** ****** ******
      ****** ****** ****** ****** ****** ****** ****** ****** ****** ******

 HEAD WILL BE SAVED ON UNIT   51 AT END OF TIME STEP    1, STRESS PERIOD    3
1
  VOLUMETRIC BUDGET FOR ENTIRE MODEL AT END OF TIME STEP    1, STRESS PERIOD   3
  ------------------------------------------------------------------------------

     CUMULATIVE VOLUMES      L**3       RATES FOR THIS TIME STEP      L**3/T
     ------------------                 ------------------------

           IN:                                      IN:
           ---                                      ---
             STORAGE =    23054683.5561               STORAGE =       26397.1311
       CONSTANT HEAD =    40398143.1610         CONSTANT HEAD =      170097.1272
               WELLS =           0.0000                 WELLS =           0.0000
            RECHARGE =     6292800.0000              RECHARGE =           0.0000
      STREAM LEAKAGE =     2391165.6289        STREAM LEAKAGE =       12387.2374

            TOTAL IN =    72136792.3460              TOTAL IN =      208881.4957

          OUT:                                     OUT:
          ----                                     ----
             STORAGE =           0.0000               STORAGE =           0.0000
       CONSTANT HEAD =           0.0000         CONSTANT HEAD =           0.0000
               WELLS =    27117115.0952                 WELLS =       98967.5733
            RECHARGE =           0.0000              RECHARGE =           0.0000
      STREAM LEAKAGE =    45019678.1806        STREAM LEAKAGE =      109913.9253

           TOTAL OUT =    72136793.2758             TOTAL OUT =      208881.4986

            IN - OUT =          -0.9298              IN - OUT =      -2.9090E-03

 PERCENT DISCREPANCY =          -0.00     PERCENT DISCREPANCY =          -0.00






         TIME SUMMARY AT END OF TIME STEP    1 IN STRESS PERIOD    3
                    SECONDS     MINUTES      HOURS       DAYS        YEARS
                    -----------------------------------------------------------
   TIME STEP LENGTH 7.86240E+06 1.31040E+05  2184.0      91.000     0.24914    
 STRESS PERIOD TIME 7.86240E+06 1.31040E+05  2184.0      91.000     0.24914    
         TOTAL TIME 2.36736E+07 3.94560E+05  6576.0      274.00     0.75017    
1
1
                            STRESS PERIOD NO.    4, LENGTH =   91.00000    
                            -----------------------------------------------

                              NUMBER OF TIME STEPS =     1

                               MULTIPLIER FOR DELT =     1.500

                            INITIAL TIME STEP SIZE =   91.00000    

 WELL NO.  LAYER   ROW   COL   STRESS RATE         
 --------------------------------------------------
      1      1     18     11     -0.3279E+05
      2      1     23     22     -0.3365E+05
      3      1     23     15     -0.3252E+05

      3 WELLS

                 RECHARGE =  1.000000E-03

 REUSING STREAM SEGMENT DATA FROM LAST STRESS PERIOD
 
 SOLVING FOR HEAD 


     6 CALLS TO PCG ROUTINE FOR TIME STEP   1 IN STRESS PERIOD    4
    21 TOTAL ITERATIONS

 OUTPUT CONTROL FOR STRESS PERIOD    4   TIME STEP    1
    SAVE BUDGET
    SAVE HEAD FOR ALL LAYERS
    PRINT HEAD FOR ALL LAYERS
 UBDSV2 SAVING "STREAMFLOW OUT  " ON UNIT  50 AT TIME STEP  1, STRESS PERIOD   4



 STREAM LISTING     PERIOD      4   STEP        1

 LAYER ROW COL. STREAM  RCH.  FLOW INTO     FLOW TO   FLOW OUT OF   OVRLND.     DIRECT     STREAM       STREAM     STREAM     STREAM   STREAMBED  STREAMBED
                SEG.NO.  NO.  STRM. RCH.    AQUIFER    STRM. RCH.    RUNOFF     PRECIP       ET          HEAD       DEPTH      WIDTH   CONDCTNC.   GRADIENT

   1   13    1     1     1    1.0000E+05 -2.8976E+03   1.0290E+05  0.000E+00  0.000E+00  0.000E+00  4.84073E+01  1.459E-01  2.000E+01  2.000E+04 -1.449E-01
   1   13    2     1     2    1.0290E+05 -4.8942E+03   1.0779E+05  0.000E+00  0.000E+00  0.000E+00  4.79333E+01  1.492E-01  2.000E+01  2.000E+04 -2.447E-01
   1   14    3     1     3    1.0779E+05 -3.8372E+03   1.1163E+05  0.000E+00  0.000E+00  0.000E+00  4.74597E+01  1.529E-01  2.000E+01  2.000E+04 -1.919E-01
   1   15    4     1     4    1.1163E+05 -3.6086E+03   1.1524E+05  0.000E+00  0.000E+00  0.000E+00  4.69856E+01  1.560E-01  2.000E+01  2.000E+04 -1.804E-01
   1   16    5     1     5    1.1524E+05 -3.5272E+03   1.1876E+05  0.000E+00  0.000E+00  0.000E+00  4.65112E+01  1.589E-01  2.000E+01  2.000E+04 -1.764E-01
   1   16    6     1     6    1.1876E+05 -2.6192E+03   1.2138E+05  0.000E+00  0.000E+00  0.000E+00  4.60364E+01  1.614E-01  2.000E+01  2.000E+04 -1.310E-01
   1   16    7     1     7    1.2138E+05 -2.3584E+03   1.2374E+05  0.000E+00  0.000E+00  0.000E+00  4.55612E+01  1.634E-01  2.000E+01  2.000E+04 -1.179E-01
   1   16    8     1     8    1.2374E+05 -1.8249E+03   1.2557E+05  0.000E+00  0.000E+00  0.000E+00  4.50856E+01  1.651E-01  2.000E+01  2.000E+04 -9.125E-02
   1   16    9     1     9    1.2557E+05 -8.4180E+02   1.2641E+05  0.000E+00  0.000E+00  0.000E+00  4.46093E+01  1.662E-01  2.000E+01  2.000E+04 -4.209E-02
   1   16   10     1    10    1.2641E+05  7.9802E+02   1.2561E+05  0.000E+00  0.000E+00  0.000E+00  4.41321E+01  1.662E-01  2.000E+01  2.000E+04  3.990E-02
   1   16   11     1    11    1.2561E+05  2.8215E+03   1.2279E+05  0.000E+00  0.000E+00  0.000E+00  4.36534E+01  1.647E-01  2.000E+01  2.000E+04  1.411E-01
   1   16   12     1    12    1.2279E+05  1.6533E+03   1.2114E+05  0.000E+00  0.000E+00  0.000E+00  4.31743E+01  1.630E-01  2.000E+01  2.000E+04  8.266E-02
   1   15   13     1    13    1.2114E+05 -1.8071E+03   1.2294E+05  0.000E+00  0.000E+00  0.000E+00  4.26971E+01  1.630E-01  2.000E+01  2.000E+04 -9.036E-02
   1   14   14     1    14    1.2294E+05 -2.9005E+03   1.2584E+05  0.000E+00  0.000E+00  0.000E+00  4.22217E+01  1.649E-01  2.000E+01  2.000E+04 -1.450E-01
   1   13   15     1    15    1.2584E+05 -3.7196E+03   1.2956E+05  0.000E+00  0.000E+00  0.000E+00  4.17471E+01  1.675E-01  2.000E+01  2.000E+04 -1.860E-01
   1   12   16     1    16    1.2956E+05 -5.3492E+03   1.3491E+05  0.000E+00  0.000E+00  0.000E+00  4.12733E+01  1.711E-01  2.000E+01  2.000E+04 -2.675E-01
   1   12   17     1    17    1.3491E+05 -3.3705E+03   1.3828E+05  0.000E+00  0.000E+00  0.000E+00  4.07994E+01  1.744E-01  2.000E+01  2.000E+04 -1.685E-01
   1   12   18     1    18    1.3828E+05 -3.2431E+03   1.4153E+05  0.000E+00  0.000E+00  0.000E+00  4.03247E+01  1.769E-01  2.000E+01  2.000E+04 -1.622E-01
   1   12   19     1    19    1.4153E+05 -4.4030E+03   1.4593E+05  0.000E+00  0.000E+00  0.000E+00  3.98503E+01  1.798E-01  2.000E+01  2.000E+04 -2.201E-01
   1   13   20     1    20    1.4593E+05 -2.5205E+03   1.4845E+05  0.000E+00  0.000E+00  0.000E+00  3.93756E+01  1.824E-01  2.000E+01  2.000E+04 -1.260E-01
   1   14   21     1    21    1.4845E+05 -1.3909E+03   1.4984E+05  0.000E+00  0.000E+00  0.000E+00  3.88998E+01  1.839E-01  2.000E+01  2.000E+04 -6.954E-02
   1   14   22     1    22    1.4984E+05  5.0087E+03   1.4483E+05  0.000E+00  0.000E+00  0.000E+00  3.84212E+01  1.825E-01  2.000E+01  2.000E+04  2.504E-01
   1    9   30     2     1    5.0000E+04 -2.8020E+03   5.2802E+04  0.000E+00  0.000E+00  0.000E+00  4.02428E+01  1.178E-01  2.000E+01  2.000E+04 -1.401E-01
   1    9   29     2     2    5.2802E+04 -3.1346E+03   5.5937E+04  0.000E+00  0.000E+00  0.000E+00  3.99968E+01  1.218E-01  2.000E+01  2.000E+04 -1.567E-01
   1    9   28     2     3    5.5937E+04 -3.5174E+03   5.9454E+04  0.000E+00  0.000E+00  0.000E+00  3.97513E+01  1.263E-01  2.000E+01  2.000E+04 -1.759E-01
   1    9   27     2     4    5.9454E+04 -6.2664E+03   6.5720E+04  0.000E+00  0.000E+00  0.000E+00  3.95076E+01  1.326E-01  2.000E+01  2.000E+04 -3.133E-01
   1   10   26     2     5    6.5720E+04 -3.8954E+03   6.9616E+04  0.000E+00  0.000E+00  0.000E+00  3.92639E+01  1.389E-01  2.000E+01  2.000E+04 -1.948E-01
   1   11   25     2     6    6.9616E+04 -2.8483E+03   7.2464E+04  0.000E+00  0.000E+00  0.000E+00  3.90180E+01  1.430E-01  2.000E+01  2.000E+04 -1.424E-01
   1   12   24     2     7    7.2464E+04 -1.9950E+03   7.4459E+04  0.000E+00  0.000E+00  0.000E+00  3.87710E+01  1.460E-01  2.000E+01  2.000E+04 -9.975E-02
   1   13   23     2     8    7.4459E+04 -1.1557E+03   7.5615E+04  0.000E+00  0.000E+00  0.000E+00  3.85228E+01  1.478E-01  2.000E+01  2.000E+04 -5.778E-02
   1   14   22     2     9    7.5615E+04  2.0317E+03   7.3583E+04  0.000E+00  0.000E+00  0.000E+00  3.82723E+01  1.473E-01  2.000E+01  2.000E+04  1.016E-01
   1   14   22     3     1    2.1842E+05 -8.4229E+03   2.2684E+05  0.000E+00  0.000E+00  0.000E+00  3.77496E+01  1.940E-01  2.000E+01  2.000E+04 -4.211E-01
   1   15   23     3     2    2.2684E+05 -1.8976E+03   2.2874E+05  0.000E+00  0.000E+00  0.000E+00  3.68634E+01  1.967E-01  2.000E+01  2.000E+04 -9.488E-02
   1   15   24     3     3    2.2874E+05 -1.5048E+03   2.3024E+05  0.000E+00  0.000E+00  0.000E+00  3.59754E+01  1.976E-01  2.000E+01  2.000E+04 -7.524E-02
   1   15   25     3     4    2.3024E+05 -1.5476E+03   2.3179E+05  0.000E+00  0.000E+00  0.000E+00  3.50873E+01  1.984E-01  2.000E+01  2.000E+04 -7.738E-02
   1   15   26     3     5    2.3179E+05 -2.0824E+03   2.3387E+05  0.000E+00  0.000E+00  0.000E+00  3.41993E+01  1.993E-01  2.000E+01  2.000E+04 -1.041E-01
   1   16   27     3     6    2.3387E+05 -2.7357E+03   2.3661E+05  0.000E+00  0.000E+00  0.000E+00  3.33117E+01  2.005E-01  2.000E+01  2.000E+04 -1.368E-01
   1   17   28     3     7    2.3661E+05 -3.5022E+03   2.4011E+05  0.000E+00  0.000E+00  0.000E+00  3.24244E+01  2.021E-01  2.000E+01  2.000E+04 -1.751E-01
   1   18   29     3     8    2.4011E+05 -5.1225E+03   2.4523E+05  0.000E+00  0.000E+00  0.000E+00  3.15377E+01  2.043E-01  2.000E+01  2.000E+04 -2.561E-01
   1   18   30     3     9    2.4523E+05 -4.5407E+03   2.4977E+05  0.000E+00  0.000E+00  0.000E+00  3.06512E+01  2.068E-01  2.000E+01  2.000E+04 -2.270E-01



1
              HEAD IN LAYER   1 AT END OF TIME STEP   1 IN STRESS PERIOD    4
  ---------------------------------------------------------------------------

          1      2      3      4      5      6      7      8      9     10
         11     12     13     14     15     16     17     18     19     20
         21     22     23     24     25     26     27     28     29     30
 .........................................................................
   1  ****** ****** ****** ****** ****** ****** ****** ****** ****** ******
      ****** ****** ****** ****** ****** ****** ****** ****** ****** ******
      ****** ****** ****** ****** ****** ****** ****** ****** ****** ******
   2  ****** ****** ****** ****** ****** ****** ****** ****** ****** ******
      ****** ****** ****** ****** ****** ****** ****** ****** ****** ******
      ****** ****** ****** ****** ****** ****** ****** ****** ****** ******
   3  ****** ****** ****** ****** ****** ****** ****** ****** ****** ******
      ****** ****** ****** ****** ****** ****** ****** ****** ****** ******
      ****** ****** ****** ****** ****** ****** ****** ****** ****** ******
   4  ****** ****** ****** ****** ****** ****** ****** ****** ****** ******
      ****** ****** ****** ****** ****** ****** ****** ****** ****** ******
      ****** ****** ****** ****** ****** ****** ****** ****** ****** ******
   5  ****** ****** ****** ****** ****** ****** ****** ****** ****** ******
      ****** ****** ****** ****** ****** ****** ****** ****** ****** ******
      ****** ****** ****** ****** ****** ****** ****** ****** ****** ******
   6  ****** ****** ****** ****** ****** ****** ****** ****** ****** ******
      ****** ****** ****** ****** ****** ****** ****** ****** ****** ******
      ****** ****** ****** ****** ****** ****** ****** ****** ****** ******
   7  ****** ****** ****** ****** ****** ****** ****** ****** ****** ******
      ****** ****** ****** ****** ****** ****** ****** ****** ****** ******
      ****** ****** ****** ****** ****** ****** ****** ****** ****** ******
   8  ****** ****** ****** ****** ****** ****** ****** ****** ****** ******
      ****** ****** ****** ****** ****** ****** ****** ****** ****** ******
      ****** ****** ****** ****** ****** ****** ****** ****** ****** ******
   9  ****** ****** ****** ****** ****** ****** ****** ****** ****** ******
      ****** ****** ****** ****** ****** ****** ****** ****** ****** ******
      ****** ****** ****** ****** ****** ****** ****** ****** ****** ******
  10  ****** ****** ****** ****** ****** ****** ****** ****** ****** ******
      ****** ****** ****** ****** ****** ****** ****** ****** ****** ******
      ****** ****** ****** ****** ****** ****** ****** ****** ****** ******
  11  ****** ****** ****** ****** ****** ****** ****** ****** ****** ******
      ****** ****** ****** ****** ****** ****** ****** ****** ****** ******
      ****** ****** ****** ****** ****** ****** ****** ****** ****** ******
  12  ****** ****** ****** ****** ****** ****** ****** ****** ****** ******
      ****** ****** ****** ****** ****** ****** ****** ****** ****** ******
      ****** ****** ****** ****** ****** ****** ****** ****** ****** ******
  13  ****** ****** ****** ****** ****** ****** ****** ****** ****** ******
      ****** ****** ****** ****** ****** ****** ****** ****** ****** ******
      ****** ****** ****** ****** ****** ****** ****** ****** ****** ******
  14  ****** ****** ****** ****** ****** ****** ****** ****** ****** ******
      ****** ****** ****** ****** ****** ****** ****** ****** ****** ******
      ****** ****** ****** ****** ****** ****** ****** ****** ****** ******
  15  ****** ****** ****** ****** ****** ****** ****** ****** ****** ******
      ****** ****** ****** ****** ****** ****** ****** ****** ****** ******
      ****** ****** ****** ****** ****** ****** ****** ****** ****** ******
  16  ****** ****** ****** ****** ****** ****** ****** ****** ****** ******
      ****** ****** ****** ****** ****** ****** ****** ****** ****** ******
      ****** ****** ****** ****** ****** ****** ****** ****** ****** ******
  17  ****** ****** ****** ****** ****** ****** ****** ****** ****** ******
      ****** ****** ****** ****** ****** ****** ****** ****** ****** ******
      ****** ****** ****** ****** ****** ****** ****** ****** ****** ******
  18  ****** ****** ****** ****** ****** ****** ****** ****** ****** ******
      ****** ****** ****** ****** ****** ****** ****** ****** ****** ******
      ****** ****** ****** ****** ****** ****** ****** ****** ****** ******
  19  ****** ****** ****** ****** ****** ****** ****** ****** ****** ******
      ****** ****** ****** ****** ****** ****** ****** ****** ****** ******
      ****** ****** ****** ****** ****** ****** ****** ****** ****** ******
  20  ****** ****** ****** ****** ****** ****** ****** ****** ****** ******
      ****** ****** ****** ****** ****** ****** ****** ****** ****** ******
      ****** ****** ****** ****** ****** ****** ****** ****** ****** ******
  21  ****** ****** ****** ****** ****** ****** ****** ****** ****** ******
      ****** ****** ****** ****** ****** ****** ****** ****** ****** ******
      ****** ****** ****** ****** ****** ****** ****** ****** ****** ******
  22  ****** ****** ****** ****** ****** ****** ****** ****** ****** ******
      ****** ****** ****** ****** ****** ****** ****** ****** ****** ******
      ****** ****** ****** ****** ****** ****** ****** ****** ****** ******
  23  ****** ****** ****** ****** ****** ****** ****** ****** ****** ******
      ****** ****** ****** ****** ****** ****** ****** ****** ****** ******
      ****** ****** ****** ****** ****** ****** ****** ****** ****** ******
  24  ****** ****** ****** ****** ****** ****** ****** ****** ****** ******
      ****** ****** ****** ****** ****** ****** ****** ****** ****** ******
      ****** ****** ****** ****** ****** ****** ****** ****** ****** ******
  25  ****** ****** ****** ****** ****** ****** ****** ****** ****** ******
      ****** ****** ****** ****** ****** ****** ****** ****** ****** ******
      ****** ****** ****** ****** ****** ****** ****** ****** ****** ******

 HEAD WILL BE SAVED ON UNIT   51 AT END OF TIME STEP    1, STRESS PERIOD    4
1
  VOLUMETRIC BUDGET FOR ENTIRE MODEL AT END OF TIME STEP    1, STRESS PERIOD   4
  ------------------------------------------------------------------------------

     CUMULATIVE VOLUMES      L**3       RATES FOR THIS TIME STEP      L**3/T
     ------------------                 ------------------------

           IN:                                      IN:
           ---                                      ---
             STORAGE =    23199251.6424               STORAGE =        1588.6603
       CONSTANT HEAD =    55848596.7564         CONSTANT HEAD =      169785.2043
               WELLS =           0.0000                 WELLS =           0.0000
            RECHARGE =     8804400.0000              RECHARGE =       27600.0000
      STREAM LEAKAGE =     3511662.7591        STREAM LEAKAGE =       12313.1553

            TOTAL IN =    91363911.1578              TOTAL IN =      211287.0199

          OUT:                                     OUT:
          ----                                     ----
             STORAGE =       21359.7745               STORAGE =         234.7228
       CONSTANT HEAD =           0.0000         CONSTANT HEAD =           0.0000
               WELLS =    36123164.2692                 WELLS =       98967.5733
            RECHARGE =           0.0000              RECHARGE =           0.0000
      STREAM LEAKAGE =    55219387.8916        STREAM LEAKAGE =      112084.7221

           TOTAL OUT =    91363911.9353             TOTAL OUT =      211287.0182

            IN - OUT =          -0.7775              IN - OUT =       1.6745E-03

 PERCENT DISCREPANCY =          -0.00     PERCENT DISCREPANCY =           0.00






         TIME SUMMARY AT END OF TIME STEP    1 IN STRESS PERIOD    4
                    SECONDS     MINUTES      HOURS       DAYS        YEARS
                    -----------------------------------------------------------
   TIME STEP LENGTH 7.86240E+06 1.31040E+05  2184.0      91.000     0.24914    
 STRESS PERIOD TIME 7.86240E+06 1.31040E+05  2184.0      91.000     0.24914    
         TOTAL TIME 3.15360E+07 5.25600E+05  8760.0      365.00     0.99932    
1
1
                            STRESS PERIOD NO.    5, LENGTH =   92.00000    
                            -----------------------------------------------

                              NUMBER OF TIME STEPS =     1

                               MULTIPLIER FOR DELT =     1.500

                            INITIAL TIME STEP SIZE =   92.00000    

 WELL NO.  LAYER   ROW   COL   STRESS RATE         
 --------------------------------------------------
      1      1     18     11     -0.3279E+05
      2      1     23     22     -0.3365E+05
      3      1     23     15     -0.3252E+05

      3 WELLS

                 RECHARGE =  5.000000E-04

 REUSING STREAM SEGMENT DATA FROM LAST STRESS PERIOD
 
 SOLVING FOR HEAD 


     6 CALLS TO PCG ROUTINE FOR TIME STEP   1 IN STRESS PERIOD    5
    23 TOTAL ITERATIONS

 OUTPUT CONTROL FOR STRESS PERIOD    5   TIME STEP    1
    SAVE BUDGET
    SAVE HEAD FOR ALL LAYERS
    PRINT HEAD FOR ALL LAYERS
 UBDSV2 SAVING "STREAMFLOW OUT  " ON UNIT  50 AT TIME STEP  1, STRESS PERIOD   5



 STREAM LISTING     PERIOD      5   STEP        1

 LAYER ROW COL. STREAM  RCH.  FLOW INTO     FLOW TO   FLOW OUT OF   OVRLND.     DIRECT     STREAM       STREAM     STREAM     STREAM   STREAMBED  STREAMBED
                SEG.NO.  NO.  STRM. RCH.    AQUIFER    STRM. RCH.    RUNOFF     PRECIP       ET          HEAD       DEPTH      WIDTH   CONDCTNC.   GRADIENT

   1   13    1     1     1    1.0000E+05 -2.7228E+03   1.0272E+05  0.000E+00  0.000E+00  0.000E+00  4.84072E+01  1.458E-01  2.000E+01  2.000E+04 -1.361E-01
   1   13    2     1     2    1.0272E+05 -4.6527E+03   1.0738E+05  0.000E+00  0.000E+00  0.000E+00  4.79331E+01  1.490E-01  2.000E+01  2.000E+04 -2.326E-01
   1   14    3     1     3    1.0738E+05 -3.6107E+03   1.1099E+05  0.000E+00  0.000E+00  0.000E+00  4.74593E+01  1.525E-01  2.000E+01  2.000E+04 -1.805E-01
   1   15    4     1     4    1.1099E+05 -3.3918E+03   1.1438E+05  0.000E+00  0.000E+00  0.000E+00  4.69849E+01  1.554E-01  2.000E+01  2.000E+04 -1.696E-01
   1   16    5     1     5    1.1438E+05 -3.3348E+03   1.1771E+05  0.000E+00  0.000E+00  0.000E+00  4.65104E+01  1.582E-01  2.000E+01  2.000E+04 -1.667E-01
   1   16    6     1     6    1.1771E+05 -2.4619E+03   1.2017E+05  0.000E+00  0.000E+00  0.000E+00  4.60355E+01  1.605E-01  2.000E+01  2.000E+04 -1.231E-01
   1   16    7     1     7    1.2017E+05 -2.1964E+03   1.2237E+05  0.000E+00  0.000E+00  0.000E+00  4.55601E+01  1.624E-01  2.000E+01  2.000E+04 -1.098E-01
   1   16    8     1     8    1.2237E+05 -1.6600E+03   1.2403E+05  0.000E+00  0.000E+00  0.000E+00  4.50844E+01  1.639E-01  2.000E+01  2.000E+04 -8.300E-02
   1   16    9     1     9    1.2403E+05 -6.7596E+02   1.2471E+05  0.000E+00  0.000E+00  0.000E+00  4.46081E+01  1.649E-01  2.000E+01  2.000E+04 -3.380E-02
   1   16   10     1    10    1.2471E+05  9.6297E+02   1.2374E+05  0.000E+00  0.000E+00  0.000E+00  4.41307E+01  1.648E-01  2.000E+01  2.000E+04  4.815E-02
   1   16   11     1    11    1.2374E+05  2.9847E+03   1.2076E+05  0.000E+00  0.000E+00  0.000E+00  4.36518E+01  1.632E-01  2.000E+01  2.000E+04  1.492E-01
   1   16   12     1    12    1.2076E+05  1.8662E+03   1.1889E+05  0.000E+00  0.000E+00  0.000E+00  4.31726E+01  1.612E-01  2.000E+01  2.000E+04  9.331E-02
   1   15   13     1    13    1.1889E+05 -1.5729E+03   1.2047E+05  0.000E+00  0.000E+00  0.000E+00  4.26952E+01  1.611E-01  2.000E+01  2.000E+04 -7.865E-02
   1   14   14     1    14    1.2047E+05 -2.6607E+03   1.2313E+05  0.000E+00  0.000E+00  0.000E+00  4.22196E+01  1.628E-01  2.000E+01  2.000E+04 -1.330E-01
   1   13   15     1    15    1.2313E+05 -3.4837E+03   1.2661E+05  0.000E+00  0.000E+00  0.000E+00  4.17448E+01  1.653E-01  2.000E+01  2.000E+04 -1.742E-01
   1   12   16     1    16    1.2661E+05 -5.1205E+03   1.3173E+05  0.000E+00  0.000E+00  0.000E+00  4.12709E+01  1.687E-01  2.000E+01  2.000E+04 -2.560E-01
   1   12   17     1    17    1.3173E+05 -3.2083E+03   1.3494E+05  0.000E+00  0.000E+00  0.000E+00  4.07969E+01  1.719E-01  2.000E+01  2.000E+04 -1.604E-01
   1   12   18     1    18    1.3494E+05 -3.0870E+03   1.3803E+05  0.000E+00  0.000E+00  0.000E+00  4.03221E+01  1.743E-01  2.000E+01  2.000E+04 -1.543E-01
   1   12   19     1    19    1.3803E+05 -4.2180E+03   1.4224E+05  0.000E+00  0.000E+00  0.000E+00  3.98476E+01  1.771E-01  2.000E+01  2.000E+04 -2.109E-01
   1   13   20     1    20    1.4224E+05 -2.3426E+03   1.4459E+05  0.000E+00  0.000E+00  0.000E+00  3.93728E+01  1.796E-01  2.000E+01  2.000E+04 -1.171E-01
   1   14   21     1    21    1.4459E+05 -1.2212E+03   1.4581E+05  0.000E+00  0.000E+00  0.000E+00  3.88968E+01  1.809E-01  2.000E+01  2.000E+04 -6.106E-02
   1   14   22     1    22    1.4581E+05  5.0338E+03   1.4077E+05  0.000E+00  0.000E+00  0.000E+00  3.84181E+01  1.795E-01  2.000E+01  2.000E+04  2.517E-01
   1    9   30     2     1    5.0000E+04 -2.6865E+03   5.2687E+04  0.000E+00  0.000E+00  0.000E+00  4.02427E+01  1.177E-01  2.000E+01  2.000E+04 -1.343E-01
   1    9   29     2     2    5.2687E+04 -3.0195E+03   5.5706E+04  0.000E+00  0.000E+00  0.000E+00  3.99966E+01  1.216E-01  2.000E+01  2.000E+04 -1.510E-01
   1    9   28     2     3    5.5706E+04 -3.4015E+03   5.9108E+04  0.000E+00  0.000E+00  0.000E+00  3.97509E+01  1.259E-01  2.000E+01  2.000E+04 -1.701E-01
   1    9   27     2     4    5.9108E+04 -6.1053E+03   6.5213E+04  0.000E+00  0.000E+00  0.000E+00  3.95070E+01  1.320E-01  2.000E+01  2.000E+04 -3.053E-01
   1   10   26     2     5    6.5213E+04 -3.7294E+03   6.8942E+04  0.000E+00  0.000E+00  0.000E+00  3.92632E+01  1.382E-01  2.000E+01  2.000E+04 -1.865E-01
   1   11   25     2     6    6.8942E+04 -2.6886E+03   7.1631E+04  0.000E+00  0.000E+00  0.000E+00  3.90171E+01  1.421E-01  2.000E+01  2.000E+04 -1.344E-01
   1   12   24     2     7    7.1631E+04 -1.8530E+03   7.3484E+04  0.000E+00  0.000E+00  0.000E+00  3.87699E+01  1.449E-01  2.000E+01  2.000E+04 -9.265E-02
   1   13   23     2     8    7.3484E+04 -1.0443E+03   7.4528E+04  0.000E+00  0.000E+00  0.000E+00  3.85216E+01  1.466E-01  2.000E+01  2.000E+04 -5.221E-02
   1   14   22     2     9    7.4528E+04  2.0907E+03   7.2437E+04  0.000E+00  0.000E+00  0.000E+00  3.82710E+01  1.460E-01  2.000E+01  2.000E+04  1.045E-01
   1   14   22     3     1    2.1321E+05 -8.3922E+03   2.2160E+05  0.000E+00  0.000E+00  0.000E+00  3.77468E+01  1.913E-01  2.000E+01  2.000E+04 -4.196E-01
   1   15   23     3     2    2.2160E+05 -1.7396E+03   2.2334E+05  0.000E+00  0.000E+00  0.000E+00  3.68606E+01  1.939E-01  2.000E+01  2.000E+04 -8.698E-02
   1   15   24     3     3    2.2334E+05 -1.3980E+03   2.2474E+05  0.000E+00  0.000E+00  0.000E+00  3.59725E+01  1.948E-01  2.000E+01  2.000E+04 -6.990E-02
   1   15   25     3     4    2.2474E+05 -1.4453E+03   2.2619E+05  0.000E+00  0.000E+00  0.000E+00  3.50844E+01  1.955E-01  2.000E+01  2.000E+04 -7.227E-02
   1   15   26     3     5    2.2619E+05 -1.9591E+03   2.2815E+05  0.000E+00  0.000E+00  0.000E+00  3.41964E+01  1.964E-01  2.000E+01  2.000E+04 -9.795E-02
   1   16   27     3     6    2.2815E+05 -2.5753E+03   2.3072E+05  0.000E+00  0.000E+00  0.000E+00  3.33087E+01  1.976E-01  2.000E+01  2.000E+04 -1.288E-01
   1   17   28     3     7    2.3072E+05 -3.3380E+03   2.3406E+05  0.000E+00  0.000E+00  0.000E+00  3.24213E+01  1.991E-01  2.000E+01  2.000E+04 -1.669E-01
   1   18   29     3     8    2.3406E+05 -4.9666E+03   2.3903E+05  0.000E+00  0.000E+00  0.000E+00  3.15345E+01  2.012E-01  2.000E+01  2.000E+04 -2.483E-01
   1   18   30     3     9    2.3903E+05 -4.4276E+03   2.4345E+05  0.000E+00  0.000E+00  0.000E+00  3.06480E+01  2.036E-01  2.000E+01  2.000E+04 -2.214E-01



1
              HEAD IN LAYER   1 AT END OF TIME STEP   1 IN STRESS PERIOD    5
  ---------------------------------------------------------------------------

          1      2      3      4      5      6      7      8      9     10
         11     12     13     14     15     16     17     18     19     20
         21     22     23     24     25     26     27     28     29     30
 .........................................................................
   1  ****** ****** ****** ****** ****** ****** ****** ****** ****** ******
      ****** ****** ****** ****** ****** ****** ****** ****** ****** ******
      ****** ****** ****** ****** ****** ****** ****** ****** ****** ******
   2  ****** ****** ****** ****** ****** ****** ****** ****** ****** ******
      ****** ****** ****** ****** ****** ****** ****** ****** ****** ******
      ****** ****** ****** ****** ****** ****** ****** ****** ****** ******
   3  ****** ****** ****** ****** ****** ****** ****** ****** ****** ******
      ****** ****** ****** ****** ****** ****** ****** ****** ****** ******
      ****** ****** ****** ****** ****** ****** ****** ****** ****** ******
   4  ****** ****** ****** ****** ****** ****** ****** ****** ****** ******
      ****** ****** ****** ****** ****** ****** ****** ****** ****** ******
      ****** ****** ****** ****** ****** ****** ****** ****** ****** ******
   5  ****** ****** ****** ****** ****** ****** ****** ****** ****** ******
      ****** ****** ****** ****** ****** ****** ****** ****** ****** ******
      ****** ****** ****** ****** ****** ****** ****** ****** ****** ******
   6  ****** ****** ****** ****** ****** ****** ****** ****** ****** ******
      ****** ****** ****** ****** ****** ****** ****** ****** ****** ******
      ****** ****** ****** ****** ****** ****** ****** ****** ****** ******
   7  ****** ****** ****** ****** ****** ****** ****** ****** ****** ******
      ****** ****** ****** ****** ****** ****** ****** ****** ****** ******
      ****** ****** ****** ****** ****** ****** ****** ****** ****** ******
   8  ****** ****** ****** ****** ****** ****** ****** ****** ****** ******
      ****** ****** ****** ****** ****** ****** ****** ****** ****** ******
      ****** ****** ****** ****** ****** ****** ****** ****** ****** ******
   9  ****** ****** ****** ****** ****** ****** ****** ****** ****** ******
      ****** ****** ****** ****** ****** ****** ****** ****** ****** ******
      ****** ****** ****** ****** ****** ****** ****** ****** ****** ******
  10  ****** ****** ****** ****** ****** ****** ****** ****** ****** ******
      ****** ****** ****** ****** ****** ****** ****** ****** ****** ******
      ****** ****** ****** ****** ****** ****** ****** ****** ****** ******
  11  ****** ****** ****** ****** ****** ****** ****** ****** ****** ******
      ****** ****** ****** ****** ****** ****** ****** ****** ****** ******
      ****** ****** ****** ****** ****** ****** ****** ****** ****** ******
  12  ****** ****** ****** ****** ****** ****** ****** ****** ****** ******
      ****** ****** ****** ****** ****** ****** ****** ****** ****** ******
      ****** ****** ****** ****** ****** ****** ****** ****** ****** ******
  13  ****** ****** ****** ****** ****** ****** ****** ****** ****** ******
      ****** ****** ****** ****** ****** ****** ****** ****** ****** ******
      ****** ****** ****** ****** ****** ****** ****** ****** ****** ******
  14  ****** ****** ****** ****** ****** ****** ****** ****** ****** ******
      ****** ****** ****** ****** ****** ****** ****** ****** ****** ******
      ****** ****** ****** ****** ****** ****** ****** ****** ****** ******
  15  ****** ****** ****** ****** ****** ****** ****** ****** ****** ******
      ****** ****** ****** ****** ****** ****** ****** ****** ****** ******
      ****** ****** ****** ****** ****** ****** ****** ****** ****** ******
  16  ****** ****** ****** ****** ****** ****** ****** ****** ****** ******
      ****** ****** ****** ****** ****** ****** ****** ****** ****** ******
      ****** ****** ****** ****** ****** ****** ****** ****** ****** ******
  17  ****** ****** ****** ****** ****** ****** ****** ****** ****** ******
      ****** ****** ****** ****** ****** ****** ****** ****** ****** ******
      ****** ****** ****** ****** ****** ****** ****** ****** ****** ******
  18  ****** ****** ****** ****** ****** ****** ****** ****** ****** ******
      ****** ****** ****** ****** ****** ****** ****** ****** ****** ******
      ****** ****** ****** ****** ****** ****** ****** ****** ****** ******
  19  ****** ****** ****** ****** ****** ****** ****** ****** ****** ******
      ****** ****** ****** ****** ****** ****** ****** ****** ****** ******
      ****** ****** ****** ****** ****** ****** ****** ****** ****** ******
  20  ****** ****** ****** ****** ****** ****** ****** ****** ****** ******
      ****** ****** ****** ****** ****** ****** ****** ****** ****** ******
      ****** ****** ****** ****** ****** ****** ****** ****** ****** ******
  21  ****** ****** ****** ****** ****** ****** ****** ****** ****** ******
      ****** ****** ****** ****** ****** ****** ****** ****** ****** ******
      ****** ****** ****** ****** ****** ****** ****** ****** ****** ******
  22  ****** ****** ****** ****** ****** ****** ****** ****** ****** ******
      ****** ****** ****** ****** ****** ****** ****** ****** ****** ******
      ****** ****** ****** ****** ****** ****** ****** ****** ****** ******
  23  ****** ****** ****** ****** ****** ****** ****** ****** ****** ******
      ****** ****** ****** ****** ****** ****** ****** ****** ****** ******
      ****** ****** ****** ****** ****** ****** ****** ****** ****** ******
  24  ****** ****** ****** ****** ****** ****** ****** ****** ****** ******
      ****** ****** ****** ****** ****** ****** ****** ****** ****** ******
      ****** ****** ****** ****** ****** ****** ****** ****** ****** ******
  25  ****** ****** ****** ****** ****** ****** ****** ****** ****** ******
      ****** ****** ****** ****** ****** ****** ****** ****** ****** ******
      ****** ****** ****** ****** ****** ****** ****** ****** ****** ******

 HEAD WILL BE SAVED ON UNIT   51 AT END OF TIME STEP    1, STRESS PERIOD    5
1
  VOLUMETRIC BUDGET FOR ENTIRE MODEL AT END OF TIME STEP    1, STRESS PERIOD   5
  ------------------------------------------------------------------------------

     CUMULATIVE VOLUMES      L**3       RATES FOR THIS TIME STEP      L**3/T
     ------------------                 ------------------------

           IN:                                      IN:
           ---                                      ---
             STORAGE =    23611465.6064               STORAGE =        4480.5866
       CONSTANT HEAD =    71869508.8818         CONSTANT HEAD =      174140.3492
               WELLS =           0.0000                 WELLS =           0.0000
            RECHARGE =    10074000.0000              RECHARGE =       13800.0000
      STREAM LEAKAGE =     4701988.4385        STREAM LEAKAGE =       12938.3226

            TOTAL IN =   110256962.9266              TOTAL IN =      205359.2584

          OUT:                                     OUT:
          ----                                     ----
             STORAGE =       21359.7745               STORAGE =           0.0000
       CONSTANT HEAD =           0.0000         CONSTANT HEAD =           0.0000
               WELLS =    45228181.0165                 WELLS =       98967.5733
            RECHARGE =           0.0000              RECHARGE =           0.0000
      STREAM LEAKAGE =    65007422.9930        STREAM LEAKAGE =      106391.6859

           TOTAL OUT =   110256963.7839             TOTAL OUT =      205359.2592

            IN - OUT =          -0.8573              IN - OUT =      -8.6797E-04

 PERCENT DISCREPANCY =          -0.00     PERCENT DISCREPANCY =          -0.00






         TIME SUMMARY AT END OF TIME STEP    1 IN STRESS PERIOD    5
                    SECONDS     MINUTES      HOURS       DAYS        YEARS
                    -----------------------------------------------------------
   TIME STEP LENGTH 7.94880E+06 1.32480E+05  2208.0      92.000     0.25188    
 STRESS PERIOD TIME 7.94880E+06 1.32480E+05  2208.0      92.000     0.25188    
         TOTAL TIME 3.94848E+07 6.58080E+05  10968.      457.00      1.2512    
1
1
                            STRESS PERIOD NO.    6, LENGTH =   91.00000    
                            -----------------------------------------------

                              NUMBER OF TIME STEPS =     1

                               MULTIPLIER FOR DELT =     1.500

                            INITIAL TIME STEP SIZE =   91.00000    

 WELL NO.  LAYER   ROW   COL   STRESS RATE         
 --------------------------------------------------
      1      1     18     11     -0.3279E+05
      2      1     23     22     -0.3365E+05
      3      1     23     15     -0.3252E+05

      3 WELLS

                 RECHARGE =  2.000000E-03

 REUSING STREAM SEGMENT DATA FROM LAST STRESS PERIOD
 
 SOLVING FOR HEAD 


     7 CALLS TO PCG ROUTINE FOR TIME STEP   1 IN STRESS PERIOD    6
    26 TOTAL ITERATIONS

 OUTPUT CONTROL FOR STRESS PERIOD    6   TIME STEP    1
    SAVE BUDGET
    SAVE HEAD FOR ALL LAYERS
    PRINT HEAD FOR ALL LAYERS
 UBDSV2 SAVING "STREAMFLOW OUT  " ON UNIT  50 AT TIME STEP  1, STRESS PERIOD   6



 STREAM LISTING     PERIOD      6   STEP        1

 LAYER ROW COL. STREAM  RCH.  FLOW INTO     FLOW TO   FLOW OUT OF   OVRLND.     DIRECT     STREAM       STREAM     STREAM     STREAM   STREAMBED  STREAMBED
                SEG.NO.  NO.  STRM. RCH.    AQUIFER    STRM. RCH.    RUNOFF     PRECIP       ET          HEAD       DEPTH      WIDTH   CONDCTNC.   GRADIENT

   1   13    1     1     1    1.0000E+05 -3.1220E+03   1.0312E+05  0.000E+00  0.000E+00  0.000E+00  4.84074E+01  1.460E-01  2.000E+01  2.000E+04 -1.561E-01
   1   13    2     1     2    1.0312E+05 -5.1780E+03   1.0830E+05  0.000E+00  0.000E+00  0.000E+00  4.79336E+01  1.496E-01  2.000E+01  2.000E+04 -2.589E-01
   1   14    3     1     3    1.0830E+05 -4.1493E+03   1.1245E+05  0.000E+00  0.000E+00  0.000E+00  4.74603E+01  1.535E-01  2.000E+01  2.000E+04 -2.075E-01
   1   15    4     1     4    1.1245E+05 -3.9273E+03   1.1638E+05  0.000E+00  0.000E+00  0.000E+00  4.69864E+01  1.568E-01  2.000E+01  2.000E+04 -1.964E-01
   1   16    5     1     5    1.1638E+05 -3.8313E+03   1.2021E+05  0.000E+00  0.000E+00  0.000E+00  4.65123E+01  1.600E-01  2.000E+01  2.000E+04 -1.916E-01
   1   16    6     1     6    1.2021E+05 -2.8525E+03   1.2306E+05  0.000E+00  0.000E+00  0.000E+00  4.60377E+01  1.627E-01  2.000E+01  2.000E+04 -1.426E-01
   1   16    7     1     7    1.2306E+05 -2.5925E+03   1.2565E+05  0.000E+00  0.000E+00  0.000E+00  4.55626E+01  1.649E-01  2.000E+01  2.000E+04 -1.296E-01
   1   16    8     1     8    1.2565E+05 -2.0593E+03   1.2771E+05  0.000E+00  0.000E+00  0.000E+00  4.50872E+01  1.667E-01  2.000E+01  2.000E+04 -1.030E-01
   1   16    9     1     9    1.2771E+05 -1.0749E+03   1.2879E+05  0.000E+00  0.000E+00  0.000E+00  4.46111E+01  1.679E-01  2.000E+01  2.000E+04 -5.375E-02
   1   16   10     1    10    1.2879E+05  5.6774E+02   1.2822E+05  0.000E+00  0.000E+00  0.000E+00  4.41340E+01  1.681E-01  2.000E+01  2.000E+04  2.839E-02
   1   16   11     1    11    1.2822E+05  2.5949E+03   1.2562E+05  0.000E+00  0.000E+00  0.000E+00  4.36555E+01  1.669E-01  2.000E+01  2.000E+04  1.297E-01
   1   16   12     1    12    1.2562E+05  1.3656E+03   1.2426E+05  0.000E+00  0.000E+00  0.000E+00  4.31767E+01  1.653E-01  2.000E+01  2.000E+04  6.828E-02
   1   15   13     1    13    1.2426E+05 -2.1168E+03   1.2638E+05  0.000E+00  0.000E+00  0.000E+00  4.26997E+01  1.656E-01  2.000E+01  2.000E+04 -1.058E-01
   1   14   14     1    14    1.2638E+05 -3.2145E+03   1.2959E+05  0.000E+00  0.000E+00  0.000E+00  4.22245E+01  1.677E-01  2.000E+01  2.000E+04 -1.607E-01
   1   13   15     1    15    1.2959E+05 -4.0285E+03   1.3362E+05  0.000E+00  0.000E+00  0.000E+00  4.17501E+01  1.706E-01  2.000E+01  2.000E+04 -2.014E-01
   1   12   16     1    16    1.3362E+05 -5.6417E+03   1.3926E+05  0.000E+00  0.000E+00  0.000E+00  4.12766E+01  1.743E-01  2.000E+01  2.000E+04 -2.821E-01
   1   12   17     1    17    1.3926E+05 -3.5978E+03   1.4286E+05  0.000E+00  0.000E+00  0.000E+00  4.08028E+01  1.778E-01  2.000E+01  2.000E+04 -1.799E-01
   1   12   18     1    18    1.4286E+05 -3.4705E+03   1.4633E+05  0.000E+00  0.000E+00  0.000E+00  4.03282E+01  1.805E-01  2.000E+01  2.000E+04 -1.735E-01
   1   12   19     1    19    1.4633E+05 -4.6866E+03   1.5102E+05  0.000E+00  0.000E+00  0.000E+00  3.98540E+01  1.835E-01  2.000E+01  2.000E+04 -2.343E-01
   1   13   20     1    20    1.5102E+05 -2.7995E+03   1.5381E+05  0.000E+00  0.000E+00  0.000E+00  3.93795E+01  1.863E-01  2.000E+01  2.000E+04 -1.400E-01
   1   14   21     1    21    1.5381E+05 -1.6401E+03   1.5545E+05  0.000E+00  0.000E+00  0.000E+00  3.89038E+01  1.879E-01  2.000E+01  2.000E+04 -8.201E-02
   1   14   22     1    22    1.5545E+05  4.9573E+03   1.5050E+05  0.000E+00  0.000E+00  0.000E+00  3.84253E+01  1.867E-01  2.000E+01  2.000E+04  2.479E-01
   1    9   30     2     1    5.0000E+04 -3.0437E+03   5.3044E+04  0.000E+00  0.000E+00  0.000E+00  4.02430E+01  1.180E-01  2.000E+01  2.000E+04 -1.522E-01
   1    9   29     2     2    5.3044E+04 -3.3737E+03   5.6417E+04  0.000E+00  0.000E+00  0.000E+00  3.99973E+01  1.223E-01  2.000E+01  2.000E+04 -1.687E-01
   1    9   28     2     3    5.6417E+04 -3.7536E+03   6.0171E+04  0.000E+00  0.000E+00  0.000E+00  3.97520E+01  1.270E-01  2.000E+01  2.000E+04 -1.877E-01
   1    9   27     2     4    6.0171E+04 -6.5749E+03   6.6746E+04  0.000E+00  0.000E+00  0.000E+00  3.95087E+01  1.337E-01  2.000E+01  2.000E+04 -3.287E-01
   1   10   26     2     5    6.6746E+04 -4.2154E+03   7.0961E+04  0.000E+00  0.000E+00  0.000E+00  3.92654E+01  1.404E-01  2.000E+01  2.000E+04 -2.108E-01
   1   11   25     2     6    7.0961E+04 -3.1536E+03   7.4115E+04  0.000E+00  0.000E+00  0.000E+00  3.90198E+01  1.448E-01  2.000E+01  2.000E+04 -1.577E-01
   1   12   24     2     7    7.4115E+04 -2.2641E+03   7.6379E+04  0.000E+00  0.000E+00  0.000E+00  3.87731E+01  1.481E-01  2.000E+01  2.000E+04 -1.132E-01
   1   13   23     2     8    7.6379E+04 -1.3650E+03   7.7744E+04  0.000E+00  0.000E+00  0.000E+00  3.85252E+01  1.502E-01  2.000E+01  2.000E+04 -6.825E-02
   1   14   22     2     9    7.7744E+04  1.9482E+03   7.5796E+04  0.000E+00  0.000E+00  0.000E+00  3.82749E+01  1.499E-01  2.000E+01  2.000E+04  9.741E-02
   1   14   22     3     1    2.2629E+05 -8.4754E+03   2.3477E+05  0.000E+00  0.000E+00  0.000E+00  3.77537E+01  1.981E-01  2.000E+01  2.000E+04 -4.238E-01
   1   15   23     3     2    2.3477E+05 -2.1309E+03   2.3690E+05  0.000E+00  0.000E+00  0.000E+00  3.68675E+01  2.008E-01  2.000E+01  2.000E+04 -1.065E-01
   1   15   24     3     3    2.3690E+05 -1.6825E+03   2.3858E+05  0.000E+00  0.000E+00  0.000E+00  3.59796E+01  2.018E-01  2.000E+01  2.000E+04 -8.412E-02
   1   15   25     3     4    2.3858E+05 -1.7313E+03   2.4031E+05  0.000E+00  0.000E+00  0.000E+00  3.50916E+01  2.027E-01  2.000E+01  2.000E+04 -8.657E-02
   1   15   26     3     5    2.4031E+05 -2.3290E+03   2.4264E+05  0.000E+00  0.000E+00  0.000E+00  3.42037E+01  2.037E-01  2.000E+01  2.000E+04 -1.165E-01
   1   16   27     3     6    2.4264E+05 -3.0386E+03   2.4568E+05  0.000E+00  0.000E+00  0.000E+00  3.33162E+01  2.051E-01  2.000E+01  2.000E+04 -1.519E-01
   1   17   28     3     7    2.4568E+05 -3.8109E+03   2.4949E+05  0.000E+00  0.000E+00  0.000E+00  3.24290E+01  2.068E-01  2.000E+01  2.000E+04 -1.905E-01
   1   18   29     3     8    2.4949E+05 -5.4099E+03   2.5490E+05  0.000E+00  0.000E+00  0.000E+00  3.15424E+01  2.091E-01  2.000E+01  2.000E+04 -2.705E-01
   1   18   30     3     9    2.5490E+05 -4.7628E+03   2.5966E+05  0.000E+00  0.000E+00  0.000E+00  3.06561E+01  2.116E-01  2.000E+01  2.000E+04 -2.381E-01



1
              HEAD IN LAYER   1 AT END OF TIME STEP   1 IN STRESS PERIOD    6
  ---------------------------------------------------------------------------

          1      2      3      4      5      6      7      8      9     10
         11     12     13     14     15     16     17     18     19     20
         21     22     23     24     25     26     27     28     29     30
 .........................................................................
   1  ****** ****** ****** ****** ****** ****** ****** ****** ****** ******
      ****** ****** ****** ****** ****** ****** ****** ****** ****** ******
      ****** ****** ****** ****** ****** ****** ****** ****** ****** ******
   2  ****** ****** ****** ****** ****** ****** ****** ****** ****** ******
      ****** ****** ****** ****** ****** ****** ****** ****** ****** ******
      ****** ****** ****** ****** ****** ****** ****** ****** ****** ******
   3  ****** ****** ****** ****** ****** ****** ****** ****** ****** ******
      ****** ****** ****** ****** ****** ****** ****** ****** ****** ******
      ****** ****** ****** ****** ****** ****** ****** ****** ****** ******
   4  ****** ****** ****** ****** ****** ****** ****** ****** ****** ******
      ****** ****** ****** ****** ****** ****** ****** ****** ****** ******
      ****** ****** ****** ****** ****** ****** ****** ****** ****** ******
   5  ****** ****** ****** ****** ****** ****** ****** ****** ****** ******
      ****** ****** ****** ****** ****** ****** ****** ****** ****** ******
      ****** ****** ****** ****** ****** ****** ****** ****** ****** ******
   6  ****** ****** ****** ****** ****** ****** ****** ****** ****** ******
      ****** ****** ****** ****** ****** ****** ****** ****** ****** ******
      ****** ****** ****** ****** ****** ****** ****** ****** ****** ******
   7  ****** ****** ****** ****** ****** ****** ****** ****** ****** ******
      ****** ****** ****** ****** ****** ****** ****** ****** ****** ******
      ****** ****** ****** ****** ****** ****** ****** ****** ****** ******
   8  ****** ****** ****** ****** ****** ****** ****** ****** ****** ******
      ****** ****** ****** ****** ****** ****** ****** ****** ****** ******
      ****** ****** ****** ****** ****** ****** ****** ****** ****** ******
   9  ****** ****** ****** ****** ****** ****** ****** ****** ****** ******
      ****** ****** ****** ****** ****** ****** ****** ****** ****** ******
      ****** ****** ****** ****** ****** ****** ****** ****** ****** ******
  10  ****** ****** ****** ****** ****** ****** ****** ****** ****** ******
      ****** ****** ****** ****** ****** ****** ****** ****** ****** ******
      ****** ****** ****** ****** ****** ****** ****** ****** ****** ******
  11  ****** ****** ****** ****** ****** ****** ****** ****** ****** ******
      ****** ****** ****** ****** ****** ****** ****** ****** ****** ******
      ****** ****** ****** ****** ****** ****** ****** ****** ****** ******
  12  ****** ****** ****** ****** ****** ****** ****** ****** ****** ******
      ****** ****** ****** ****** ****** ****** ****** ****** ****** ******
      ****** ****** ****** ****** ****** ****** ****** ****** ****** ******
  13  ****** ****** ****** ****** ****** ****** ****** ****** ****** ******
      ****** ****** ****** ****** ****** ****** ****** ****** ****** ******
      ****** ****** ****** ****** ****** ****** ****** ****** ****** ******
  14  ****** ****** ****** ****** ****** ****** ****** ****** ****** ******
      ****** ****** ****** ****** ****** ****** ****** ****** ****** ******
      ****** ****** ****** ****** ****** ****** ****** ****** ****** ******
  15  ****** ****** ****** ****** ****** ****** ****** ****** ****** ******
      ****** ****** ****** ****** ****** ****** ****** ****** ****** ******
      ****** ****** ****** ****** ****** ****** ****** ****** ****** ******
  16  ****** ****** ****** ****** ****** ****** ****** ****** ****** ******
      ****** ****** ****** ****** ****** ****** ****** ****** ****** ******
      ****** ****** ****** ****** ****** ****** ****** ****** ****** ******
  17  ****** ****** ****** ****** ****** ****** ****** ****** ****** ******
      ****** ****** ****** ****** ****** ****** ****** ****** ****** ******
      ****** ****** ****** ****** ****** ****** ****** ****** ****** ******
  18  ****** ****** ****** ****** ****** ****** ****** ****** ****** ******
      ****** ****** ****** ****** ****** ****** ****** ****** ****** ******
      ****** ****** ****** ****** ****** ****** ****** ****** ****** ******
  19  ****** ****** ****** ****** ****** ****** ****** ****** ****** ******
      ****** ****** ****** ****** ****** ****** ****** ****** ****** ******
      ****** ****** ****** ****** ****** ****** ****** ****** ****** ******
  20  ****** ****** ****** ****** ****** ****** ****** ****** ****** ******
      ****** ****** ****** ****** ****** ****** ****** ****** ****** ******
      ****** ****** ****** ****** ****** ****** ****** ****** ****** ******
  21  ****** ****** ****** ****** ****** ****** ****** ****** ****** ******
      ****** ****** ****** ****** ****** ****** ****** ****** ****** ******
      ****** ****** ****** ****** ****** ****** ****** ****** ****** ******
  22  ****** ****** ****** ****** ****** ****** ****** ****** ****** ******
      ****** ****** ****** ****** ****** ****** ****** ****** ****** ******
      ****** ****** ****** ****** ****** ****** ****** ****** ****** ******
  23  ****** ****** ****** ****** ****** ****** ****** ****** ****** ******
      ****** ****** ****** ****** ****** ****** ****** ****** ****** ******
      ****** ****** ****** ****** ****** ****** ****** ****** ****** ******
  24  ****** ****** ****** ****** ****** ****** ****** ****** ****** ******
      ****** ****** ****** ****** ****** ****** ****** ****** ****** ******
      ****** ****** ****** ****** ****** ****** ****** ****** ****** ******
  25  ****** ****** ****** ****** ****** ****** ****** ****** ****** ******
      ****** ****** ****** ****** ****** ****** ****** ****** ****** ******
      ****** ****** ****** ****** ****** ****** ****** ****** ****** ******

 HEAD WILL BE SAVED ON UNIT   51 AT END OF TIME STEP    1, STRESS PERIOD    6
1
  VOLUMETRIC BUDGET FOR ENTIRE MODEL AT END OF TIME STEP    1, STRESS PERIOD   6
  ------------------------------------------------------------------------------

     CUMULATIVE VOLUMES      L**3       RATES FOR THIS TIME STEP      L**3/T
     ------------------                 ------------------------

           IN:                                      IN:
           ---                                      ---
             STORAGE =    23611465.6064               STORAGE =           0.0000
       CONSTANT HEAD =    86749598.0634         CONSTANT HEAD =      163517.4635
               WELLS =           0.0000                 WELLS =           0.0000
            RECHARGE =    15097200.0000              RECHARGE =       55200.0000
      STREAM LEAKAGE =     5742467.6772        STREAM LEAKAGE =       11433.8378

            TOTAL IN =   131200731.3470              TOTAL IN =      230151.3013

          OUT:                                     OUT:
          ----                                     ----
             STORAGE =      939136.2163               STORAGE =       10085.4554
       CONSTANT HEAD =           0.0000         CONSTANT HEAD =           0.0000
               WELLS =    54234230.1904                 WELLS =       98967.5733
            RECHARGE =           0.0000              RECHARGE =           0.0000
      STREAM LEAKAGE =    76027365.6312        STREAM LEAKAGE =      121098.2708

           TOTAL OUT =   131200732.0380             TOTAL OUT =      230151.2995

            IN - OUT =          -0.6910              IN - OUT =       1.8272E-03

 PERCENT DISCREPANCY =          -0.00     PERCENT DISCREPANCY =           0.00






         TIME SUMMARY AT END OF TIME STEP    1 IN STRESS PERIOD    6
                    SECONDS     MINUTES      HOURS       DAYS        YEARS
                    -----------------------------------------------------------
   TIME STEP LENGTH 7.86240E+06 1.31040E+05  2184.0      91.000     0.24914    
 STRESS PERIOD TIME 7.86240E+06 1.31040E+05  2184.0      91.000     0.24914    
         TOTAL TIME 4.73472E+07 7.89120E+05  13152.      548.00      1.5003    
1
1
                            STRESS PERIOD NO.    7, LENGTH =   91.00000    
                            -----------------------------------------------

                              NUMBER OF TIME STEPS =     1

                               MULTIPLIER FOR DELT =     1.500

                            INITIAL TIME STEP SIZE =   91.00000    

 WELL NO.  LAYER   ROW   COL   STRESS RATE         
 --------------------------------------------------
      1      1     18     11     -0.1485E+05
      2      1     23     22     -0.3063E+05
      3      1     23     15     -0.3453E+05

      3 WELLS

                 RECHARGE =   0.00000    

 REUSING STREAM SEGMENT DATA FROM LAST STRESS PERIOD
 
 SOLVING FOR HEAD 


     6 CALLS TO PCG ROUTINE FOR TIME STEP   1 IN STRESS PERIOD    7
    23 TOTAL ITERATIONS

 OUTPUT CONTROL FOR STRESS PERIOD    7   TIME STEP    1
    SAVE BUDGET
    SAVE HEAD FOR ALL LAYERS
    PRINT HEAD FOR ALL LAYERS
 UBDSV2 SAVING "STREAMFLOW OUT  " ON UNIT  50 AT TIME STEP  1, STRESS PERIOD   7



 STREAM LISTING     PERIOD      7   STEP        1

 LAYER ROW COL. STREAM  RCH.  FLOW INTO     FLOW TO   FLOW OUT OF   OVRLND.     DIRECT     STREAM       STREAM     STREAM     STREAM   STREAMBED  STREAMBED
                SEG.NO.  NO.  STRM. RCH.    AQUIFER    STRM. RCH.    RUNOFF     PRECIP       ET          HEAD       DEPTH      WIDTH   CONDCTNC.   GRADIENT

   1   13    1     1     1    1.0000E+05 -2.6409E+03   1.0264E+05  0.000E+00  0.000E+00  0.000E+00  4.84072E+01  1.458E-01  2.000E+01  2.000E+04 -1.320E-01
   1   13    2     1     2    1.0264E+05 -4.5408E+03   1.0718E+05  0.000E+00  0.000E+00  0.000E+00  4.79330E+01  1.489E-01  2.000E+01  2.000E+04 -2.270E-01
   1   14    3     1     3    1.0718E+05 -3.5127E+03   1.1069E+05  0.000E+00  0.000E+00  0.000E+00  4.74591E+01  1.523E-01  2.000E+01  2.000E+04 -1.756E-01
   1   15    4     1     4    1.1069E+05 -3.3256E+03   1.1402E+05  0.000E+00  0.000E+00  0.000E+00  4.69847E+01  1.551E-01  2.000E+01  2.000E+04 -1.663E-01
   1   16    5     1     5    1.1402E+05 -3.3941E+03   1.1741E+05  0.000E+00  0.000E+00  0.000E+00  4.65102E+01  1.579E-01  2.000E+01  2.000E+04 -1.697E-01
   1   16    6     1     6    1.1741E+05 -2.5813E+03   1.2000E+05  0.000E+00  0.000E+00  0.000E+00  4.60353E+01  1.603E-01  2.000E+01  2.000E+04 -1.291E-01
   1   16    7     1     7    1.2000E+05 -2.4484E+03   1.2244E+05  0.000E+00  0.000E+00  0.000E+00  4.55601E+01  1.624E-01  2.000E+01  2.000E+04 -1.224E-01
   1   16    8     1     8    1.2244E+05 -2.1567E+03   1.2460E+05  0.000E+00  0.000E+00  0.000E+00  4.50847E+01  1.642E-01  2.000E+01  2.000E+04 -1.078E-01
   1   16    9     1     9    1.2460E+05 -1.6185E+03   1.2622E+05  0.000E+00  0.000E+00  0.000E+00  4.46089E+01  1.657E-01  2.000E+01  2.000E+04 -8.093E-02
   1   16   10     1    10    1.2622E+05 -7.4329E+02   1.2696E+05  0.000E+00  0.000E+00  0.000E+00  4.41325E+01  1.666E-01  2.000E+01  2.000E+04 -3.716E-02
   1   16   11     1    11    1.2696E+05  3.2633E+02   1.2664E+05  0.000E+00  0.000E+00  0.000E+00  4.36554E+01  1.668E-01  2.000E+01  2.000E+04  1.632E-02
   1   16   12     1    12    1.2664E+05 -2.5521E+02   1.2689E+05  0.000E+00  0.000E+00  0.000E+00  4.31781E+01  1.668E-01  2.000E+01  2.000E+04 -1.276E-02
   1   15   13     1    13    1.2689E+05 -2.0375E+03   1.2893E+05  0.000E+00  0.000E+00  0.000E+00  4.27018E+01  1.677E-01  2.000E+01  2.000E+04 -1.019E-01
   1   14   14     1    14    1.2893E+05 -2.7649E+03   1.3169E+05  0.000E+00  0.000E+00  0.000E+00  4.22264E+01  1.696E-01  2.000E+01  2.000E+04 -1.382E-01
   1   13   15     1    15    1.3169E+05 -3.4607E+03   1.3515E+05  0.000E+00  0.000E+00  0.000E+00  4.17515E+01  1.720E-01  2.000E+01  2.000E+04 -1.730E-01
   1   12   16     1    16    1.3515E+05 -5.0364E+03   1.4019E+05  0.000E+00  0.000E+00  0.000E+00  4.12775E+01  1.752E-01  2.000E+01  2.000E+04 -2.518E-01
   1   12   17     1    17    1.4019E+05 -3.1552E+03   1.4335E+05  0.000E+00  0.000E+00  0.000E+00  4.08033E+01  1.783E-01  2.000E+01  2.000E+04 -1.578E-01
   1   12   18     1    18    1.4335E+05 -3.0301E+03   1.4638E+05  0.000E+00  0.000E+00  0.000E+00  4.03284E+01  1.807E-01  2.000E+01  2.000E+04 -1.515E-01
   1   12   19     1    19    1.4638E+05 -4.1317E+03   1.5051E+05  0.000E+00  0.000E+00  0.000E+00  3.98538E+01  1.833E-01  2.000E+01  2.000E+04 -2.066E-01
   1   13   20     1    20    1.5051E+05 -2.2814E+03   1.5279E+05  0.000E+00  0.000E+00  0.000E+00  3.93789E+01  1.857E-01  2.000E+01  2.000E+04 -1.141E-01
   1   14   21     1    21    1.5279E+05 -1.1894E+03   1.5398E+05  0.000E+00  0.000E+00  0.000E+00  3.89029E+01  1.870E-01  2.000E+01  2.000E+04 -5.947E-02
   1   14   22     1    22    1.5398E+05  5.1102E+03   1.4887E+05  0.000E+00  0.000E+00  0.000E+00  3.84242E+01  1.855E-01  2.000E+01  2.000E+04  2.555E-01
   1    9   30     2     1    5.0000E+04 -2.6012E+03   5.2601E+04  0.000E+00  0.000E+00  0.000E+00  4.02427E+01  1.177E-01  2.000E+01  2.000E+04 -1.301E-01
   1    9   29     2     2    5.2601E+04 -2.9349E+03   5.5536E+04  0.000E+00  0.000E+00  0.000E+00  3.99964E+01  1.214E-01  2.000E+01  2.000E+04 -1.467E-01
   1    9   28     2     3    5.5536E+04 -3.3181E+03   5.8854E+04  0.000E+00  0.000E+00  0.000E+00  3.97506E+01  1.256E-01  2.000E+01  2.000E+04 -1.659E-01
   1    9   27     2     4    5.8854E+04 -6.0001E+03   6.4854E+04  0.000E+00  0.000E+00  0.000E+00  3.95066E+01  1.316E-01  2.000E+01  2.000E+04 -3.000E-01
   1   10   26     2     5    6.4854E+04 -3.6153E+03   6.8470E+04  0.000E+00  0.000E+00  0.000E+00  3.92627E+01  1.377E-01  2.000E+01  2.000E+04 -1.808E-01
   1   11   25     2     6    6.8470E+04 -2.5772E+03   7.1047E+04  0.000E+00  0.000E+00  0.000E+00  3.90165E+01  1.415E-01  2.000E+01  2.000E+04 -1.289E-01
   1   12   24     2     7    7.1047E+04 -1.7522E+03   7.2799E+04  0.000E+00  0.000E+00  0.000E+00  3.87691E+01  1.441E-01  2.000E+01  2.000E+04 -8.761E-02
   1   13   23     2     8    7.2799E+04 -9.6523E+02   7.3764E+04  0.000E+00  0.000E+00  0.000E+00  3.85207E+01  1.457E-01  2.000E+01  2.000E+04 -4.826E-02
   1   14   22     2     9    7.3764E+04  2.0287E+03   7.1736E+04  0.000E+00  0.000E+00  0.000E+00  3.82701E+01  1.451E-01  2.000E+01  2.000E+04  1.014E-01
   1   14   22     3     1    2.2060E+05 -8.3593E+03   2.2896E+05  0.000E+00  0.000E+00  0.000E+00  3.77507E+01  1.951E-01  2.000E+01  2.000E+04 -4.180E-01
   1   15   23     3     2    2.2896E+05 -1.7132E+03   2.3068E+05  0.000E+00  0.000E+00  0.000E+00  3.68644E+01  1.978E-01  2.000E+01  2.000E+04 -8.566E-02
   1   15   24     3     3    2.3068E+05 -1.3583E+03   2.3203E+05  0.000E+00  0.000E+00  0.000E+00  3.59763E+01  1.985E-01  2.000E+01  2.000E+04 -6.792E-02
   1   15   25     3     4    2.3203E+05 -1.3943E+03   2.3343E+05  0.000E+00  0.000E+00  0.000E+00  3.50881E+01  1.993E-01  2.000E+01  2.000E+04 -6.971E-02
   1   15   26     3     5    2.3343E+05 -1.8772E+03   2.3531E+05  0.000E+00  0.000E+00  0.000E+00  3.42001E+01  2.001E-01  2.000E+01  2.000E+04 -9.386E-02
   1   16   27     3     6    2.3531E+05 -2.4903E+03   2.3780E+05  0.000E+00  0.000E+00  0.000E+00  3.33123E+01  2.012E-01  2.000E+01  2.000E+04 -1.245E-01
   1   17   28     3     7    2.3780E+05 -3.2547E+03   2.4105E+05  0.000E+00  0.000E+00  0.000E+00  3.24249E+01  2.027E-01  2.000E+01  2.000E+04 -1.627E-01
   1   18   29     3     8    2.4105E+05 -4.8953E+03   2.4595E+05  0.000E+00  0.000E+00  0.000E+00  3.15381E+01  2.047E-01  2.000E+01  2.000E+04 -2.448E-01
   1   18   30     3     9    2.4595E+05 -4.3590E+03   2.5031E+05  0.000E+00  0.000E+00  0.000E+00  3.06515E+01  2.071E-01  2.000E+01  2.000E+04 -2.180E-01



1
              HEAD IN LAYER   1 AT END OF TIME STEP   1 IN STRESS PERIOD    7
  ---------------------------------------------------------------------------

          1      2      3      4      5      6      7      8      9     10
         11     12     13     14     15     16     17     18     19     20
         21     22     23     24     25     26     27     28     29     30
 .........................................................................
   1  ****** ****** ****** ****** ****** ****** ****** ****** ****** ******
      ****** ****** ****** ****** ****** ****** ****** ****** ****** ******
      ****** ****** ****** ****** ****** ****** ****** ****** ****** ******
   2  ****** ****** ****** ****** ****** ****** ****** ****** ****** ******
      ****** ****** ****** ****** ****** ****** ****** ****** ****** ******
      ****** ****** ****** ****** ****** ****** ****** ****** ****** ******
   3  ****** ****** ****** ****** ****** ****** ****** ****** ****** ******
      ****** ****** ****** ****** ****** ****** ****** ****** ****** ******
      ****** ****** ****** ****** ****** ****** ****** ****** ****** ******
   4  ****** ****** ****** ****** ****** ****** ****** ****** ****** ******
      ****** ****** ****** ****** ****** ****** ****** ****** ****** ******
      ****** ****** ****** ****** ****** ****** ****** ****** ****** ******
   5  ****** ****** ****** ****** ****** ****** ****** ****** ****** ******
      ****** ****** ****** ****** ****** ****** ****** ****** ****** ******
      ****** ****** ****** ****** ****** ****** ****** ****** ****** ******
   6  ****** ****** ****** ****** ****** ****** ****** ****** ****** ******
      ****** ****** ****** ****** ****** ****** ****** ****** ****** ******
      ****** ****** ****** ****** ****** ****** ****** ****** ****** ******
   7  ****** ****** ****** ****** ****** ****** ****** ****** ****** ******
      ****** ****** ****** ****** ****** ****** ****** ****** ****** ******
      ****** ****** ****** ****** ****** ****** ****** ****** ****** ******
   8  ****** ****** ****** ****** ****** ****** ****** ****** ****** ******
      ****** ****** ****** ****** ****** ****** ****** ****** ****** ******
      ****** ****** ****** ****** ****** ****** ****** ****** ****** ******
   9  ****** ****** ****** ****** ****** ****** ****** ****** ****** ******
      ****** ****** ****** ****** ****** ****** ****** ****** ****** ******
      ****** ****** ****** ****** ****** ****** ****** ****** ****** ******
  10  ****** ****** ****** ****** ****** ****** ****** ****** ****** ******
      ****** ****** ****** ****** ****** ****** ****** ****** ****** ******
      ****** ****** ****** ****** ****** ****** ****** ****** ****** ******
  11  ****** ****** ****** ****** ****** ****** ****** ****** ****** ******
      ****** ****** ****** ****** ****** ****** ****** ****** ****** ******
      ****** ****** ****** ****** ****** ****** ****** ****** ****** ******
  12  ****** ****** ****** ****** ****** ****** ****** ****** ****** ******
      ****** ****** ****** ****** ****** ****** ****** ****** ****** ******
      ****** ****** ****** ****** ****** ****** ****** ****** ****** ******
  13  ****** ****** ****** ****** ****** ****** ****** ****** ****** ******
      ****** ****** ****** ****** ****** ****** ****** ****** ****** ******
      ****** ****** ****** ****** ****** ****** ****** ****** ****** ******
  14  ****** ****** ****** ****** ****** ****** ****** ****** ****** ******
      ****** ****** ****** ****** ****** ****** ****** ****** ****** ******
      ****** ****** ****** ****** ****** ****** ****** ****** ****** ******
  15  ****** ****** ****** ****** ****** ****** ****** ****** ****** ******
      ****** ****** ****** ****** ****** ****** ****** ****** ****** ******
      ****** ****** ****** ****** ****** ****** ****** ****** ****** ******
  16  ****** ****** ****** ****** ****** ****** ****** ****** ****** ******
      ****** ****** ****** ****** ****** ****** ****** ****** ****** ******
      ****** ****** ****** ****** ****** ****** ****** ****** ****** ******
  17  ****** ****** ****** ****** ****** ****** ****** ****** ****** ******
      ****** ****** ****** ****** ****** ****** ****** ****** ****** ******
      ****** ****** ****** ****** ****** ****** ****** ****** ****** ******
  18  ****** ****** ****** ****** ****** ****** ****** ****** ****** ******
      ****** ****** ****** ****** ****** ****** ****** ****** ****** ******
      ****** ****** ****** ****** ****** ****** ****** ****** ****** ******
  19  ****** ****** ****** ****** ****** ****** ****** ****** ****** ******
      ****** ****** ****** ****** ****** ****** ****** ****** ****** ******
      ****** ****** ****** ****** ****** ****** ****** ****** ****** ******
  20  ****** ****** ****** ****** ****** ****** ****** ****** ****** ******
      ****** ****** ****** ****** ****** ****** ****** ****** ****** ******
      ****** ****** ****** ****** ****** ****** ****** ****** ****** ******
  21  ****** ****** ****** ****** ****** ****** ****** ****** ****** ******
      ****** ****** ****** ****** ****** ****** ****** ****** ****** ******
      ****** ****** ****** ****** ****** ****** ****** ****** ****** ******
  22  ****** ****** ****** ****** ****** ****** ****** ****** ****** ******
      ****** ****** ****** ****** ****** ****** ****** ****** ****** ******
      ****** ****** ****** ****** ****** ****** ****** ****** ****** ******
  23  ****** ****** ****** ****** ****** ****** ****** ****** ****** ******
      ****** ****** ****** ****** ****** ****** ****** ****** ****** ******
      ****** ****** ****** ****** ****** ****** ****** ****** ****** ******
  24  ****** ****** ****** ****** ****** ****** ****** ****** ****** ******
      ****** ****** ****** ****** ****** ****** ****** ****** ****** ******
      ****** ****** ****** ****** ****** ****** ****** ****** ****** ******
  25  ****** ****** ****** ****** ****** ****** ****** ****** ****** ******
      ****** ****** ****** ****** ****** ****** ****** ****** ****** ******
      ****** ****** ****** ****** ****** ****** ****** ****** ****** ******

 HEAD WILL BE SAVED ON UNIT   51 AT END OF TIME STEP    1, STRESS PERIOD    7
1
  VOLUMETRIC BUDGET FOR ENTIRE MODEL AT END OF TIME STEP    1, STRESS PERIOD   7
  ------------------------------------------------------------------------------

     CUMULATIVE VOLUMES      L**3       RATES FOR THIS TIME STEP      L**3/T
     ------------------                 ------------------------

           IN:                                      IN:
           ---                                      ---
             STORAGE =    24477712.3163               STORAGE =        9519.1946
       CONSTANT HEAD =   102508867.3134         CONSTANT HEAD =      173178.7830
               WELLS =           0.0000                 WELLS =           0.0000
            RECHARGE =    15097200.0000              RECHARGE =           0.0000
      STREAM LEAKAGE =     6421798.5020        STREAM LEAKAGE =        7465.1739

            TOTAL IN =   148505578.1317              TOTAL IN =      190163.1515

          OUT:                                     OUT:
          ----                                     ----
             STORAGE =     1156003.3638               STORAGE =        2383.1555
       CONSTANT HEAD =           0.0000         CONSTANT HEAD =           0.0000
               WELLS =    61515083.4968                 WELLS =       80009.3770
            RECHARGE =           0.0000              RECHARGE =           0.0000
      STREAM LEAKAGE =    85834492.0692        STREAM LEAKAGE =      107770.6202

           TOTAL OUT =   148505578.9299             TOTAL OUT =      190163.1527

            IN - OUT =          -0.7983              IN - OUT =      -1.1783E-03

 PERCENT DISCREPANCY =          -0.00     PERCENT DISCREPANCY =          -0.00






         TIME SUMMARY AT END OF TIME STEP    1 IN STRESS PERIOD    7
                    SECONDS     MINUTES      HOURS       DAYS        YEARS
                    -----------------------------------------------------------
   TIME STEP LENGTH 7.86240E+06 1.31040E+05  2184.0      91.000     0.24914    
 STRESS PERIOD TIME 7.86240E+06 1.31040E+05  2184.0      91.000     0.24914    
         TOTAL TIME 5.52096E+07 9.20160E+05  15336.      639.00      1.7495    
1
1
                            STRESS PERIOD NO.    8, LENGTH =   91.00000    
                            -----------------------------------------------

                              NUMBER OF TIME STEPS =     1

                               MULTIPLIER FOR DELT =     1.500

                            INITIAL TIME STEP SIZE =   91.00000    

 WELL NO.  LAYER   ROW   COL   STRESS RATE         
 --------------------------------------------------
      1      1     18     11     -0.1485E+05
      2      1     23     22     -0.3063E+05
      3      1     23     15     -0.3453E+05

      3 WELLS

                 RECHARGE =  1.000000E-03

 REUSING STREAM SEGMENT DATA FROM LAST STRESS PERIOD
 
 SOLVING FOR HEAD 


     6 CALLS TO PCG ROUTINE FOR TIME STEP   1 IN STRESS PERIOD    8
    23 TOTAL ITERATIONS

 OUTPUT CONTROL FOR STRESS PERIOD    8   TIME STEP    1
    SAVE BUDGET
    SAVE HEAD FOR ALL LAYERS
    PRINT HEAD FOR ALL LAYERS
 UBDSV2 SAVING "STREAMFLOW OUT  " ON UNIT  50 AT TIME STEP  1, STRESS PERIOD   8



 STREAM LISTING     PERIOD      8   STEP        1

 LAYER ROW COL. STREAM  RCH.  FLOW INTO     FLOW TO   FLOW OUT OF   OVRLND.     DIRECT     STREAM       STREAM     STREAM     STREAM   STREAMBED  STREAMBED
                SEG.NO.  NO.  STRM. RCH.    AQUIFER    STRM. RCH.    RUNOFF     PRECIP       ET          HEAD       DEPTH      WIDTH   CONDCTNC.   GRADIENT

   1   13    1     1     1    1.0000E+05 -2.8206E+03   1.0282E+05  0.000E+00  0.000E+00  0.000E+00  4.84072E+01  1.459E-01  2.000E+01  2.000E+04 -1.410E-01
   1   13    2     1     2    1.0282E+05 -4.7611E+03   1.0758E+05  0.000E+00  0.000E+00  0.000E+00  4.79332E+01  1.491E-01  2.000E+01  2.000E+04 -2.381E-01
   1   14    3     1     3    1.0758E+05 -3.7683E+03   1.1135E+05  0.000E+00  0.000E+00  0.000E+00  4.74595E+01  1.527E-01  2.000E+01  2.000E+04 -1.884E-01
   1   15    4     1     4    1.1135E+05 -3.5992E+03   1.1495E+05  0.000E+00  0.000E+00  0.000E+00  4.69853E+01  1.558E-01  2.000E+01  2.000E+04 -1.800E-01
   1   16    5     1     5    1.1495E+05 -3.6946E+03   1.1864E+05  0.000E+00  0.000E+00  0.000E+00  4.65110E+01  1.588E-01  2.000E+01  2.000E+04 -1.847E-01
   1   16    6     1     6    1.1864E+05 -2.8319E+03   1.2148E+05  0.000E+00  0.000E+00  0.000E+00  4.60364E+01  1.614E-01  2.000E+01  2.000E+04 -1.416E-01
   1   16    7     1     7    1.2148E+05 -2.7243E+03   1.2420E+05  0.000E+00  0.000E+00  0.000E+00  4.55614E+01  1.637E-01  2.000E+01  2.000E+04 -1.362E-01
   1   16    8     1     8    1.2420E+05 -2.4676E+03   1.2667E+05  0.000E+00  0.000E+00  0.000E+00  4.50862E+01  1.657E-01  2.000E+01  2.000E+04 -1.234E-01
   1   16    9     1     9    1.2667E+05 -1.9736E+03   1.2864E+05  0.000E+00  0.000E+00  0.000E+00  4.46107E+01  1.675E-01  2.000E+01  2.000E+04 -9.868E-02
   1   16   10     1    10    1.2864E+05 -1.1476E+03   1.2979E+05  0.000E+00  0.000E+00  0.000E+00  4.41346E+01  1.687E-01  2.000E+01  2.000E+04 -5.738E-02
   1   16   11     1    11    1.2979E+05 -1.1613E+02   1.2990E+05  0.000E+00  0.000E+00  0.000E+00  4.36578E+01  1.692E-01  2.000E+01  2.000E+04 -5.807E-03
   1   16   12     1    12    1.2990E+05 -8.1418E+02   1.3072E+05  0.000E+00  0.000E+00  0.000E+00  4.31809E+01  1.696E-01  2.000E+01  2.000E+04 -4.071E-02
   1   15   13     1    13    1.3072E+05 -2.4322E+03   1.3315E+05  0.000E+00  0.000E+00  0.000E+00  4.27049E+01  1.708E-01  2.000E+01  2.000E+04 -1.216E-01
   1   14   14     1    14    1.3315E+05 -3.0955E+03   1.3625E+05  0.000E+00  0.000E+00  0.000E+00  4.22298E+01  1.730E-01  2.000E+01  2.000E+04 -1.548E-01
   1   13   15     1    15    1.3625E+05 -3.7482E+03   1.3999E+05  0.000E+00  0.000E+00  0.000E+00  4.17551E+01  1.756E-01  2.000E+01  2.000E+04 -1.874E-01
   1   12   16     1    16    1.3999E+05 -5.2709E+03   1.4527E+05  0.000E+00  0.000E+00  0.000E+00  4.12813E+01  1.790E-01  2.000E+01  2.000E+04 -2.635E-01
   1   12   17     1    17    1.4527E+05 -3.3490E+03   1.4861E+05  0.000E+00  0.000E+00  0.000E+00  4.08072E+01  1.822E-01  2.000E+01  2.000E+04 -1.675E-01
   1   12   18     1    18    1.4861E+05 -3.2220E+03   1.5184E+05  0.000E+00  0.000E+00  0.000E+00  4.03324E+01  1.847E-01  2.000E+01  2.000E+04 -1.611E-01
   1   12   19     1    19    1.5184E+05 -4.3555E+03   1.5619E+05  0.000E+00  0.000E+00  0.000E+00  3.98579E+01  1.874E-01  2.000E+01  2.000E+04 -2.178E-01
   1   13   20     1    20    1.5619E+05 -2.5325E+03   1.5872E+05  0.000E+00  0.000E+00  0.000E+00  3.93831E+01  1.899E-01  2.000E+01  2.000E+04 -1.266E-01
   1   14   21     1    21    1.5872E+05 -1.4324E+03   1.6016E+05  0.000E+00  0.000E+00  0.000E+00  3.89073E+01  1.914E-01  2.000E+01  2.000E+04 -7.162E-02
   1   14   22     1    22    1.6016E+05  5.0722E+03   1.5508E+05  0.000E+00  0.000E+00  0.000E+00  3.84287E+01  1.901E-01  2.000E+01  2.000E+04  2.536E-01
   1    9   30     2     1    5.0000E+04 -2.7804E+03   5.2780E+04  0.000E+00  0.000E+00  0.000E+00  4.02428E+01  1.178E-01  2.000E+01  2.000E+04 -1.390E-01
   1    9   29     2     2    5.2780E+04 -3.1123E+03   5.5893E+04  0.000E+00  0.000E+00  0.000E+00  3.99968E+01  1.218E-01  2.000E+01  2.000E+04 -1.556E-01
   1    9   28     2     3    5.5893E+04 -3.4928E+03   5.9386E+04  0.000E+00  0.000E+00  0.000E+00  3.97512E+01  1.262E-01  2.000E+01  2.000E+04 -1.746E-01
   1    9   27     2     4    5.9386E+04 -6.2197E+03   6.5605E+04  0.000E+00  0.000E+00  0.000E+00  3.95075E+01  1.325E-01  2.000E+01  2.000E+04 -3.110E-01
   1   10   26     2     5    6.5605E+04 -3.8521E+03   6.9457E+04  0.000E+00  0.000E+00  0.000E+00  3.92638E+01  1.388E-01  2.000E+01  2.000E+04 -1.926E-01
   1   11   25     2     6    6.9457E+04 -2.8078E+03   7.2265E+04  0.000E+00  0.000E+00  0.000E+00  3.90178E+01  1.428E-01  2.000E+01  2.000E+04 -1.404E-01
   1   12   24     2     7    7.2265E+04 -1.9619E+03   7.4227E+04  0.000E+00  0.000E+00  0.000E+00  3.87707E+01  1.457E-01  2.000E+01  2.000E+04 -9.809E-02
   1   13   23     2     8    7.4227E+04 -1.1368E+03   7.5364E+04  0.000E+00  0.000E+00  0.000E+00  3.85225E+01  1.475E-01  2.000E+01  2.000E+04 -5.684E-02
   1   14   22     2     9    7.5364E+04  1.9395E+03   7.3424E+04  0.000E+00  0.000E+00  0.000E+00  3.82721E+01  1.471E-01  2.000E+01  2.000E+04  9.697E-02
   1   14   22     3     1    2.2851E+05 -8.4057E+03   2.3691E+05  0.000E+00  0.000E+00  0.000E+00  3.77548E+01  1.992E-01  2.000E+01  2.000E+04 -4.203E-01
   1   15   23     3     2    2.3691E+05 -1.9403E+03   2.3886E+05  0.000E+00  0.000E+00  0.000E+00  3.68686E+01  2.019E-01  2.000E+01  2.000E+04 -9.702E-02
   1   15   24     3     3    2.3886E+05 -1.5229E+03   2.4038E+05  0.000E+00  0.000E+00  0.000E+00  3.59806E+01  2.028E-01  2.000E+01  2.000E+04 -7.615E-02
   1   15   25     3     4    2.4038E+05 -1.5578E+03   2.4194E+05  0.000E+00  0.000E+00  0.000E+00  3.50924E+01  2.036E-01  2.000E+01  2.000E+04 -7.789E-02
   1   15   26     3     5    2.4194E+05 -2.0811E+03   2.4402E+05  0.000E+00  0.000E+00  0.000E+00  3.42045E+01  2.045E-01  2.000E+01  2.000E+04 -1.041E-01
   1   16   27     3     6    2.4402E+05 -2.7431E+03   2.4676E+05  0.000E+00  0.000E+00  0.000E+00  3.33168E+01  2.057E-01  2.000E+01  2.000E+04 -1.372E-01
   1   17   28     3     7    2.4676E+05 -3.5112E+03   2.5027E+05  0.000E+00  0.000E+00  0.000E+00  3.24295E+01  2.073E-01  2.000E+01  2.000E+04 -1.756E-01
   1   18   29     3     8    2.5027E+05 -5.1328E+03   2.5540E+05  0.000E+00  0.000E+00  0.000E+00  3.15427E+01  2.094E-01  2.000E+01  2.000E+04 -2.566E-01
   1   18   30     3     9    2.5540E+05 -4.5394E+03   2.5994E+05  0.000E+00  0.000E+00  0.000E+00  3.06563E+01  2.118E-01  2.000E+01  2.000E+04 -2.270E-01



1
              HEAD IN LAYER   1 AT END OF TIME STEP   1 IN STRESS PERIOD    8
  ---------------------------------------------------------------------------

          1      2      3      4      5      6      7      8      9     10
         11     12     13     14     15     16     17     18     19     20
         21     22     23     24     25     26     27     28     29     30
 .........................................................................
   1  ****** ****** ****** ****** ****** ****** ****** ****** ****** ******
      ****** ****** ****** ****** ****** ****** ****** ****** ****** ******
      ****** ****** ****** ****** ****** ****** ****** ****** ****** ******
   2  ****** ****** ****** ****** ****** ****** ****** ****** ****** ******
      ****** ****** ****** ****** ****** ****** ****** ****** ****** ******
      ****** ****** ****** ****** ****** ****** ****** ****** ****** ******
   3  ****** ****** ****** ****** ****** ****** ****** ****** ****** ******
      ****** ****** ****** ****** ****** ****** ****** ****** ****** ******
      ****** ****** ****** ****** ****** ****** ****** ****** ****** ******
   4  ****** ****** ****** ****** ****** ****** ****** ****** ****** ******
      ****** ****** ****** ****** ****** ****** ****** ****** ****** ******
      ****** ****** ****** ****** ****** ****** ****** ****** ****** ******
   5  ****** ****** ****** ****** ****** ****** ****** ****** ****** ******
      ****** ****** ****** ****** ****** ****** ****** ****** ****** ******
      ****** ****** ****** ****** ****** ****** ****** ****** ****** ******
   6  ****** ****** ****** ****** ****** ****** ****** ****** ****** ******
      ****** ****** ****** ****** ****** ****** ****** ****** ****** ******
      ****** ****** ****** ****** ****** ****** ****** ****** ****** ******
   7  ****** ****** ****** ****** ****** ****** ****** ****** ****** ******
      ****** ****** ****** ****** ****** ****** ****** ****** ****** ******
      ****** ****** ****** ****** ****** ****** ****** ****** ****** ******
   8  ****** ****** ****** ****** ****** ****** ****** ****** ****** ******
      ****** ****** ****** ****** ****** ****** ****** ****** ****** ******
      ****** ****** ****** ****** ****** ****** ****** ****** ****** ******
   9  ****** ****** ****** ****** ****** ****** ****** ****** ****** ******
      ****** ****** ****** ****** ****** ****** ****** ****** ****** ******
      ****** ****** ****** ****** ****** ****** ****** ****** ****** ******
  10  ****** ****** ****** ****** ****** ****** ****** ****** ****** ******
      ****** ****** ****** ****** ****** ****** ****** ****** ****** ******
      ****** ****** ****** ****** ****** ****** ****** ****** ****** ******
  11  ****** ****** ****** ****** ****** ****** ****** ****** ****** ******
      ****** ****** ****** ****** ****** ****** ****** ****** ****** ******
      ****** ****** ****** ****** ****** ****** ****** ****** ****** ******
  12  ****** ****** ****** ****** ****** ****** ****** ****** ****** ******
      ****** ****** ****** ****** ****** ****** ****** ****** ****** ******
      ****** ****** ****** ****** ****** ****** ****** ****** ****** ******
  13  ****** ****** ****** ****** ****** ****** ****** ****** ****** ******
      ****** ****** ****** ****** ****** ****** ****** ****** ****** ******
      ****** ****** ****** ****** ****** ****** ****** ****** ****** ******
  14  ****** ****** ****** ****** ****** ****** ****** ****** ****** ******
      ****** ****** ****** ****** ****** ****** ****** ****** ****** ******
      ****** ****** ****** ****** ****** ****** ****** ****** ****** ******
  15  ****** ****** ****** ****** ****** ****** ****** ****** ****** ******
      ****** ****** ****** ****** ****** ****** ****** ****** ****** ******
      ****** ****** ****** ****** ****** ****** ****** ****** ****** ******
  16  ****** ****** ****** ****** ****** ****** ****** ****** ****** ******
      ****** ****** ****** ****** ****** ****** ****** ****** ****** ******
      ****** ****** ****** ****** ****** ****** ****** ****** ****** ******
  17  ****** ****** ****** ****** ****** ****** ****** ****** ****** ******
      ****** ****** ****** ****** ****** ****** ****** ****** ****** ******
      ****** ****** ****** ****** ****** ****** ****** ****** ****** ******
  18  ****** ****** ****** ****** ****** ****** ****** ****** ****** ******
      ****** ****** ****** ****** ****** ****** ****** ****** ****** ******
      ****** ****** ****** ****** ****** ****** ****** ****** ****** ******
  19  ****** ****** ****** ****** ****** ****** ****** ****** ****** ******
      ****** ****** ****** ****** ****** ****** ****** ****** ****** ******
      ****** ****** ****** ****** ****** ****** ****** ****** ****** ******
  20  ****** ****** ****** ****** ****** ****** ****** ****** ****** ******
      ****** ****** ****** ****** ****** ****** ****** ****** ****** ******
      ****** ****** ****** ****** ****** ****** ****** ****** ****** ******
  21  ****** ****** ****** ****** ****** ****** ****** ****** ****** ******
      ****** ****** ****** ****** ****** ****** ****** ****** ****** ******
      ****** ****** ****** ****** ****** ****** ****** ****** ****** ******
  22  ****** ****** ****** ****** ****** ****** ****** ****** ****** ******
      ****** ****** ****** ****** ****** ****** ****** ****** ****** ******
      ****** ****** ****** ****** ****** ****** ****** ****** ****** ******
  23  ****** ****** ****** ****** ****** ****** ****** ****** ****** ******
      ****** ****** ****** ****** ****** ****** ****** ****** ****** ******
      ****** ****** ****** ****** ****** ****** ****** ****** ****** ******
  24  ****** ****** ****** ****** ****** ****** ****** ****** ****** ******
      ****** ****** ****** ****** ****** ****** ****** ****** ****** ******
      ****** ****** ****** ****** ****** ****** ****** ****** ****** ******
  25  ****** ****** ****** ****** ****** ****** ****** ****** ****** ******
      ****** ****** ****** ****** ****** ****** ****** ****** ****** ******
      ****** ****** ****** ****** ****** ****** ****** ****** ****** ******

 HEAD WILL BE SAVED ON UNIT   51 AT END OF TIME STEP    1, STRESS PERIOD    8
1
  VOLUMETRIC BUDGET FOR ENTIRE MODEL AT END OF TIME STEP    1, STRESS PERIOD   8
  ------------------------------------------------------------------------------

     CUMULATIVE VOLUMES      L**3       RATES FOR THIS TIME STEP      L**3/T
     ------------------                 ------------------------

           IN:                                      IN:
           ---                                      ---
             STORAGE =    24477712.3163               STORAGE =           0.0000
       CONSTANT HEAD =   117747506.7364         CONSTANT HEAD =      167457.5761
               WELLS =           0.0000                 WELLS =           0.0000
            RECHARGE =    17608800.0000              RECHARGE =       27600.0000
      STREAM LEAKAGE =     7059862.1886        STREAM LEAKAGE =        7011.6889

            TOTAL IN =   166893881.2412              TOTAL IN =      202069.2649

          OUT:                                     OUT:
          ----                                     ----
             STORAGE =     1620538.0518               STORAGE =        5104.7768
       CONSTANT HEAD =           0.0000         CONSTANT HEAD =           0.0000
               WELLS =    68795936.8032                 WELLS =       80009.3770
            RECHARGE =           0.0000              RECHARGE =           0.0000
      STREAM LEAKAGE =    96477407.0820        STREAM LEAKAGE =      116955.1100

           TOTAL OUT =   166893881.9370             TOTAL OUT =      202069.2638

            IN - OUT =          -0.6958              IN - OUT =       1.1257E-03

 PERCENT DISCREPANCY =          -0.00     PERCENT DISCREPANCY =           0.00






         TIME SUMMARY AT END OF TIME STEP    1 IN STRESS PERIOD    8
                    SECONDS     MINUTES      HOURS       DAYS        YEARS
                    -----------------------------------------------------------
   TIME STEP LENGTH 7.86240E+06 1.31040E+05  2184.0      91.000     0.24914    
 STRESS PERIOD TIME 7.86240E+06 1.31040E+05  2184.0      91.000     0.24914    
         TOTAL TIME 6.30720E+07 1.05120E+06  17520.      730.00      1.9986    
1
1
                            STRESS PERIOD NO.    9, LENGTH =   92.00000    
                            -----------------------------------------------

                              NUMBER OF TIME STEPS =     1

                               MULTIPLIER FOR DELT =     1.500

                            INITIAL TIME STEP SIZE =   92.00000    

 WELL NO.  LAYER   ROW   COL   STRESS RATE         
 --------------------------------------------------
      1      1     18     11     -0.1485E+05
      2      1     23     22     -0.3063E+05
      3      1     23     15     -0.3453E+05

      3 WELLS

                 RECHARGE =  5.000000E-04

 REUSING STREAM SEGMENT DATA FROM LAST STRESS PERIOD
 
 SOLVING FOR HEAD 


     6 CALLS TO PCG ROUTINE FOR TIME STEP   1 IN STRESS PERIOD    9
    22 TOTAL ITERATIONS

 OUTPUT CONTROL FOR STRESS PERIOD    9   TIME STEP    1
    SAVE BUDGET
    SAVE HEAD FOR ALL LAYERS
    PRINT HEAD FOR ALL LAYERS
 UBDSV2 SAVING "STREAMFLOW OUT  " ON UNIT  50 AT TIME STEP  1, STRESS PERIOD   9



 STREAM LISTING     PERIOD      9   STEP        1

 LAYER ROW COL. STREAM  RCH.  FLOW INTO     FLOW TO   FLOW OUT OF   OVRLND.     DIRECT     STREAM       STREAM     STREAM     STREAM   STREAMBED  STREAMBED
                SEG.NO.  NO.  STRM. RCH.    AQUIFER    STRM. RCH.    RUNOFF     PRECIP       ET          HEAD       DEPTH      WIDTH   CONDCTNC.   GRADIENT

   1   13    1     1     1    1.0000E+05 -2.7101E+03   1.0271E+05  0.000E+00  0.000E+00  0.000E+00  4.84072E+01  1.458E-01  2.000E+01  2.000E+04 -1.355E-01
   1   13    2     1     2    1.0271E+05 -4.6133E+03   1.0732E+05  0.000E+00  0.000E+00  0.000E+00  4.79331E+01  1.490E-01  2.000E+01  2.000E+04 -2.307E-01
   1   14    3     1     3    1.0732E+05 -3.6238E+03   1.1095E+05  0.000E+00  0.000E+00  0.000E+00  4.74593E+01  1.524E-01  2.000E+01  2.000E+04 -1.812E-01
   1   15    4     1     4    1.1095E+05 -3.4626E+03   1.1441E+05  0.000E+00  0.000E+00  0.000E+00  4.69849E+01  1.554E-01  2.000E+01  2.000E+04 -1.731E-01
   1   16    5     1     5    1.1441E+05 -3.5856E+03   1.1800E+05  0.000E+00  0.000E+00  0.000E+00  4.65106E+01  1.583E-01  2.000E+01  2.000E+04 -1.793E-01
   1   16    6     1     6    1.1800E+05 -2.7438E+03   1.2074E+05  0.000E+00  0.000E+00  0.000E+00  4.60359E+01  1.609E-01  2.000E+01  2.000E+04 -1.372E-01
   1   16    7     1     7    1.2074E+05 -2.6375E+03   1.2338E+05  0.000E+00  0.000E+00  0.000E+00  4.55608E+01  1.630E-01  2.000E+01  2.000E+04 -1.319E-01
   1   16    8     1     8    1.2338E+05 -2.3839E+03   1.2576E+05  0.000E+00  0.000E+00  0.000E+00  4.50855E+01  1.650E-01  2.000E+01  2.000E+04 -1.192E-01
   1   16    9     1     9    1.2576E+05 -1.8945E+03   1.2766E+05  0.000E+00  0.000E+00  0.000E+00  4.46099E+01  1.667E-01  2.000E+01  2.000E+04 -9.473E-02
   1   16   10     1    10    1.2766E+05 -1.0741E+03   1.2873E+05  0.000E+00  0.000E+00  0.000E+00  4.41338E+01  1.679E-01  2.000E+01  2.000E+04 -5.371E-02
   1   16   11     1    11    1.2873E+05 -4.8441E+01   1.2878E+05  0.000E+00  0.000E+00  0.000E+00  4.36570E+01  1.683E-01  2.000E+01  2.000E+04 -2.422E-03
   1   16   12     1    12    1.2878E+05 -7.4108E+02   1.2952E+05  0.000E+00  0.000E+00  0.000E+00  4.31800E+01  1.686E-01  2.000E+01  2.000E+04 -3.705E-02
   1   15   13     1    13    1.2952E+05 -2.3177E+03   1.3184E+05  0.000E+00  0.000E+00  0.000E+00  4.27039E+01  1.698E-01  2.000E+01  2.000E+04 -1.159E-01
   1   14   14     1    14    1.3184E+05 -2.9655E+03   1.3480E+05  0.000E+00  0.000E+00  0.000E+00  4.22287E+01  1.719E-01  2.000E+01  2.000E+04 -1.483E-01
   1   13   15     1    15    1.3480E+05 -3.6110E+03   1.3841E+05  0.000E+00  0.000E+00  0.000E+00  4.17540E+01  1.744E-01  2.000E+01  2.000E+04 -1.806E-01
   1   12   16     1    16    1.3841E+05 -5.1307E+03   1.4354E+05  0.000E+00  0.000E+00  0.000E+00  4.12800E+01  1.778E-01  2.000E+01  2.000E+04 -2.565E-01
   1   12   17     1    17    1.4354E+05 -3.2476E+03   1.4679E+05  0.000E+00  0.000E+00  0.000E+00  4.08059E+01  1.809E-01  2.000E+01  2.000E+04 -1.624E-01
   1   12   18     1    18    1.4679E+05 -3.1222E+03   1.4991E+05  0.000E+00  0.000E+00  0.000E+00  4.03310E+01  1.833E-01  2.000E+01  2.000E+04 -1.561E-01
   1   12   19     1    19    1.4991E+05 -4.2303E+03   1.5414E+05  0.000E+00  0.000E+00  0.000E+00  3.98564E+01  1.860E-01  2.000E+01  2.000E+04 -2.115E-01
   1   13   20     1    20    1.5414E+05 -2.4172E+03   1.5656E+05  0.000E+00  0.000E+00  0.000E+00  3.93816E+01  1.884E-01  2.000E+01  2.000E+04 -1.209E-01
   1   14   21     1    21    1.5656E+05 -1.3352E+03   1.5790E+05  0.000E+00  0.000E+00  0.000E+00  3.89057E+01  1.898E-01  2.000E+01  2.000E+04 -6.676E-02
   1   14   22     1    22    1.5790E+05  5.0950E+03   1.5280E+05  0.000E+00  0.000E+00  0.000E+00  3.84270E+01  1.884E-01  2.000E+01  2.000E+04  2.548E-01
   1    9   30     2     1    5.0000E+04 -2.6810E+03   5.2681E+04  0.000E+00  0.000E+00  0.000E+00  4.02427E+01  1.177E-01  2.000E+01  2.000E+04 -1.340E-01
   1    9   29     2     2    5.2681E+04 -3.0135E+03   5.5694E+04  0.000E+00  0.000E+00  0.000E+00  3.99966E+01  1.216E-01  2.000E+01  2.000E+04 -1.507E-01
   1    9   28     2     3    5.5694E+04 -3.3945E+03   5.9089E+04  0.000E+00  0.000E+00  0.000E+00  3.97509E+01  1.259E-01  2.000E+01  2.000E+04 -1.697E-01
   1    9   27     2     4    5.9089E+04 -6.0906E+03   6.5180E+04  0.000E+00  0.000E+00  0.000E+00  3.95070E+01  1.320E-01  2.000E+01  2.000E+04 -3.045E-01
   1   10   26     2     5    6.5180E+04 -3.7163E+03   6.8896E+04  0.000E+00  0.000E+00  0.000E+00  3.92632E+01  1.382E-01  2.000E+01  2.000E+04 -1.858E-01
   1   11   25     2     6    6.8896E+04 -2.6767E+03   7.1573E+04  0.000E+00  0.000E+00  0.000E+00  3.90171E+01  1.421E-01  2.000E+01  2.000E+04 -1.338E-01
   1   12   24     2     7    7.1573E+04 -1.8442E+03   7.3417E+04  0.000E+00  0.000E+00  0.000E+00  3.87698E+01  1.448E-01  2.000E+01  2.000E+04 -9.221E-02
   1   13   23     2     8    7.3417E+04 -1.0431E+03   7.4460E+04  0.000E+00  0.000E+00  0.000E+00  3.85215E+01  1.465E-01  2.000E+01  2.000E+04 -5.216E-02
   1   14   22     2     9    7.4460E+04  1.9734E+03   7.2487E+04  0.000E+00  0.000E+00  0.000E+00  3.82710E+01  1.460E-01  2.000E+01  2.000E+04  9.867E-02
   1   14   22     3     1    2.2529E+05 -8.3832E+03   2.3367E+05  0.000E+00  0.000E+00  0.000E+00  3.77531E+01  1.976E-01  2.000E+01  2.000E+04 -4.192E-01
   1   15   23     3     2    2.3367E+05 -1.8493E+03   2.3552E+05  0.000E+00  0.000E+00  0.000E+00  3.68669E+01  2.002E-01  2.000E+01  2.000E+04 -9.247E-02
   1   15   24     3     3    2.3552E+05 -1.4500E+03   2.3697E+05  0.000E+00  0.000E+00  0.000E+00  3.59788E+01  2.011E-01  2.000E+01  2.000E+04 -7.250E-02
   1   15   25     3     4    2.3697E+05 -1.4815E+03   2.3845E+05  0.000E+00  0.000E+00  0.000E+00  3.50907E+01  2.018E-01  2.000E+01  2.000E+04 -7.408E-02
   1   15   26     3     5    2.3845E+05 -1.9795E+03   2.4043E+05  0.000E+00  0.000E+00  0.000E+00  3.42027E+01  2.027E-01  2.000E+01  2.000E+04 -9.898E-02
   1   16   27     3     6    2.4043E+05 -2.6208E+03   2.4305E+05  0.000E+00  0.000E+00  0.000E+00  3.33150E+01  2.039E-01  2.000E+01  2.000E+04 -1.310E-01
   1   17   28     3     7    2.4305E+05 -3.3872E+03   2.4644E+05  0.000E+00  0.000E+00  0.000E+00  3.24276E+01  2.054E-01  2.000E+01  2.000E+04 -1.694E-01
   1   18   29     3     8    2.4644E+05 -5.0188E+03   2.5146E+05  0.000E+00  0.000E+00  0.000E+00  3.15408E+01  2.075E-01  2.000E+01  2.000E+04 -2.509E-01
   1   18   30     3     9    2.5146E+05 -4.4494E+03   2.5591E+05  0.000E+00  0.000E+00  0.000E+00  3.06543E+01  2.098E-01  2.000E+01  2.000E+04 -2.225E-01



1
              HEAD IN LAYER   1 AT END OF TIME STEP   1 IN STRESS PERIOD    9
  ---------------------------------------------------------------------------

          1      2      3      4      5      6      7      8      9     10
         11     12     13     14     15     16     17     18     19     20
         21     22     23     24     25     26     27     28     29     30
 .........................................................................
   1  ****** ****** ****** ****** ****** ****** ****** ****** ****** ******
      ****** ****** ****** ****** ****** ****** ****** ****** ****** ******
      ****** ****** ****** ****** ****** ****** ****** ****** ****** ******
   2  ****** ****** ****** ****** ****** ****** ****** ****** ****** ******
      ****** ****** ****** ****** ****** ****** ****** ****** ****** ******
      ****** ****** ****** ****** ****** ****** ****** ****** ****** ******
   3  ****** ****** ****** ****** ****** ****** ****** ****** ****** ******
      ****** ****** ****** ****** ****** ****** ****** ****** ****** ******
      ****** ****** ****** ****** ****** ****** ****** ****** ****** ******
   4  ****** ****** ****** ****** ****** ****** ****** ****** ****** ******
      ****** ****** ****** ****** ****** ****** ****** ****** ****** ******
      ****** ****** ****** ****** ****** ****** ****** ****** ****** ******
   5  ****** ****** ****** ****** ****** ****** ****** ****** ****** ******
      ****** ****** ****** ****** ****** ****** ****** ****** ****** ******
      ****** ****** ****** ****** ****** ****** ****** ****** ****** ******
   6  ****** ****** ****** ****** ****** ****** ****** ****** ****** ******
      ****** ****** ****** ****** ****** ****** ****** ****** ****** ******
      ****** ****** ****** ****** ****** ****** ****** ****** ****** ******
   7  ****** ****** ****** ****** ****** ****** ****** ****** ****** ******
      ****** ****** ****** ****** ****** ****** ****** ****** ****** ******
      ****** ****** ****** ****** ****** ****** ****** ****** ****** ******
   8  ****** ****** ****** ****** ****** ****** ****** ****** ****** ******
      ****** ****** ****** ****** ****** ****** ****** ****** ****** ******
      ****** ****** ****** ****** ****** ****** ****** ****** ****** ******
   9  ****** ****** ****** ****** ****** ****** ****** ****** ****** ******
      ****** ****** ****** ****** ****** ****** ****** ****** ****** ******
      ****** ****** ****** ****** ****** ****** ****** ****** ****** ******
  10  ****** ****** ****** ****** ****** ****** ****** ****** ****** ******
      ****** ****** ****** ****** ****** ****** ****** ****** ****** ******
      ****** ****** ****** ****** ****** ****** ****** ****** ****** ******
  11  ****** ****** ****** ****** ****** ****** ****** ****** ****** ******
      ****** ****** ****** ****** ****** ****** ****** ****** ****** ******
      ****** ****** ****** ****** ****** ****** ****** ****** ****** ******
  12  ****** ****** ****** ****** ****** ****** ****** ****** ****** ******
      ****** ****** ****** ****** ****** ****** ****** ****** ****** ******
      ****** ****** ****** ****** ****** ****** ****** ****** ****** ******
  13  ****** ****** ****** ****** ****** ****** ****** ****** ****** ******
      ****** ****** ****** ****** ****** ****** ****** ****** ****** ******
      ****** ****** ****** ****** ****** ****** ****** ****** ****** ******
  14  ****** ****** ****** ****** ****** ****** ****** ****** ****** ******
      ****** ****** ****** ****** ****** ****** ****** ****** ****** ******
      ****** ****** ****** ****** ****** ****** ****** ****** ****** ******
  15  ****** ****** ****** ****** ****** ****** ****** ****** ****** ******
      ****** ****** ****** ****** ****** ****** ****** ****** ****** ******
      ****** ****** ****** ****** ****** ****** ****** ****** ****** ******
  16  ****** ****** ****** ****** ****** ****** ****** ****** ****** ******
      ****** ****** ****** ****** ****** ****** ****** ****** ****** ******
      ****** ****** ****** ****** ****** ****** ****** ****** ****** ******
  17  ****** ****** ****** ****** ****** ****** ****** ****** ****** ******
      ****** ****** ****** ****** ****** ****** ****** ****** ****** ******
      ****** ****** ****** ****** ****** ****** ****** ****** ****** ******
  18  ****** ****** ****** ****** ****** ****** ****** ****** ****** ******
      ****** ****** ****** ****** ****** ****** ****** ****** ****** ******
      ****** ****** ****** ****** ****** ****** ****** ****** ****** ******
  19  ****** ****** ****** ****** ****** ****** ****** ****** ****** ******
      ****** ****** ****** ****** ****** ****** ****** ****** ****** ******
      ****** ****** ****** ****** ****** ****** ****** ****** ****** ******
  20  ****** ****** ****** ****** ****** ****** ****** ****** ****** ******
      ****** ****** ****** ****** ****** ****** ****** ****** ****** ******
      ****** ****** ****** ****** ****** ****** ****** ****** ****** ******
  21  ****** ****** ****** ****** ****** ****** ****** ****** ****** ******
      ****** ****** ****** ****** ****** ****** ****** ****** ****** ******
      ****** ****** ****** ****** ****** ****** ****** ****** ****** ******
  22  ****** ****** ****** ****** ****** ****** ****** ****** ****** ******
      ****** ****** ****** ****** ****** ****** ****** ****** ****** ******
      ****** ****** ****** ****** ****** ****** ****** ****** ****** ******
  23  ****** ****** ****** ****** ****** ****** ****** ****** ****** ******
      ****** ****** ****** ****** ****** ****** ****** ****** ****** ******
      ****** ****** ****** ****** ****** ****** ****** ****** ****** ******
  24  ****** ****** ****** ****** ****** ****** ****** ****** ****** ******
      ****** ****** ****** ****** ****** ****** ****** ****** ****** ******
      ****** ****** ****** ****** ****** ****** ****** ****** ****** ******
  25  ****** ****** ****** ****** ****** ****** ****** ****** ****** ******
      ****** ****** ****** ****** ****** ****** ****** ****** ****** ******
      ****** ****** ****** ****** ****** ****** ****** ****** ****** ******

 HEAD WILL BE SAVED ON UNIT   51 AT END OF TIME STEP    1, STRESS PERIOD    9
1
  VOLUMETRIC BUDGET FOR ENTIRE MODEL AT END OF TIME STEP    1, STRESS PERIOD   9
  ------------------------------------------------------------------------------

     CUMULATIVE VOLUMES      L**3       RATES FOR THIS TIME STEP      L**3/T
     ------------------                 ------------------------

           IN:                                      IN:
           ---                                      ---
             STORAGE =    24682922.9899               STORAGE =        2230.5508
       CONSTANT HEAD =   133377056.1874         CONSTANT HEAD =      169886.4071
               WELLS =           0.0000                 WELLS =           0.0000
            RECHARGE =    18878400.0000              RECHARGE =       13800.0000
      STREAM LEAKAGE =     7710152.5838        STREAM LEAKAGE =        7068.3739

            TOTAL IN =   184648531.7611              TOTAL IN =      192985.3317

          OUT:                                     OUT:
          ----                                     ----
             STORAGE =     1620538.0518               STORAGE =           0.0000
       CONSTANT HEAD =           0.0000         CONSTANT HEAD =           0.0000
               WELLS =    76156799.4867                 WELLS =       80009.3770
            RECHARGE =           0.0000              RECHARGE =           0.0000
      STREAM LEAKAGE =   106871195.1653        STREAM LEAKAGE =      112975.9574

           TOTAL OUT =   184648532.7037             TOTAL OUT =      192985.3344

            IN - OUT =          -0.9426              IN - OUT =      -2.6823E-03

 PERCENT DISCREPANCY =          -0.00     PERCENT DISCREPANCY =          -0.00






         TIME SUMMARY AT END OF TIME STEP    1 IN STRESS PERIOD    9
                    SECONDS     MINUTES      HOURS       DAYS        YEARS
                    -----------------------------------------------------------
   TIME STEP LENGTH 7.94880E+06 1.32480E+05  2208.0      92.000     0.25188    
 STRESS PERIOD TIME 7.94880E+06 1.32480E+05  2208.0      92.000     0.25188    
         TOTAL TIME 7.10208E+07 1.18368E+06  19728.      822.00      2.2505    
1
1
                            STRESS PERIOD NO.   10, LENGTH =   91.00000    
                            -----------------------------------------------

                              NUMBER OF TIME STEPS =     1

                               MULTIPLIER FOR DELT =     1.500

                            INITIAL TIME STEP SIZE =   91.00000    

 WELL NO.  LAYER   ROW   COL   STRESS RATE         
 --------------------------------------------------
      1      1     18     11     -0.1485E+05
      2      1     23     22     -0.3063E+05
      3      1     23     15     -0.3453E+05

      3 WELLS

                 RECHARGE =  2.000000E-03

 REUSING STREAM SEGMENT DATA FROM LAST STRESS PERIOD
 
 SOLVING FOR HEAD 


     7 CALLS TO PCG ROUTINE FOR TIME STEP   1 IN STRESS PERIOD   10
    26 TOTAL ITERATIONS

 OUTPUT CONTROL FOR STRESS PERIOD   10   TIME STEP    1
    SAVE BUDGET
    SAVE HEAD FOR ALL LAYERS
    PRINT HEAD FOR ALL LAYERS
 UBDSV2 SAVING "STREAMFLOW OUT  " ON UNIT  50 AT TIME STEP  1, STRESS PERIOD  10



 STREAM LISTING     PERIOD     10   STEP        1

 LAYER ROW COL. STREAM  RCH.  FLOW INTO     FLOW TO   FLOW OUT OF   OVRLND.     DIRECT     STREAM       STREAM     STREAM     STREAM   STREAMBED  STREAMBED
                SEG.NO.  NO.  STRM. RCH.    AQUIFER    STRM. RCH.    RUNOFF     PRECIP       ET          HEAD       DEPTH      WIDTH   CONDCTNC.   GRADIENT

   1   13    1     1     1    1.0000E+05 -3.1353E+03   1.0314E+05  0.000E+00  0.000E+00  0.000E+00  4.84074E+01  1.460E-01  2.000E+01  2.000E+04 -1.568E-01
   1   13    2     1     2    1.0314E+05 -5.1772E+03   1.0831E+05  0.000E+00  0.000E+00  0.000E+00  4.79337E+01  1.496E-01  2.000E+01  2.000E+04 -2.589E-01
   1   14    3     1     3    1.0831E+05 -4.1943E+03   1.1251E+05  0.000E+00  0.000E+00  0.000E+00  4.74603E+01  1.535E-01  2.000E+01  2.000E+04 -2.097E-01
   1   15    4     1     4    1.1251E+05 -4.0279E+03   1.1653E+05  0.000E+00  0.000E+00  0.000E+00  4.69865E+01  1.569E-01  2.000E+01  2.000E+04 -2.014E-01
   1   16    5     1     5    1.1653E+05 -4.1099E+03   1.2064E+05  0.000E+00  0.000E+00  0.000E+00  4.65125E+01  1.602E-01  2.000E+01  2.000E+04 -2.055E-01
   1   16    6     1     6    1.2064E+05 -3.1577E+03   1.2380E+05  0.000E+00  0.000E+00  0.000E+00  4.60382E+01  1.632E-01  2.000E+01  2.000E+04 -1.579E-01
   1   16    7     1     7    1.2380E+05 -3.0585E+03   1.2686E+05  0.000E+00  0.000E+00  0.000E+00  4.55634E+01  1.656E-01  2.000E+01  2.000E+04 -1.529E-01
   1   16    8     1     8    1.2686E+05 -2.8093E+03   1.2967E+05  0.000E+00  0.000E+00  0.000E+00  4.50884E+01  1.680E-01  2.000E+01  2.000E+04 -1.405E-01
   1   16    9     1     9    1.2967E+05 -2.3205E+03   1.3199E+05  0.000E+00  0.000E+00  0.000E+00  4.46131E+01  1.700E-01  2.000E+01  2.000E+04 -1.160E-01
   1   16   10     1    10    1.3199E+05 -1.4968E+03   1.3349E+05  0.000E+00  0.000E+00  0.000E+00  4.41374E+01  1.714E-01  2.000E+01  2.000E+04 -7.484E-02
   1   16   11     1    11    1.3349E+05 -4.6624E+02   1.3395E+05  0.000E+00  0.000E+00  0.000E+00  4.36608E+01  1.722E-01  2.000E+01  2.000E+04 -2.331E-02
   1   16   12     1    12    1.3395E+05 -1.2821E+03   1.3524E+05  0.000E+00  0.000E+00  0.000E+00  4.31842E+01  1.729E-01  2.000E+01  2.000E+04 -6.410E-02
   1   15   13     1    13    1.3524E+05 -2.9006E+03   1.3814E+05  0.000E+00  0.000E+00  0.000E+00  4.27086E+01  1.745E-01  2.000E+01  2.000E+04 -1.450E-01
   1   14   14     1    14    1.3814E+05 -3.5572E+03   1.4169E+05  0.000E+00  0.000E+00  0.000E+00  4.22338E+01  1.769E-01  2.000E+01  2.000E+04 -1.779E-01
   1   13   15     1    15    1.4169E+05 -4.1915E+03   1.4588E+05  0.000E+00  0.000E+00  0.000E+00  4.17594E+01  1.799E-01  2.000E+01  2.000E+04 -2.096E-01
   1   12   16     1    16    1.4588E+05 -5.6856E+03   1.5157E+05  0.000E+00  0.000E+00  0.000E+00  4.12858E+01  1.836E-01  2.000E+01  2.000E+04 -2.843E-01
   1   12   17     1    17    1.5157E+05 -3.6590E+03   1.5523E+05  0.000E+00  0.000E+00  0.000E+00  4.08120E+01  1.870E-01  2.000E+01  2.000E+04 -1.829E-01
   1   12   18     1    18    1.5523E+05 -3.5256E+03   1.5876E+05  0.000E+00  0.000E+00  0.000E+00  4.03373E+01  1.896E-01  2.000E+01  2.000E+04 -1.763E-01
   1   12   19     1    19    1.5876E+05 -4.7201E+03   1.6348E+05  0.000E+00  0.000E+00  0.000E+00  3.98630E+01  1.926E-01  2.000E+01  2.000E+04 -2.360E-01
   1   13   20     1    20    1.6348E+05 -2.8951E+03   1.6637E+05  0.000E+00  0.000E+00  0.000E+00  3.93885E+01  1.953E-01  2.000E+01  2.000E+04 -1.448E-01
   1   14   21     1    21    1.6637E+05 -1.7779E+03   1.6815E+05  0.000E+00  0.000E+00  0.000E+00  3.89129E+01  1.970E-01  2.000E+01  2.000E+04 -8.890E-02
   1   14   22     1    22    1.6815E+05  5.0157E+03   1.6313E+05  0.000E+00  0.000E+00  0.000E+00  3.84344E+01  1.958E-01  2.000E+01  2.000E+04  2.508E-01
   1    9   30     2     1    5.0000E+04 -3.0423E+03   5.3042E+04  0.000E+00  0.000E+00  0.000E+00  4.02430E+01  1.180E-01  2.000E+01  2.000E+04 -1.521E-01
   1    9   29     2     2    5.3042E+04 -3.3722E+03   5.6414E+04  0.000E+00  0.000E+00  0.000E+00  3.99973E+01  1.223E-01  2.000E+01  2.000E+04 -1.686E-01
   1    9   28     2     3    5.6414E+04 -3.7517E+03   6.0166E+04  0.000E+00  0.000E+00  0.000E+00  3.97520E+01  1.270E-01  2.000E+01  2.000E+04 -1.876E-01
   1    9   27     2     4    6.0166E+04 -6.5702E+03   6.6736E+04  0.000E+00  0.000E+00  0.000E+00  3.95087E+01  1.337E-01  2.000E+01  2.000E+04 -3.285E-01
   1   10   26     2     5    6.6736E+04 -4.2118E+03   7.0948E+04  0.000E+00  0.000E+00  0.000E+00  3.92654E+01  1.404E-01  2.000E+01  2.000E+04 -2.106E-01
   1   11   25     2     6    7.0948E+04 -3.1507E+03   7.4099E+04  0.000E+00  0.000E+00  0.000E+00  3.90198E+01  1.448E-01  2.000E+01  2.000E+04 -1.575E-01
   1   12   24     2     7    7.4099E+04 -2.2632E+03   7.6362E+04  0.000E+00  0.000E+00  0.000E+00  3.87731E+01  1.481E-01  2.000E+01  2.000E+04 -1.132E-01
   1   13   23     2     8    7.6362E+04 -1.3697E+03   7.7732E+04  0.000E+00  0.000E+00  0.000E+00  3.85252E+01  1.502E-01  2.000E+01  2.000E+04 -6.849E-02
   1   14   22     2     9    7.7732E+04  1.8252E+03   7.5907E+04  0.000E+00  0.000E+00  0.000E+00  3.82749E+01  1.499E-01  2.000E+01  2.000E+04  9.126E-02
   1   14   22     3     1    2.3904E+05 -8.4696E+03   2.4751E+05  0.000E+00  0.000E+00  0.000E+00  3.77602E+01  2.046E-01  2.000E+01  2.000E+04 -4.235E-01
   1   15   23     3     2    2.4751E+05 -2.2625E+03   2.4977E+05  0.000E+00  0.000E+00  0.000E+00  3.68740E+01  2.073E-01  2.000E+01  2.000E+04 -1.131E-01
   1   15   24     3     3    2.4977E+05 -1.7454E+03   2.5152E+05  0.000E+00  0.000E+00  0.000E+00  3.59861E+01  2.083E-01  2.000E+01  2.000E+04 -8.727E-02
   1   15   25     3     4    2.5152E+05 -1.7757E+03   2.5329E+05  0.000E+00  0.000E+00  0.000E+00  3.50981E+01  2.092E-01  2.000E+01  2.000E+04 -8.879E-02
   1   15   26     3     5    2.5329E+05 -2.3556E+03   2.5565E+05  0.000E+00  0.000E+00  0.000E+00  3.42102E+01  2.102E-01  2.000E+01  2.000E+04 -1.178E-01
   1   16   27     3     6    2.5565E+05 -3.0953E+03   2.5874E+05  0.000E+00  0.000E+00  0.000E+00  3.33227E+01  2.116E-01  2.000E+01  2.000E+04 -1.548E-01
   1   17   28     3     7    2.5874E+05 -3.8721E+03   2.6262E+05  0.000E+00  0.000E+00  0.000E+00  3.24355E+01  2.133E-01  2.000E+01  2.000E+04 -1.936E-01
   1   18   29     3     8    2.6262E+05 -5.4750E+03   2.6809E+05  0.000E+00  0.000E+00  0.000E+00  3.15489E+01  2.156E-01  2.000E+01  2.000E+04 -2.737E-01
   1   18   30     3     9    2.6809E+05 -4.7913E+03   2.7288E+05  0.000E+00  0.000E+00  0.000E+00  3.06625E+01  2.181E-01  2.000E+01  2.000E+04 -2.396E-01



1
              HEAD IN LAYER   1 AT END OF TIME STEP   1 IN STRESS PERIOD   10
  ---------------------------------------------------------------------------

          1      2      3      4      5      6      7      8      9     10
         11     12     13     14     15     16     17     18     19     20
         21     22     23     24     25     26     27     28     29     30
 .........................................................................
   1  ****** ****** ****** ****** ****** ****** ****** ****** ****** ******
      ****** ****** ****** ****** ****** ****** ****** ****** ****** ******
      ****** ****** ****** ****** ****** ****** ****** ****** ****** ******
   2  ****** ****** ****** ****** ****** ****** ****** ****** ****** ******
      ****** ****** ****** ****** ****** ****** ****** ****** ****** ******
      ****** ****** ****** ****** ****** ****** ****** ****** ****** ******
   3  ****** ****** ****** ****** ****** ****** ****** ****** ****** ******
      ****** ****** ****** ****** ****** ****** ****** ****** ****** ******
      ****** ****** ****** ****** ****** ****** ****** ****** ****** ******
   4  ****** ****** ****** ****** ****** ****** ****** ****** ****** ******
      ****** ****** ****** ****** ****** ****** ****** ****** ****** ******
      ****** ****** ****** ****** ****** ****** ****** ****** ****** ******
   5  ****** ****** ****** ****** ****** ****** ****** ****** ****** ******
      ****** ****** ****** ****** ****** ****** ****** ****** ****** ******
      ****** ****** ****** ****** ****** ****** ****** ****** ****** ******
   6  ****** ****** ****** ****** ****** ****** ****** ****** ****** ******
      ****** ****** ****** ****** ****** ****** ****** ****** ****** ******
      ****** ****** ****** ****** ****** ****** ****** ****** ****** ******
   7  ****** ****** ****** ****** ****** ****** ****** ****** ****** ******
      ****** ****** ****** ****** ****** ****** ****** ****** ****** ******
      ****** ****** ****** ****** ****** ****** ****** ****** ****** ******
   8  ****** ****** ****** ****** ****** ****** ****** ****** ****** ******
      ****** ****** ****** ****** ****** ****** ****** ****** ****** ******
      ****** ****** ****** ****** ****** ****** ****** ****** ****** ******
   9  ****** ****** ****** ****** ****** ****** ****** ****** ****** ******
      ****** ****** ****** ****** ****** ****** ****** ****** ****** ******
      ****** ****** ****** ****** ****** ****** ****** ****** ****** ******
  10  ****** ****** ****** ****** ****** ****** ****** ****** ****** ******
      ****** ****** ****** ****** ****** ****** ****** ****** ****** ******
      ****** ****** ****** ****** ****** ****** ****** ****** ****** ******
  11  ****** ****** ****** ****** ****** ****** ****** ****** ****** ******
      ****** ****** ****** ****** ****** ****** ****** ****** ****** ******
      ****** ****** ****** ****** ****** ****** ****** ****** ****** ******
  12  ****** ****** ****** ****** ****** ****** ****** ****** ****** ******
      ****** ****** ****** ****** ****** ****** ****** ****** ****** ******
      ****** ****** ****** ****** ****** ****** ****** ****** ****** ******
  13  ****** ****** ****** ****** ****** ****** ****** ****** ****** ******
      ****** ****** ****** ****** ****** ****** ****** ****** ****** ******
      ****** ****** ****** ****** ****** ****** ****** ****** ****** ******
  14  ****** ****** ****** ****** ****** ****** ****** ****** ****** ******
      ****** ****** ****** ****** ****** ****** ****** ****** ****** ******
      ****** ****** ****** ****** ****** ****** ****** ****** ****** ******
  15  ****** ****** ****** ****** ****** ****** ****** ****** ****** ******
      ****** ****** ****** ****** ****** ****** ****** ****** ****** ******
      ****** ****** ****** ****** ****** ****** ****** ****** ****** ******
  16  ****** ****** ****** ****** ****** ****** ****** ****** ****** ******
      ****** ****** ****** ****** ****** ****** ****** ****** ****** ******
      ****** ****** ****** ****** ****** ****** ****** ****** ****** ******
  17  ****** ****** ****** ****** ****** ****** ****** ****** ****** ******
      ****** ****** ****** ****** ****** ****** ****** ****** ****** ******
      ****** ****** ****** ****** ****** ****** ****** ****** ****** ******
  18  ****** ****** ****** ****** ****** ****** ****** ****** ****** ******
      ****** ****** ****** ****** ****** ****** ****** ****** ****** ******
      ****** ****** ****** ****** ****** ****** ****** ****** ****** ******
  19  ****** ****** ****** ****** ****** ****** ****** ****** ****** ******
      ****** ****** ****** ****** ****** ****** ****** ****** ****** ******
      ****** ****** ****** ****** ****** ****** ****** ****** ****** ******
  20  ****** ****** ****** ****** ****** ****** ****** ****** ****** ******
      ****** ****** ****** ****** ****** ****** ****** ****** ****** ******
      ****** ****** ****** ****** ****** ****** ****** ****** ****** ******
  21  ****** ****** ****** ****** ****** ****** ****** ****** ****** ******
      ****** ****** ****** ****** ****** ****** ****** ****** ****** ******
      ****** ****** ****** ****** ****** ****** ****** ****** ****** ******
  22  ****** ****** ****** ****** ****** ****** ****** ****** ****** ******
      ****** ****** ****** ****** ****** ****** ****** ****** ****** ******
      ****** ****** ****** ****** ****** ****** ****** ****** ****** ******
  23  ****** ****** ****** ****** ****** ****** ****** ****** ****** ******
      ****** ****** ****** ****** ****** ****** ****** ****** ****** ******
      ****** ****** ****** ****** ****** ****** ****** ****** ****** ******
  24  ****** ****** ****** ****** ****** ****** ****** ****** ****** ******
      ****** ****** ****** ****** ****** ****** ****** ****** ****** ******
      ****** ****** ****** ****** ****** ****** ****** ****** ****** ******
  25  ****** ****** ****** ****** ****** ****** ****** ****** ****** ******
      ****** ****** ****** ****** ****** ****** ****** ****** ****** ******
      ****** ****** ****** ****** ****** ****** ****** ****** ****** ******

 HEAD WILL BE SAVED ON UNIT   51 AT END OF TIME STEP    1, STRESS PERIOD   10
1
  VOLUMETRIC BUDGET FOR ENTIRE MODEL AT END OF TIME STEP    1, STRESS PERIOD  10
  ------------------------------------------------------------------------------

     CUMULATIVE VOLUMES      L**3       RATES FOR THIS TIME STEP      L**3/T
     ------------------                 ------------------------

           IN:                                      IN:
           ---                                      ---
             STORAGE =    24682922.9899               STORAGE =           0.0000
       CONSTANT HEAD =   147808767.3419         CONSTANT HEAD =      158590.2325
               WELLS =           0.0000                 WELLS =           0.0000
            RECHARGE =    23901600.0000              RECHARGE =       55200.0000
      STREAM LEAKAGE =     8332672.5301        STREAM LEAKAGE =        6840.8785

            TOTAL IN =   204725962.8618              TOTAL IN =      220631.1110

          OUT:                                     OUT:
          ----                                     ----
             STORAGE =     2612377.7173               STORAGE =       10899.3370
       CONSTANT HEAD =           0.0000         CONSTANT HEAD =           0.0000
               WELLS =    83437652.7931                 WELLS =       80009.3770
            RECHARGE =           0.0000              RECHARGE =           0.0000
      STREAM LEAKAGE =   118675933.1304        STREAM LEAKAGE =      129722.3952

           TOTAL OUT =   204725963.6408             TOTAL OUT =      220631.1092

            IN - OUT =          -0.7790              IN - OUT =       1.7981E-03

 PERCENT DISCREPANCY =          -0.00     PERCENT DISCREPANCY =           0.00






         TIME SUMMARY AT END OF TIME STEP    1 IN STRESS PERIOD   10
                    SECONDS     MINUTES      HOURS       DAYS        YEARS
                    -----------------------------------------------------------
   TIME STEP LENGTH 7.86240E+06 1.31040E+05  2184.0      91.000     0.24914    
 STRESS PERIOD TIME 7.86240E+06 1.31040E+05  2184.0      91.000     0.24914    
         TOTAL TIME 7.88832E+07 1.31472E+06  21912.      913.00      2.4997    
1
1
                            STRESS PERIOD NO.   11, LENGTH =   91.00000    
                            -----------------------------------------------

                              NUMBER OF TIME STEPS =     1

                               MULTIPLIER FOR DELT =     1.500

                            INITIAL TIME STEP SIZE =   91.00000    

 WELL NO.  LAYER   ROW   COL   STRESS RATE         
 --------------------------------------------------
      1      1     18     11     -0.1485E+05
      2      1     23     22     -0.3063E+05
      3      1     23     15     -0.3453E+05

      3 WELLS

                 RECHARGE =   0.00000    

 REUSING STREAM SEGMENT DATA FROM LAST STRESS PERIOD
 
 SOLVING FOR HEAD 


     7 CALLS TO PCG ROUTINE FOR TIME STEP   1 IN STRESS PERIOD   11
    26 TOTAL ITERATIONS

 OUTPUT CONTROL FOR STRESS PERIOD   11   TIME STEP    1
    SAVE BUDGET
    SAVE HEAD FOR ALL LAYERS
    PRINT HEAD FOR ALL LAYERS
 UBDSV2 SAVING "STREAMFLOW OUT  " ON UNIT  50 AT TIME STEP  1, STRESS PERIOD  11



 STREAM LISTING     PERIOD     11   STEP        1

 LAYER ROW COL. STREAM  RCH.  FLOW INTO     FLOW TO   FLOW OUT OF   OVRLND.     DIRECT     STREAM       STREAM     STREAM     STREAM   STREAMBED  STREAMBED
                SEG.NO.  NO.  STRM. RCH.    AQUIFER    STRM. RCH.    RUNOFF     PRECIP       ET          HEAD       DEPTH      WIDTH   CONDCTNC.   GRADIENT

   1   13    1     1     1    1.0000E+05 -2.6518E+03   1.0265E+05  0.000E+00  0.000E+00  0.000E+00  4.84072E+01  1.458E-01  2.000E+01  2.000E+04 -1.326E-01
   1   13    2     1     2    1.0265E+05 -4.5448E+03   1.0720E+05  0.000E+00  0.000E+00  0.000E+00  4.79330E+01  1.489E-01  2.000E+01  2.000E+04 -2.272E-01
   1   14    3     1     3    1.0720E+05 -3.5408E+03   1.1074E+05  0.000E+00  0.000E+00  0.000E+00  4.74591E+01  1.523E-01  2.000E+01  2.000E+04 -1.770E-01
   1   15    4     1     4    1.1074E+05 -3.3781E+03   1.1412E+05  0.000E+00  0.000E+00  0.000E+00  4.69847E+01  1.552E-01  2.000E+01  2.000E+04 -1.689E-01
   1   16    5     1     5    1.1412E+05 -3.5112E+03   1.1763E+05  0.000E+00  0.000E+00  0.000E+00  4.65103E+01  1.580E-01  2.000E+01  2.000E+04 -1.756E-01
   1   16    6     1     6    1.1763E+05 -2.6838E+03   1.2031E+05  0.000E+00  0.000E+00  0.000E+00  4.60355E+01  1.605E-01  2.000E+01  2.000E+04 -1.342E-01
   1   16    7     1     7    1.2031E+05 -2.5777E+03   1.2289E+05  0.000E+00  0.000E+00  0.000E+00  4.55604E+01  1.627E-01  2.000E+01  2.000E+04 -1.289E-01
   1   16    8     1     8    1.2289E+05 -2.3246E+03   1.2521E+05  0.000E+00  0.000E+00  0.000E+00  4.50851E+01  1.646E-01  2.000E+01  2.000E+04 -1.162E-01
   1   16    9     1     9    1.2521E+05 -1.8360E+03   1.2705E+05  0.000E+00  0.000E+00  0.000E+00  4.46095E+01  1.663E-01  2.000E+01  2.000E+04 -9.180E-02
   1   16   10     1    10    1.2705E+05 -1.0167E+03   1.2807E+05  0.000E+00  0.000E+00  0.000E+00  4.41333E+01  1.674E-01  2.000E+01  2.000E+04 -5.083E-02
   1   16   11     1    11    1.2807E+05  7.4173E+00   1.2806E+05  0.000E+00  0.000E+00  0.000E+00  4.36564E+01  1.678E-01  2.000E+01  2.000E+04  3.709E-04
   1   16   12     1    12    1.2806E+05 -6.7701E+02   1.2873E+05  0.000E+00  0.000E+00  0.000E+00  4.31794E+01  1.681E-01  2.000E+01  2.000E+04 -3.385E-02
   1   15   13     1    13    1.2873E+05 -2.2401E+03   1.3098E+05  0.000E+00  0.000E+00  0.000E+00  4.27033E+01  1.692E-01  2.000E+01  2.000E+04 -1.120E-01
   1   14   14     1    14    1.3098E+05 -2.8850E+03   1.3386E+05  0.000E+00  0.000E+00  0.000E+00  4.22280E+01  1.712E-01  2.000E+01  2.000E+04 -1.442E-01
   1   13   15     1    15    1.3386E+05 -3.5305E+03   1.3739E+05  0.000E+00  0.000E+00  0.000E+00  4.17532E+01  1.737E-01  2.000E+01  2.000E+04 -1.765E-01
   1   12   16     1    16    1.3739E+05 -5.0590E+03   1.4245E+05  0.000E+00  0.000E+00  0.000E+00  4.12792E+01  1.770E-01  2.000E+01  2.000E+04 -2.529E-01
   1   12   17     1    17    1.4245E+05 -3.1866E+03   1.4564E+05  0.000E+00  0.000E+00  0.000E+00  4.08051E+01  1.801E-01  2.000E+01  2.000E+04 -1.593E-01
   1   12   18     1    18    1.4564E+05 -3.0598E+03   1.4870E+05  0.000E+00  0.000E+00  0.000E+00  4.03301E+01  1.824E-01  2.000E+01  2.000E+04 -1.530E-01
   1   12   19     1    19    1.4870E+05 -4.1518E+03   1.5285E+05  0.000E+00  0.000E+00  0.000E+00  3.98555E+01  1.851E-01  2.000E+01  2.000E+04 -2.076E-01
   1   13   20     1    20    1.5285E+05 -2.3339E+03   1.5518E+05  0.000E+00  0.000E+00  0.000E+00  3.93806E+01  1.874E-01  2.000E+01  2.000E+04 -1.167E-01
   1   14   21     1    21    1.5518E+05 -1.2653E+03   1.5645E+05  0.000E+00  0.000E+00  0.000E+00  3.89047E+01  1.888E-01  2.000E+01  2.000E+04 -6.326E-02
   1   14   22     1    22    1.5645E+05  5.1150E+03   1.5133E+05  0.000E+00  0.000E+00  0.000E+00  3.84260E+01  1.873E-01  2.000E+01  2.000E+04  2.557E-01
   1    9   30     2     1    5.0000E+04 -2.6009E+03   5.2601E+04  0.000E+00  0.000E+00  0.000E+00  4.02427E+01  1.177E-01  2.000E+01  2.000E+04 -1.300E-01
   1    9   29     2     2    5.2601E+04 -2.9345E+03   5.5535E+04  0.000E+00  0.000E+00  0.000E+00  3.99964E+01  1.214E-01  2.000E+01  2.000E+04 -1.467E-01
   1    9   28     2     3    5.5535E+04 -3.3175E+03   5.8853E+04  0.000E+00  0.000E+00  0.000E+00  3.97506E+01  1.256E-01  2.000E+01  2.000E+04 -1.659E-01
   1    9   27     2     4    5.8853E+04 -5.9985E+03   6.4851E+04  0.000E+00  0.000E+00  0.000E+00  3.95066E+01  1.316E-01  2.000E+01  2.000E+04 -2.999E-01
   1   10   26     2     5    6.4851E+04 -3.6141E+03   6.8466E+04  0.000E+00  0.000E+00  0.000E+00  3.92627E+01  1.377E-01  2.000E+01  2.000E+04 -1.807E-01
   1   11   25     2     6    6.8466E+04 -2.5764E+03   7.1042E+04  0.000E+00  0.000E+00  0.000E+00  3.90165E+01  1.415E-01  2.000E+01  2.000E+04 -1.288E-01
   1   12   24     2     7    7.1042E+04 -1.7520E+03   7.2794E+04  0.000E+00  0.000E+00  0.000E+00  3.87691E+01  1.441E-01  2.000E+01  2.000E+04 -8.760E-02
   1   13   23     2     8    7.2794E+04 -9.6681E+02   7.3761E+04  0.000E+00  0.000E+00  0.000E+00  3.85207E+01  1.457E-01  2.000E+01  2.000E+04 -4.834E-02
   1   14   22     2     9    7.3761E+04  1.9976E+03   7.1763E+04  0.000E+00  0.000E+00  0.000E+00  3.82701E+01  1.451E-01  2.000E+01  2.000E+04  9.988E-02
   1   14   22     3     1    2.2310E+05 -8.3648E+03   2.3146E+05  0.000E+00  0.000E+00  0.000E+00  3.77520E+01  1.964E-01  2.000E+01  2.000E+04 -4.182E-01
   1   15   23     3     2    2.3146E+05 -1.7832E+03   2.3324E+05  0.000E+00  0.000E+00  0.000E+00  3.68657E+01  1.991E-01  2.000E+01  2.000E+04 -8.916E-02
   1   15   24     3     3    2.3324E+05 -1.3914E+03   2.3463E+05  0.000E+00  0.000E+00  0.000E+00  3.59777E+01  1.999E-01  2.000E+01  2.000E+04 -6.957E-02
   1   15   25     3     4    2.3463E+05 -1.4178E+03   2.3605E+05  0.000E+00  0.000E+00  0.000E+00  3.50895E+01  2.006E-01  2.000E+01  2.000E+04 -7.089E-02
   1   15   26     3     5    2.3605E+05 -1.8918E+03   2.3794E+05  0.000E+00  0.000E+00  0.000E+00  3.42014E+01  2.014E-01  2.000E+01  2.000E+04 -9.459E-02
   1   16   27     3     6    2.3794E+05 -2.5201E+03   2.4046E+05  0.000E+00  0.000E+00  0.000E+00  3.33137E+01  2.026E-01  2.000E+01  2.000E+04 -1.260E-01
   1   17   28     3     7    2.4046E+05 -3.2864E+03   2.4375E+05  0.000E+00  0.000E+00  0.000E+00  3.24263E+01  2.040E-01  2.000E+01  2.000E+04 -1.643E-01
   1   18   29     3     8    2.4375E+05 -4.9292E+03   2.4868E+05  0.000E+00  0.000E+00  0.000E+00  3.15394E+01  2.061E-01  2.000E+01  2.000E+04 -2.465E-01
   1   18   30     3     9    2.4868E+05 -4.3748E+03   2.5305E+05  0.000E+00  0.000E+00  0.000E+00  3.06529E+01  2.084E-01  2.000E+01  2.000E+04 -2.187E-01



1
              HEAD IN LAYER   1 AT END OF TIME STEP   1 IN STRESS PERIOD   11
  ---------------------------------------------------------------------------

          1      2      3      4      5      6      7      8      9     10
         11     12     13     14     15     16     17     18     19     20
         21     22     23     24     25     26     27     28     29     30
 .........................................................................
   1  ****** ****** ****** ****** ****** ****** ****** ****** ****** ******
      ****** ****** ****** ****** ****** ****** ****** ****** ****** ******
      ****** ****** ****** ****** ****** ****** ****** ****** ****** ******
   2  ****** ****** ****** ****** ****** ****** ****** ****** ****** ******
      ****** ****** ****** ****** ****** ****** ****** ****** ****** ******
      ****** ****** ****** ****** ****** ****** ****** ****** ****** ******
   3  ****** ****** ****** ****** ****** ****** ****** ****** ****** ******
      ****** ****** ****** ****** ****** ****** ****** ****** ****** ******
      ****** ****** ****** ****** ****** ****** ****** ****** ****** ******
   4  ****** ****** ****** ****** ****** ****** ****** ****** ****** ******
      ****** ****** ****** ****** ****** ****** ****** ****** ****** ******
      ****** ****** ****** ****** ****** ****** ****** ****** ****** ******
   5  ****** ****** ****** ****** ****** ****** ****** ****** ****** ******
      ****** ****** ****** ****** ****** ****** ****** ****** ****** ******
      ****** ****** ****** ****** ****** ****** ****** ****** ****** ******
   6  ****** ****** ****** ****** ****** ****** ****** ****** ****** ******
      ****** ****** ****** ****** ****** ****** ****** ****** ****** ******
      ****** ****** ****** ****** ****** ****** ****** ****** ****** ******
   7  ****** ****** ****** ****** ****** ****** ****** ****** ****** ******
      ****** ****** ****** ****** ****** ****** ****** ****** ****** ******
      ****** ****** ****** ****** ****** ****** ****** ****** ****** ******
   8  ****** ****** ****** ****** ****** ****** ****** ****** ****** ******
      ****** ****** ****** ****** ****** ****** ****** ****** ****** ******
      ****** ****** ****** ****** ****** ****** ****** ****** ****** ******
   9  ****** ****** ****** ****** ****** ****** ****** ****** ****** ******
      ****** ****** ****** ****** ****** ****** ****** ****** ****** ******
      ****** ****** ****** ****** ****** ****** ****** ****** ****** ******
  10  ****** ****** ****** ****** ****** ****** ****** ****** ****** ******
      ****** ****** ****** ****** ****** ****** ****** ****** ****** ******
      ****** ****** ****** ****** ****** ****** ****** ****** ****** ******
  11  ****** ****** ****** ****** ****** ****** ****** ****** ****** ******
      ****** ****** ****** ****** ****** ****** ****** ****** ****** ******
      ****** ****** ****** ****** ****** ****** ****** ****** ****** ******
  12  ****** ****** ****** ****** ****** ****** ****** ****** ****** ******
      ****** ****** ****** ****** ****** ****** ****** ****** ****** ******
      ****** ****** ****** ****** ****** ****** ****** ****** ****** ******
  13  ****** ****** ****** ****** ****** ****** ****** ****** ****** ******
      ****** ****** ****** ****** ****** ****** ****** ****** ****** ******
      ****** ****** ****** ****** ****** ****** ****** ****** ****** ******
  14  ****** ****** ****** ****** ****** ****** ****** ****** ****** ******
      ****** ****** ****** ****** ****** ****** ****** ****** ****** ******
      ****** ****** ****** ****** ****** ****** ****** ****** ****** ******
  15  ****** ****** ****** ****** ****** ****** ****** ****** ****** ******
      ****** ****** ****** ****** ****** ****** ****** ****** ****** ******
      ****** ****** ****** ****** ****** ****** ****** ****** ****** ******
  16  ****** ****** ****** ****** ****** ****** ****** ****** ****** ******
      ****** ****** ****** ****** ****** ****** ****** ****** ****** ******
      ****** ****** ****** ****** ****** ****** ****** ****** ****** ******
  17  ****** ****** ****** ****** ****** ****** ****** ****** ****** ******
      ****** ****** ****** ****** ****** ****** ****** ****** ****** ******
      ****** ****** ****** ****** ****** ****** ****** ****** ****** ******
  18  ****** ****** ****** ****** ****** ****** ****** ****** ****** ******
      ****** ****** ****** ****** ****** ****** ****** ****** ****** ******
      ****** ****** ****** ****** ****** ****** ****** ****** ****** ******
  19  ****** ****** ****** ****** ****** ****** ****** ****** ****** ******
      ****** ****** ****** ****** ****** ****** ****** ****** ****** ******
      ****** ****** ****** ****** ****** ****** ****** ****** ****** ******
  20  ****** ****** ****** ****** ****** ****** ****** ****** ****** ******
      ****** ****** ****** ****** ****** ****** ****** ****** ****** ******
      ****** ****** ****** ****** ****** ****** ****** ****** ****** ******
  21  ****** ****** ****** ****** ****** ****** ****** ****** ****** ******
      ****** ****** ****** ****** ****** ****** ****** ****** ****** ******
      ****** ****** ****** ****** ****** ****** ****** ****** ****** ******
  22  ****** ****** ****** ****** ****** ****** ****** ****** ****** ******
      ****** ****** ****** ****** ****** ****** ****** ****** ****** ******
      ****** ****** ****** ****** ****** ****** ****** ****** ****** ******
  23  ****** ****** ****** ****** ****** ****** ****** ****** ****** ******
      ****** ****** ****** ****** ****** ****** ****** ****** ****** ******
      ****** ****** ****** ****** ****** ****** ****** ****** ****** ******
  24  ****** ****** ****** ****** ****** ****** ****** ****** ****** ******
      ****** ****** ****** ****** ****** ****** ****** ****** ****** ******
      ****** ****** ****** ****** ****** ****** ****** ****** ****** ******
  25  ****** ****** ****** ****** ****** ****** ****** ****** ****** ******
      ****** ****** ****** ****** ****** ****** ****** ****** ****** ******
      ****** ****** ****** ****** ****** ****** ****** ****** ****** ******

 HEAD WILL BE SAVED ON UNIT   51 AT END OF TIME STEP    1, STRESS PERIOD   11
1
  VOLUMETRIC BUDGET FOR ENTIRE MODEL AT END OF TIME STEP    1, STRESS PERIOD  11
  ------------------------------------------------------------------------------

     CUMULATIVE VOLUMES      L**3       RATES FOR THIS TIME STEP      L**3/T
     ------------------                 ------------------------

           IN:                                      IN:
           ---                                      ---
             STORAGE =    25757227.1875               STORAGE =       11805.5406
       CONSTANT HEAD =   163393293.0912         CONSTANT HEAD =      171258.5247
               WELLS =           0.0000                 WELLS =           0.0000
            RECHARGE =    23901600.0000              RECHARGE =           0.0000
      STREAM LEAKAGE =     8980587.2541        STREAM LEAKAGE =        7119.9420

            TOTAL IN =   222032707.5329              TOTAL IN =      190184.0074

          OUT:                                     OUT:
          ----                                     ----
             STORAGE =     2612377.7173               STORAGE =           0.0000
       CONSTANT HEAD =           0.0000         CONSTANT HEAD =           0.0000
               WELLS =    90718506.0995                 WELLS =       80009.3770
            RECHARGE =           0.0000              RECHARGE =           0.0000
      STREAM LEAKAGE =   128701824.6940        STREAM LEAKAGE =      110174.6326

           TOTAL OUT =   222032708.5108             TOTAL OUT =      190184.0096

            IN - OUT =          -0.9780              IN - OUT =      -2.1867E-03

 PERCENT DISCREPANCY =          -0.00     PERCENT DISCREPANCY =          -0.00






         TIME SUMMARY AT END OF TIME STEP    1 IN STRESS PERIOD   11
                    SECONDS     MINUTES      HOURS       DAYS        YEARS
                    -----------------------------------------------------------
   TIME STEP LENGTH 7.86240E+06 1.31040E+05  2184.0      91.000     0.24914    
 STRESS PERIOD TIME 7.86240E+06 1.31040E+05  2184.0      91.000     0.24914    
         TOTAL TIME 8.67456E+07 1.44576E+06  24096.      1004.0      2.7488    
1
1
                            STRESS PERIOD NO.   12, LENGTH =   91.00000    
                            -----------------------------------------------

                              NUMBER OF TIME STEPS =     1

                               MULTIPLIER FOR DELT =     1.500

                            INITIAL TIME STEP SIZE =   91.00000    

 WELL NO.  LAYER   ROW   COL   STRESS RATE         
 --------------------------------------------------
      1      1     18     11     -0.1485E+05
      2      1     23     22     -0.3063E+05
      3      1     23     15     -0.3453E+05

      3 WELLS

                 RECHARGE =  1.000000E-03

 REUSING STREAM SEGMENT DATA FROM LAST STRESS PERIOD
 
 SOLVING FOR HEAD 


     6 CALLS TO PCG ROUTINE FOR TIME STEP   1 IN STRESS PERIOD   12
    23 TOTAL ITERATIONS

 OUTPUT CONTROL FOR STRESS PERIOD   12   TIME STEP    1
    SAVE BUDGET
    SAVE HEAD FOR ALL LAYERS
    PRINT HEAD FOR ALL LAYERS
 UBDSV2 SAVING "STREAMFLOW OUT  " ON UNIT  50 AT TIME STEP  1, STRESS PERIOD  12



 STREAM LISTING     PERIOD     12   STEP        1

 LAYER ROW COL. STREAM  RCH.  FLOW INTO     FLOW TO   FLOW OUT OF   OVRLND.     DIRECT     STREAM       STREAM     STREAM     STREAM   STREAMBED  STREAMBED
                SEG.NO.  NO.  STRM. RCH.    AQUIFER    STRM. RCH.    RUNOFF     PRECIP       ET          HEAD       DEPTH      WIDTH   CONDCTNC.   GRADIENT

   1   13    1     1     1    1.0000E+05 -2.8256E+03   1.0283E+05  0.000E+00  0.000E+00  0.000E+00  4.84072E+01  1.459E-01  2.000E+01  2.000E+04 -1.413E-01
   1   13    2     1     2    1.0283E+05 -4.7631E+03   1.0759E+05  0.000E+00  0.000E+00  0.000E+00  4.79332E+01  1.491E-01  2.000E+01  2.000E+04 -2.382E-01
   1   14    3     1     3    1.0759E+05 -3.7802E+03   1.1137E+05  0.000E+00  0.000E+00  0.000E+00  4.74595E+01  1.527E-01  2.000E+01  2.000E+04 -1.890E-01
   1   15    4     1     4    1.1137E+05 -3.6198E+03   1.1499E+05  0.000E+00  0.000E+00  0.000E+00  4.69854E+01  1.558E-01  2.000E+01  2.000E+04 -1.810E-01
   1   16    5     1     5    1.1499E+05 -3.7346E+03   1.1872E+05  0.000E+00  0.000E+00  0.000E+00  4.65111E+01  1.588E-01  2.000E+01  2.000E+04 -1.867E-01
   1   16    6     1     6    1.1872E+05 -2.8615E+03   1.2158E+05  0.000E+00  0.000E+00  0.000E+00  4.60365E+01  1.615E-01  2.000E+01  2.000E+04 -1.431E-01
   1   16    7     1     7    1.2158E+05 -2.7573E+03   1.2434E+05  0.000E+00  0.000E+00  0.000E+00  4.55615E+01  1.638E-01  2.000E+01  2.000E+04 -1.379E-01
   1   16    8     1     8    1.2434E+05 -2.5053E+03   1.2685E+05  0.000E+00  0.000E+00  0.000E+00  4.50863E+01  1.658E-01  2.000E+01  2.000E+04 -1.253E-01
   1   16    9     1     9    1.2685E+05 -2.0167E+03   1.2886E+05  0.000E+00  0.000E+00  0.000E+00  4.46108E+01  1.676E-01  2.000E+01  2.000E+04 -1.008E-01
   1   16   10     1    10    1.2886E+05 -1.1962E+03   1.3006E+05  0.000E+00  0.000E+00  0.000E+00  4.41348E+01  1.689E-01  2.000E+01  2.000E+04 -5.981E-02
   1   16   11     1    11    1.3006E+05 -1.7023E+02   1.3023E+05  0.000E+00  0.000E+00  0.000E+00  4.36581E+01  1.694E-01  2.000E+01  2.000E+04 -8.512E-03
   1   16   12     1    12    1.3023E+05 -9.0116E+02   1.3113E+05  0.000E+00  0.000E+00  0.000E+00  4.31812E+01  1.698E-01  2.000E+01  2.000E+04 -4.506E-02
   1   15   13     1    13    1.3113E+05 -2.4844E+03   1.3362E+05  0.000E+00  0.000E+00  0.000E+00  4.27053E+01  1.712E-01  2.000E+01  2.000E+04 -1.242E-01
   1   14   14     1    14    1.3362E+05 -3.1317E+03   1.3675E+05  0.000E+00  0.000E+00  0.000E+00  4.22301E+01  1.733E-01  2.000E+01  2.000E+04 -1.566E-01
   1   13   15     1    15    1.3675E+05 -3.7716E+03   1.4052E+05  0.000E+00  0.000E+00  0.000E+00  4.17555E+01  1.760E-01  2.000E+01  2.000E+04 -1.886E-01
   1   12   16     1    16    1.4052E+05 -5.2788E+03   1.4580E+05  0.000E+00  0.000E+00  0.000E+00  4.12817E+01  1.794E-01  2.000E+01  2.000E+04 -2.639E-01
   1   12   17     1    17    1.4580E+05 -3.3606E+03   1.4916E+05  0.000E+00  0.000E+00  0.000E+00  4.08076E+01  1.826E-01  2.000E+01  2.000E+04 -1.680E-01
   1   12   18     1    18    1.4916E+05 -3.2334E+03   1.5239E+05  0.000E+00  0.000E+00  0.000E+00  4.03328E+01  1.851E-01  2.000E+01  2.000E+04 -1.617E-01
   1   12   19     1    19    1.5239E+05 -4.3634E+03   1.5676E+05  0.000E+00  0.000E+00  0.000E+00  3.98583E+01  1.878E-01  2.000E+01  2.000E+04 -2.182E-01
   1   13   20     1    20    1.5676E+05 -2.5533E+03   1.5931E+05  0.000E+00  0.000E+00  0.000E+00  3.93835E+01  1.904E-01  2.000E+01  2.000E+04 -1.277E-01
   1   14   21     1    21    1.5931E+05 -1.4630E+03   1.6077E+05  0.000E+00  0.000E+00  0.000E+00  3.89077E+01  1.918E-01  2.000E+01  2.000E+04 -7.315E-02
   1   14   22     1    22    1.6077E+05  5.0717E+03   1.5570E+05  0.000E+00  0.000E+00  0.000E+00  3.84291E+01  1.905E-01  2.000E+01  2.000E+04  2.536E-01
   1    9   30     2     1    5.0000E+04 -2.7803E+03   5.2780E+04  0.000E+00  0.000E+00  0.000E+00  4.02428E+01  1.178E-01  2.000E+01  2.000E+04 -1.390E-01
   1    9   29     2     2    5.2780E+04 -3.1122E+03   5.5892E+04  0.000E+00  0.000E+00  0.000E+00  3.99968E+01  1.218E-01  2.000E+01  2.000E+04 -1.556E-01
   1    9   28     2     3    5.5892E+04 -3.4926E+03   5.9385E+04  0.000E+00  0.000E+00  0.000E+00  3.97512E+01  1.262E-01  2.000E+01  2.000E+04 -1.746E-01
   1    9   27     2     4    5.9385E+04 -6.2192E+03   6.5604E+04  0.000E+00  0.000E+00  0.000E+00  3.95075E+01  1.325E-01  2.000E+01  2.000E+04 -3.110E-01
   1   10   26     2     5    6.5604E+04 -3.8517E+03   6.9456E+04  0.000E+00  0.000E+00  0.000E+00  3.92638E+01  1.388E-01  2.000E+01  2.000E+04 -1.926E-01
   1   11   25     2     6    6.9456E+04 -2.8075E+03   7.2263E+04  0.000E+00  0.000E+00  0.000E+00  3.90178E+01  1.428E-01  2.000E+01  2.000E+04 -1.404E-01
   1   12   24     2     7    7.2263E+04 -1.9618E+03   7.4225E+04  0.000E+00  0.000E+00  0.000E+00  3.87707E+01  1.457E-01  2.000E+01  2.000E+04 -9.809E-02
   1   13   23     2     8    7.4225E+04 -1.1373E+03   7.5363E+04  0.000E+00  0.000E+00  0.000E+00  3.85225E+01  1.475E-01  2.000E+01  2.000E+04 -5.686E-02
   1   14   22     2     9    7.5363E+04  1.9301E+03   7.3432E+04  0.000E+00  0.000E+00  0.000E+00  3.82721E+01  1.471E-01  2.000E+01  2.000E+04  9.651E-02
   1   14   22     3     1    2.2913E+05 -8.4087E+03   2.3754E+05  0.000E+00  0.000E+00  0.000E+00  3.77551E+01  1.996E-01  2.000E+01  2.000E+04 -4.204E-01
   1   15   23     3     2    2.3754E+05 -1.9687E+03   2.3951E+05  0.000E+00  0.000E+00  0.000E+00  3.68689E+01  2.022E-01  2.000E+01  2.000E+04 -9.843E-02
   1   15   24     3     3    2.3951E+05 -1.5362E+03   2.4105E+05  0.000E+00  0.000E+00  0.000E+00  3.59809E+01  2.031E-01  2.000E+01  2.000E+04 -7.681E-02
   1   15   25     3     4    2.4105E+05 -1.5672E+03   2.4261E+05  0.000E+00  0.000E+00  0.000E+00  3.50928E+01  2.039E-01  2.000E+01  2.000E+04 -7.836E-02
   1   15   26     3     5    2.4261E+05 -2.0870E+03   2.4470E+05  0.000E+00  0.000E+00  0.000E+00  3.42048E+01  2.048E-01  2.000E+01  2.000E+04 -1.043E-01
   1   16   27     3     6    2.4470E+05 -2.7549E+03   2.4746E+05  0.000E+00  0.000E+00  0.000E+00  3.33171E+01  2.060E-01  2.000E+01  2.000E+04 -1.377E-01
   1   17   28     3     7    2.4746E+05 -3.5237E+03   2.5098E+05  0.000E+00  0.000E+00  0.000E+00  3.24298E+01  2.076E-01  2.000E+01  2.000E+04 -1.762E-01
   1   18   29     3     8    2.5098E+05 -5.1462E+03   2.5613E+05  0.000E+00  0.000E+00  0.000E+00  3.15431E+01  2.098E-01  2.000E+01  2.000E+04 -2.573E-01
   1   18   30     3     9    2.5613E+05 -4.5458E+03   2.6067E+05  0.000E+00  0.000E+00  0.000E+00  3.06566E+01  2.122E-01  2.000E+01  2.000E+04 -2.273E-01



1
              HEAD IN LAYER   1 AT END OF TIME STEP   1 IN STRESS PERIOD   12
  ---------------------------------------------------------------------------

          1      2      3      4      5      6      7      8      9     10
         11     12     13     14     15     16     17     18     19     20
         21     22     23     24     25     26     27     28     29     30
 .........................................................................
   1  ****** ****** ****** ****** ****** ****** ****** ****** ****** ******
      ****** ****** ****** ****** ****** ****** ****** ****** ****** ******
      ****** ****** ****** ****** ****** ****** ****** ****** ****** ******
   2  ****** ****** ****** ****** ****** ****** ****** ****** ****** ******
      ****** ****** ****** ****** ****** ****** ****** ****** ****** ******
      ****** ****** ****** ****** ****** ****** ****** ****** ****** ******
   3  ****** ****** ****** ****** ****** ****** ****** ****** ****** ******
      ****** ****** ****** ****** ****** ****** ****** ****** ****** ******
      ****** ****** ****** ****** ****** ****** ****** ****** ****** ******
   4  ****** ****** ****** ****** ****** ****** ****** ****** ****** ******
      ****** ****** ****** ****** ****** ****** ****** ****** ****** ******
      ****** ****** ****** ****** ****** ****** ****** ****** ****** ******
   5  ****** ****** ****** ****** ****** ****** ****** ****** ****** ******
      ****** ****** ****** ****** ****** ****** ****** ****** ****** ******
      ****** ****** ****** ****** ****** ****** ****** ****** ****** ******
   6  ****** ****** ****** ****** ****** ****** ****** ****** ****** ******
      ****** ****** ****** ****** ****** ****** ****** ****** ****** ******
      ****** ****** ****** ****** ****** ****** ****** ****** ****** ******
   7  ****** ****** ****** ****** ****** ****** ****** ****** ****** ******
      ****** ****** ****** ****** ****** ****** ****** ****** ****** ******
      ****** ****** ****** ****** ****** ****** ****** ****** ****** ******
   8  ****** ****** ****** ****** ****** ****** ****** ****** ****** ******
      ****** ****** ****** ****** ****** ****** ****** ****** ****** ******
      ****** ****** ****** ****** ****** ****** ****** ****** ****** ******
   9  ****** ****** ****** ****** ****** ****** ****** ****** ****** ******
      ****** ****** ****** ****** ****** ****** ****** ****** ****** ******
      ****** ****** ****** ****** ****** ****** ****** ****** ****** ******
  10  ****** ****** ****** ****** ****** ****** ****** ****** ****** ******
      ****** ****** ****** ****** ****** ****** ****** ****** ****** ******
      ****** ****** ****** ****** ****** ****** ****** ****** ****** ******
  11  ****** ****** ****** ****** ****** ****** ****** ****** ****** ******
      ****** ****** ****** ****** ****** ****** ****** ****** ****** ******
      ****** ****** ****** ****** ****** ****** ****** ****** ****** ******
  12  ****** ****** ****** ****** ****** ****** ****** ****** ****** ******
      ****** ****** ****** ****** ****** ****** ****** ****** ****** ******
      ****** ****** ****** ****** ****** ****** ****** ****** ****** ******
  13  ****** ****** ****** ****** ****** ****** ****** ****** ****** ******
      ****** ****** ****** ****** ****** ****** ****** ****** ****** ******
      ****** ****** ****** ****** ****** ****** ****** ****** ****** ******
  14  ****** ****** ****** ****** ****** ****** ****** ****** ****** ******
      ****** ****** ****** ****** ****** ****** ****** ****** ****** ******
      ****** ****** ****** ****** ****** ****** ****** ****** ****** ******
  15  ****** ****** ****** ****** ****** ****** ****** ****** ****** ******
      ****** ****** ****** ****** ****** ****** ****** ****** ****** ******
      ****** ****** ****** ****** ****** ****** ****** ****** ****** ******
  16  ****** ****** ****** ****** ****** ****** ****** ****** ****** ******
      ****** ****** ****** ****** ****** ****** ****** ****** ****** ******
      ****** ****** ****** ****** ****** ****** ****** ****** ****** ******
  17  ****** ****** ****** ****** ****** ****** ****** ****** ****** ******
      ****** ****** ****** ****** ****** ****** ****** ****** ****** ******
      ****** ****** ****** ****** ****** ****** ****** ****** ****** ******
  18  ****** ****** ****** ****** ****** ****** ****** ****** ****** ******
      ****** ****** ****** ****** ****** ****** ****** ****** ****** ******
      ****** ****** ****** ****** ****** ****** ****** ****** ****** ******
  19  ****** ****** ****** ****** ****** ****** ****** ****** ****** ******
      ****** ****** ****** ****** ****** ****** ****** ****** ****** ******
      ****** ****** ****** ****** ****** ****** ****** ****** ****** ******
  20  ****** ****** ****** ****** ****** ****** ****** ****** ****** ******
      ****** ****** ****** ****** ****** ****** ****** ****** ****** ******
      ****** ****** ****** ****** ****** ****** ****** ****** ****** ******
  21  ****** ****** ****** ****** ****** ****** ****** ****** ****** ******
      ****** ****** ****** ****** ****** ****** ****** ****** ****** ******
      ****** ****** ****** ****** ****** ****** ****** ****** ****** ******
  22  ****** ****** ****** ****** ****** ****** ****** ****** ****** ******
      ****** ****** ****** ****** ****** ****** ****** ****** ****** ******
      ****** ****** ****** ****** ****** ****** ****** ****** ****** ******
  23  ****** ****** ****** ****** ****** ****** ****** ****** ****** ******
      ****** ****** ****** ****** ****** ****** ****** ****** ****** ******
      ****** ****** ****** ****** ****** ****** ****** ****** ****** ******
  24  ****** ****** ****** ****** ****** ****** ****** ****** ****** ******
      ****** ****** ****** ****** ****** ****** ****** ****** ****** ******
      ****** ****** ****** ****** ****** ****** ****** ****** ****** ******
  25  ****** ****** ****** ****** ****** ****** ****** ****** ****** ******
      ****** ****** ****** ****** ****** ****** ****** ****** ****** ******
      ****** ****** ****** ****** ****** ****** ****** ****** ****** ******

 HEAD WILL BE SAVED ON UNIT   51 AT END OF TIME STEP    1, STRESS PERIOD   12
1
  VOLUMETRIC BUDGET FOR ENTIRE MODEL AT END OF TIME STEP    1, STRESS PERIOD  12
  ------------------------------------------------------------------------------

     CUMULATIVE VOLUMES      L**3       RATES FOR THIS TIME STEP      L**3/T
     ------------------                 ------------------------

           IN:                                      IN:
           ---                                      ---
             STORAGE =    25757227.1875               STORAGE =           0.0000
       CONSTANT HEAD =   178574645.8135         CONSTANT HEAD =      166828.0519
               WELLS =           0.0000                 WELLS =           0.0000
            RECHARGE =    26413200.0000              RECHARGE =       27600.0000
      STREAM LEAKAGE =     9617753.6218        STREAM LEAKAGE =        7001.8282

            TOTAL IN =   240362826.6228              TOTAL IN =      201429.8801

          OUT:                                     OUT:
          ----                                     ----
             STORAGE =     2953414.7313               STORAGE =        3747.6595
       CONSTANT HEAD =           0.0000         CONSTANT HEAD =           0.0000
               WELLS =    97999359.4059                 WELLS =       80009.3770
            RECHARGE =           0.0000              RECHARGE =           0.0000
      STREAM LEAKAGE =   139410053.3847        STREAM LEAKAGE =      117672.8428

           TOTAL OUT =   240362827.5219             TOTAL OUT =      201429.8792

            IN - OUT =          -0.8991              IN - OUT =       8.6647E-04

 PERCENT DISCREPANCY =          -0.00     PERCENT DISCREPANCY =           0.00






         TIME SUMMARY AT END OF TIME STEP    1 IN STRESS PERIOD   12
                    SECONDS     MINUTES      HOURS       DAYS        YEARS
                    -----------------------------------------------------------
   TIME STEP LENGTH 7.86240E+06 1.31040E+05  2184.0      91.000     0.24914    
 STRESS PERIOD TIME 7.86240E+06 1.31040E+05  2184.0      91.000     0.24914    
         TOTAL TIME 9.46080E+07 1.57680E+06  26280.      1095.0      2.9979    
1

 Run end date and time (yyyy/mm/dd hh:mm:ss): 2018/10/08 23:18:14
 Elapsed run time:  0.080 Seconds

