                                  MODFLOW-2005     
      U.S. GEOLOGICAL SURVEY MODULAR FINITE-DIFFERENCE GROUND-WATER FLOW MODEL
                            VERSION 1.11.00 8/8/2013

 LIST FILE: supply2.lst
                         UNIT   10

 OPENING ..\data\supply.dis
 FILE TYPE:DIS   UNIT   11   STATUS:OLD    
 FORMAT:FORMATTED              ACCESS:SEQUENTIAL          

 OPENING ..\data\supply.ba6
 FILE TYPE:BAS6   UNIT   12   STATUS:OLD    
 FORMAT:FORMATTED              ACCESS:SEQUENTIAL          

 OPENING ..\data\supply_het.bc6
 FILE TYPE:BCF6   UNIT   13   STATUS:OLD    
 FORMAT:FORMATTED              ACCESS:SEQUENTIAL          

 OPENING ..\data\supply.rch
 FILE TYPE:RCH   UNIT   15   STATUS:OLD    
 FORMAT:FORMATTED              ACCESS:SEQUENTIAL          

 OPENING ..\data\supply2.sfr
 FILE TYPE:SFR   UNIT   16   STATUS:OLD    
 FORMAT:FORMATTED              ACCESS:SEQUENTIAL          

 OPENING ..\data\supply.oc
 FILE TYPE:OC   UNIT   17   STATUS:OLD    
 FORMAT:FORMATTED              ACCESS:SEQUENTIAL          

 OPENING ..\data\supply.pcg
 FILE TYPE:PCG   UNIT   18   STATUS:OLD    
 FORMAT:FORMATTED              ACCESS:SEQUENTIAL          

 OPENING supply2.wel
 FILE TYPE:WEL   UNIT   19   STATUS:OLD    
 FORMAT:FORMATTED              ACCESS:SEQUENTIAL          

 OPENING supply2sf.cbc
 FILE TYPE:DATA(BINARY)   UNIT   50   STATUS:UNKNOWN
 FORMAT:BINARY                 ACCESS:SEQUENTIAL          

 OPENING supply2hd.bhd
 FILE TYPE:DATA(BINARY)   UNIT   51   STATUS:UNKNOWN
 FORMAT:BINARY                 ACCESS:SEQUENTIAL          

 BAS -- BASIC PACKAGE, VERSION 7, 5/2/2005 INPUT READ FROM UNIT   12
 
 MODFLOW was compiled using uniform precision
 Precision of REAL and DOUBLE PRECISION variables:          15

 DISCRETIZATION INPUT DATA READ FROM UNIT   11
    1 LAYERS        25 ROWS        30 COLUMNS
   12 STRESS PERIOD(S) IN SIMULATION
 MODEL TIME UNIT IS DAYS
 MODEL LENGTH UNIT IS UNDEFINED
  Confining bed flag for each layer:
   0

                     DELR =   200.000    

                     DELC =   200.000    

 TOP ELEVATION OF LAYER 1 =  100.0000    

   MODEL LAYER BOTTOM EL. =   0.00000     FOR LAYER   1


 STRESS PERIOD     LENGTH       TIME STEPS     MULTIPLIER FOR DELT    SS FLAG
 ----------------------------------------------------------------------------
        1         92.00000          1                    1.500         TR
        2         91.00000          1                    1.500         TR
        3         91.00000          1                    1.500         TR
        4         91.00000          1                    1.500         TR
        5         92.00000          1                    1.500         TR
        6         91.00000          1                    1.500         TR
        7         91.00000          1                    1.500         TR
        8         91.00000          1                    1.500         TR
        9         92.00000          1                    1.500         TR
       10         91.00000          1                    1.500         TR
       11         91.00000          1                    1.500         TR
       12         91.00000          1                    1.500         TR

 TRANSIENT SIMULATION



 
 #MODOFC transient water supply sample problem                                   
 #                                                                               
 THE FREE FORMAT OPTION HAS BEEN SELECTED



                     BOUNDARY ARRAY FOR LAYER   1
 READING ON UNIT   12 WITH FORMAT: (20I4)              

 AQUIFER HEAD WILL BE SET TO   0.0000     AT ALL NO-FLOW NODES (IBOUND=0).



                       INITIAL HEAD FOR LAYER   1
 READING ON UNIT   12 WITH FORMAT: (10F13.0)           

 OUTPUT CONTROL IS SPECIFIED ONLY AT TIME STEPS FOR WHICH OUTPUT IS DESIRED
 COMPACT CELL-BY-CELL BUDGET FILES WILL BE WRITTEN
 HEAD PRINT FORMAT CODE IS  18    DRAWDOWN PRINT FORMAT CODE IS   0
 HEADS WILL BE SAVED ON UNIT   51    DRAWDOWNS WILL BE SAVED ON UNIT    0

 BCF -- BLOCK-CENTERED FLOW PACKAGE, VERSION 7, 5/2/2005
         INPUT READ FROM UNIT 13
 TRANSIENT SIMULATION
 HEAD AT CELLS THAT CONVERT TO DRY=   0.0000    
 WETTING CAPABILITY IS NOT ACTIVE
      LAYER  LAYER-TYPE CODE     INTERBLOCK T
      --------------------------------------------
         1            0          0 -- HARMONIC    

 COLUMN TO ROW ANISOTROPY =  1.000000    

     PRIMARY STORAGE COEF =  5.000000E-02 FOR LAYER   1



               TRANSMIS. ALONG ROWS FOR LAYER   1
 READING ON UNIT   13 WITH FORMAT: (FREE)              

 WEL -- WELL PACKAGE, VERSION 7, 5/2/2005 INPUT READ FROM UNIT   19
 # Well package input file written by MMProc
 No named parameters
 MAXIMUM OF      4 ACTIVE WELLS AT ONE TIME


     0 Well parameters

 RCH -- RECHARGE PACKAGE, VERSION 7, 5/2/2005 INPUT READ FROM UNIT   15
 No named parameters
 OPTION 1 -- RECHARGE TO TOP LAYER


     0 Recharge parameters

 SFR7 -- STREAMFLOW ROUTING PACKAGE, VERSION 1.0.7, 2013-01-15
         INPUT READ FROM UNIT  16
 #  Supply2 test problem for GWM-VI
 #  The eighth entry in the first data line is ISTCB2 -
 #    Setting this to a negative number indicates that
 #    streamflows out of the reach will be saved to a
 #    binary file.  The absolute value of ISTCB2 is the
 #    unit to which unformatted flows will be written.
 #
 No named parameters
 Segment information will not be 
 read by reach
 No named parameters
 No specifed inflow files


 NUMBER OF STREAM REACHES IS   40

 NUMBER OF STREAM SEGMENTS IS    3

 NUMBER OF STREAM PARAMETERS IS    0

 NUMBER OF STREAM SEGMENTS DEFINED USING PARAMETERS IS              0

 MAXIMUM ERROR FOR STREAM LEAKAGE RATES IS  1.00E-04

 CONSTANT FOR MANNINGS EQUATION IS  1.2839E+05





   STREAM NETWORK DESCRIPTION: 

   LAYER    ROW    COL   SEGMENT   REACH     LENGTH
                          NUMBER   NUMBER    IN CELL        
   --------------------------------------------------
      1     13      1       1        1    2.0000E+02
      1     13      2       1        2    2.0000E+02
      1     14      3       1        3    2.0000E+02
      1     15      4       1        4    2.0000E+02
      1     16      5       1        5    2.0000E+02
      1     16      6       1        6    2.0000E+02
      1     16      7       1        7    2.0000E+02
      1     16      8       1        8    2.0000E+02
      1     16      9       1        9    2.0000E+02
      1     16     10       1       10    2.0000E+02
      1     16     11       1       11    2.0000E+02
      1     16     12       1       12    2.0000E+02
      1     15     13       1       13    2.0000E+02
      1     14     14       1       14    2.0000E+02
      1     13     15       1       15    2.0000E+02
      1     12     16       1       16    2.0000E+02
      1     12     17       1       17    2.0000E+02
      1     12     18       1       18    2.0000E+02
      1     12     19       1       19    2.0000E+02
      1     13     20       1       20    2.0000E+02
      1     14     21       1       21    2.0000E+02
      1     14     22       1       22    2.0000E+02
      1      9     30       2        1    2.0000E+02
      1      9     29       2        2    2.0000E+02
      1      9     28       2        3    2.0000E+02
      1      9     27       2        4    2.0000E+02
      1     10     26       2        5    2.0000E+02
      1     11     25       2        6    2.0000E+02
      1     12     24       2        7    2.0000E+02
      1     13     23       2        8    2.0000E+02
      1     14     22       2        9    2.0000E+02
      1     14     22       3        1    2.0000E+02
      1     15     23       3        2    2.0000E+02
      1     15     24       3        3    2.0000E+02
      1     15     25       3        4    2.0000E+02
      1     15     26       3        5    2.0000E+02
      1     16     27       3        6    2.0000E+02
      1     17     28       3        7    2.0000E+02
      1     18     29       3        8    2.0000E+02
      1     18     30       3        9    2.0000E+02




 PCG -- CONJUGATE-GRADIENT SOLUTION PACKAGE, VERSION 7, 5/2/2005
 MAXIMUM OF    500 CALLS OF SOLUTION ROUTINE
 MAXIMUM OF      5 INTERNAL ITERATIONS PER CALL TO SOLUTION ROUTINE
 MATRIX PRECONDITIONING TYPE :    1



                                    SOLUTION BY THE CONJUGATE-GRADIENT METHOD
                                   -------------------------------------------
                    MAXIMUM NUMBER OF CALLS TO PCG ROUTINE =      500
                        MAXIMUM ITERATIONS PER CALL TO PCG =        5
                               MATRIX PRECONDITIONING TYPE =        1
        RELAXATION FACTOR (ONLY USED WITH PRECOND. TYPE 1) =    0.10000E+01
 PARAMETER OF POLYNOMIAL PRECOND. = 2 (2) OR IS CALCULATED :        0
                         HEAD CHANGE CRITERION FOR CLOSURE =    0.10000E-05
                     RESIDUAL CHANGE CRITERION FOR CLOSURE =    0.10000E+01
            PCG HEAD AND RESIDUAL CHANGE PRINTOUT INTERVAL =        1
     PRINTING FROM SOLVER IS LIMITED(1) OR SUPPRESSED (>1) =        1
                            STEADY-STATE DAMPING PARAMETER =    0.10000E+01
                               TRANSIENT DAMPING PARAMETER =    0.10000E+01
1
                            STRESS PERIOD NO.    1, LENGTH =   92.00000    
                            -----------------------------------------------

                              NUMBER OF TIME STEPS =     1

                               MULTIPLIER FOR DELT =     1.500

                            INITIAL TIME STEP SIZE =   92.00000    

 WELL NO.  LAYER   ROW   COL   STRESS RATE         
 --------------------------------------------------
      1      1     19     29     -0.1179E+05
      2      1     10     29     -0.1333E+05
      3      1     20     21      -8354.    
      4      1      8     12     -0.1382E+05

      4 WELLS

                 RECHARGE =  5.000000E-04



 CLASSIFICATION & COUNT OF STREAM SEGMENTS BASED ON SOURCE OF INFLOW:

                HEADWATER     DIVERSION     RECEIVES TRIBUTARY FLOW
                ---------     ---------     -----------------------
                     2              0               1



                    INPUT DATA FOR EACH STREAM SEGMENT
 ---------------------------------------------------------------------------------------------

 SEGMENT    SEG.     INFLOW   OVERLAND   STREAM    STREAM   ICALC  OUTFLOW  DIVERSION PRIORITY
    NO.    LENGTH     RATE     RUNOFF      ET       PPT.    METH.  TO SEG.  FROM SEG.    NO.

      1  4.400E+03 1.000E+05 0.000E+00 0.000E+00 0.000E+00    1        3        0        0
      2  1.800E+03 5.000E+04 0.000E+00 0.000E+00 0.000E+00    1        3        0        0
      3  1.800E+03 0.000E+00 0.000E+00 0.000E+00 0.000E+00    1        0        0        0


         STREAMBED PROPERTIES AND STREAM DIMENSIONS

 SEGMENT     BED HYD. COND.      BED THICKNESS     ELEV.-TOP OF BED     WIDTH OF STREAM     DEPTH OF STREAM    STREAM ROUGHNESS
    No.     UPPER     LOWER     UPPER     LOWER     UPPER     LOWER     UPPER     LOWER     UPPER     LOWER   CHANNEL      BANK

     1  5.000E+00 5.000E+00 1.000E+00 1.000E+00 4.850E+01 3.800E+01 2.000E+01 2.000E+01                     5.000E-02
     2  5.000E+00 5.000E+00 1.000E+00 1.000E+00 4.025E+01 3.800E+01 2.000E+01 2.000E+01                     5.000E-02
     3  5.000E+00 5.000E+00 1.000E+00 1.000E+00 3.800E+01 3.000E+01 2.000E+01 2.000E+01                     5.000E-02



 
 SOLVING FOR HEAD 


     9 CALLS TO PCG ROUTINE FOR TIME STEP   1 IN STRESS PERIOD    1
    36 TOTAL ITERATIONS

 OUTPUT CONTROL FOR STRESS PERIOD    1   TIME STEP    1
    SAVE BUDGET
    SAVE HEAD FOR ALL LAYERS
    PRINT HEAD FOR ALL LAYERS
 UBDSV2 SAVING "STREAMFLOW OUT  " ON UNIT  50 AT TIME STEP  1, STRESS PERIOD   1



 STREAM LISTING     PERIOD      1   STEP        1

 LAYER ROW COL. STREAM  RCH.  FLOW INTO     FLOW TO   FLOW OUT OF   OVRLND.     DIRECT     STREAM       STREAM     STREAM     STREAM   STREAMBED  STREAMBED
                SEG.NO.  NO.  STRM. RCH.    AQUIFER    STRM. RCH.    RUNOFF     PRECIP       ET          HEAD       DEPTH      WIDTH   CONDCTNC.   GRADIENT

   1   13    1     1     1    1.0000E+05 -6.0712E+03   1.0607E+05  0.000E+00  0.000E+00  0.000E+00  4.84086E+01  1.473E-01  2.000E+01  2.000E+04 -3.036E-01
   1   13    2     1     2    1.0607E+05 -7.5383E+03   1.1361E+05  0.000E+00  0.000E+00  0.000E+00  4.79371E+01  1.530E-01  2.000E+01  2.000E+04 -3.769E-01
   1   14    3     1     3    1.1361E+05 -2.1958E+03   1.1581E+05  0.000E+00  0.000E+00  0.000E+00  4.74639E+01  1.571E-01  2.000E+01  2.000E+04 -1.098E-01
   1   15    4     1     4    1.1581E+05 -2.2679E+03   1.1807E+05  0.000E+00  0.000E+00  0.000E+00  4.69884E+01  1.589E-01  2.000E+01  2.000E+04 -1.134E-01
   1   16    5     1     5    1.1807E+05 -7.1764E+03   1.2525E+05  0.000E+00  0.000E+00  0.000E+00  4.65150E+01  1.627E-01  2.000E+01  2.000E+04 -3.588E-01
   1   16    6     1     6    1.2525E+05 -4.2952E+03   1.2954E+05  0.000E+00  0.000E+00  0.000E+00  4.60423E+01  1.673E-01  2.000E+01  2.000E+04 -2.148E-01
   1   16    7     1     7    1.2954E+05 -4.1268E+03   1.3367E+05  0.000E+00  0.000E+00  0.000E+00  4.55683E+01  1.706E-01  2.000E+01  2.000E+04 -2.063E-01
   1   16    8     1     8    1.3367E+05 -4.0809E+03   1.3775E+05  0.000E+00  0.000E+00  0.000E+00  4.50942E+01  1.737E-01  2.000E+01  2.000E+04 -2.040E-01
   1   16    9     1     9    1.3775E+05 -4.0625E+03   1.4181E+05  0.000E+00  0.000E+00  0.000E+00  4.46200E+01  1.768E-01  2.000E+01  2.000E+04 -2.031E-01
   1   16   10     1    10    1.4181E+05 -4.0477E+03   1.4586E+05  0.000E+00  0.000E+00  0.000E+00  4.41458E+01  1.799E-01  2.000E+01  2.000E+04 -2.024E-01
   1   16   11     1    11    1.4586E+05 -4.0610E+03   1.4992E+05  0.000E+00  0.000E+00  0.000E+00  4.36716E+01  1.829E-01  2.000E+01  2.000E+04 -2.031E-01
   1   16   12     1    12    1.4992E+05 -6.7866E+03   1.5671E+05  0.000E+00  0.000E+00  0.000E+00  4.31983E+01  1.869E-01  2.000E+01  2.000E+04 -3.393E-01
   1   15   13     1    13    1.5671E+05 -6.9311E+03   1.6364E+05  0.000E+00  0.000E+00  0.000E+00  4.27260E+01  1.919E-01  2.000E+01  2.000E+04 -3.466E-01
   1   14   14     1    14    1.6364E+05 -7.2518E+03   1.7089E+05  0.000E+00  0.000E+00  0.000E+00  4.22538E+01  1.970E-01  2.000E+01  2.000E+04 -3.626E-01
   1   13   15     1    15    1.7089E+05 -7.4646E+03   1.7836E+05  0.000E+00  0.000E+00  0.000E+00  4.17817E+01  2.021E-01  2.000E+01  2.000E+04 -3.732E-01
   1   12   16     1    16    1.7836E+05 -8.0349E+03   1.8639E+05  0.000E+00  0.000E+00  0.000E+00  4.13097E+01  2.074E-01  2.000E+01  2.000E+04 -4.017E-01
   1   12   17     1    17    1.8639E+05 -5.9392E+03   1.9233E+05  0.000E+00  0.000E+00  0.000E+00  4.08372E+01  2.122E-01  2.000E+01  2.000E+04 -2.970E-01
   1   12   18     1    18    1.9233E+05 -5.8829E+03   1.9821E+05  0.000E+00  0.000E+00  0.000E+00  4.03639E+01  2.161E-01  2.000E+01  2.000E+04 -2.941E-01
   1   12   19     1    19    1.9821E+05 -7.5170E+03   2.0573E+05  0.000E+00  0.000E+00  0.000E+00  3.98910E+01  2.205E-01  2.000E+01  2.000E+04 -3.758E-01
   1   13   20     1    20    2.0573E+05 -6.6034E+03   2.1234E+05  0.000E+00  0.000E+00  0.000E+00  3.94183E+01  2.251E-01  2.000E+01  2.000E+04 -3.302E-01
   1   14   21     1    21    2.1234E+05 -5.9466E+03   2.1828E+05  0.000E+00  0.000E+00  0.000E+00  3.89451E+01  2.292E-01  2.000E+01  2.000E+04 -2.973E-01
   1   14   22     1    22    2.1828E+05  3.8496E+03   2.1443E+05  0.000E+00  0.000E+00  0.000E+00  3.84685E+01  2.298E-01  2.000E+01  2.000E+04  1.925E-01
   1    9   30     2     1    5.0000E+04 -2.4819E+03   5.2482E+04  0.000E+00  0.000E+00  0.000E+00  4.02426E+01  1.176E-01  2.000E+01  2.000E+04 -1.241E-01
   1    9   29     2     2    5.2482E+04 -4.5709E+02   5.2939E+04  0.000E+00  0.000E+00  0.000E+00  3.99946E+01  1.196E-01  2.000E+01  2.000E+04 -2.285E-02
   1    9   28     2     3    5.2939E+04 -3.6310E+03   5.6570E+04  0.000E+00  0.000E+00  0.000E+00  3.97474E+01  1.224E-01  2.000E+01  2.000E+04 -1.816E-01
   1    9   27     2     4    5.6570E+04 -7.5899E+03   6.4160E+04  0.000E+00  0.000E+00  0.000E+00  3.95047E+01  1.297E-01  2.000E+01  2.000E+04 -3.795E-01
   1   10   26     2     5    6.4160E+04 -6.3875E+03   7.0547E+04  0.000E+00  0.000E+00  0.000E+00  3.92635E+01  1.385E-01  2.000E+01  2.000E+04 -3.194E-01
   1   11   25     2     6    7.0547E+04 -6.3268E+03   7.6874E+04  0.000E+00  0.000E+00  0.000E+00  3.90212E+01  1.462E-01  2.000E+01  2.000E+04 -3.163E-01
   1   12   24     2     7    7.6874E+04 -6.1284E+03   8.3003E+04  0.000E+00  0.000E+00  0.000E+00  3.87785E+01  1.535E-01  2.000E+01  2.000E+04 -3.064E-01
   1   13   23     2     8    8.3003E+04 -1.6444E+03   8.4647E+04  0.000E+00  0.000E+00  0.000E+00  3.85330E+01  1.580E-01  2.000E+01  2.000E+04 -8.222E-02
   1   14   22     2     9    8.4647E+04  1.5642E+02   8.4491E+04  0.000E+00  0.000E+00  0.000E+00  3.82838E+01  1.588E-01  2.000E+01  2.000E+04  7.821E-03
   1   14   22     3     1    2.9892E+05 -9.7328E+03   3.0866E+05  0.000E+00  0.000E+00  0.000E+00  3.77894E+01  2.338E-01  2.000E+01  2.000E+04 -4.866E-01
   1   15   23     3     2    3.0866E+05 -1.8793E+03   3.1053E+05  0.000E+00  0.000E+00  0.000E+00  3.69031E+01  2.365E-01  2.000E+01  2.000E+04 -9.397E-02
   1   15   24     3     3    3.1053E+05 -1.4998E+03   3.1203E+05  0.000E+00  0.000E+00  0.000E+00  3.60150E+01  2.372E-01  2.000E+01  2.000E+04 -7.499E-02
   1   15   25     3     4    3.1203E+05 -1.5531E+03   3.1359E+05  0.000E+00  0.000E+00  0.000E+00  3.51268E+01  2.379E-01  2.000E+01  2.000E+04 -7.766E-02
   1   15   26     3     5    3.1359E+05 -1.8242E+03   3.1541E+05  0.000E+00  0.000E+00  0.000E+00  3.42387E+01  2.387E-01  2.000E+01  2.000E+04 -9.121E-02
   1   16   27     3     6    3.1541E+05 -2.0532E+03   3.1747E+05  0.000E+00  0.000E+00  0.000E+00  3.33507E+01  2.396E-01  2.000E+01  2.000E+04 -1.027E-01
   1   17   28     3     7    3.1747E+05 -5.2514E+03   3.2272E+05  0.000E+00  0.000E+00  0.000E+00  3.24635E+01  2.412E-01  2.000E+01  2.000E+04 -2.626E-01
   1   18   29     3     8    3.2272E+05 -2.3833E+03   3.2510E+05  0.000E+00  0.000E+00  0.000E+00  3.15763E+01  2.430E-01  2.000E+01  2.000E+04 -1.192E-01
   1   18   30     3     9    3.2510E+05 -4.5229E+03   3.2962E+05  0.000E+00  0.000E+00  0.000E+00  3.06890E+01  2.445E-01  2.000E+01  2.000E+04 -2.261E-01



1
              HEAD IN LAYER   1 AT END OF TIME STEP   1 IN STRESS PERIOD    1
  ---------------------------------------------------------------------------

          1      2      3      4      5      6      7      8      9     10
         11     12     13     14     15     16     17     18     19     20
         21     22     23     24     25     26     27     28     29     30
 .........................................................................
   1  ****** ****** ****** ****** ****** ****** ****** ****** ****** ******
      ****** ****** ****** ****** ****** ****** ****** ****** ****** ******
      ****** ****** ****** ****** ****** ****** ****** ****** ****** ******
   2  ****** ****** ****** ****** ****** ****** ****** ****** ****** ******
      ****** ****** ****** ****** ****** ****** ****** ****** ****** ******
      ****** ****** ****** ****** ****** ****** ****** ****** ****** ******
   3  ****** ****** ****** ****** ****** ****** ****** ****** ****** ******
      ****** ****** ****** ****** ****** ****** ****** ****** ****** ******
      ****** ****** ****** ****** ****** ****** ****** ****** ****** ******
   4  ****** ****** ****** ****** ****** ****** ****** ****** ****** ******
      ****** ****** ****** ****** ****** ****** ****** ****** ****** ******
      ****** ****** ****** ****** ****** ****** ****** ****** ****** ******
   5  ****** ****** ****** ****** ****** ****** ****** ****** ****** ******
      ****** ****** ****** ****** ****** ****** ****** ****** ****** ******
      ****** ****** ****** ****** ****** ****** ****** ****** ****** ******
   6  ****** ****** ****** ****** ****** ****** ****** ****** ****** ******
      ****** ****** ****** ****** ****** ****** ****** ****** ****** ******
      ****** ****** ****** ****** ****** ****** ****** ****** ****** ******
   7  ****** ****** ****** ****** ****** ****** ****** ****** ****** ******
      ****** ****** ****** ****** ****** ****** ****** ****** ****** ******
      ****** ****** ****** ****** ****** ****** ****** ****** ****** ******
   8  ****** ****** ****** ****** ****** ****** ****** ****** ****** ******
      ****** ****** ****** ****** ****** ****** ****** ****** ****** ******
      ****** ****** ****** ****** ****** ****** ****** ****** ****** ******
   9  ****** ****** ****** ****** ****** ****** ****** ****** ****** ******
      ****** ****** ****** ****** ****** ****** ****** ****** ****** ******
      ****** ****** ****** ****** ****** ****** ****** ****** ****** ******
  10  ****** ****** ****** ****** ****** ****** ****** ****** ****** ******
      ****** ****** ****** ****** ****** ****** ****** ****** ****** ******
      ****** ****** ****** ****** ****** ****** ****** ****** ****** ******
  11  ****** ****** ****** ****** ****** ****** ****** ****** ****** ******
      ****** ****** ****** ****** ****** ****** ****** ****** ****** ******
      ****** ****** ****** ****** ****** ****** ****** ****** ****** ******
  12  ****** ****** ****** ****** ****** ****** ****** ****** ****** ******
      ****** ****** ****** ****** ****** ****** ****** ****** ****** ******
      ****** ****** ****** ****** ****** ****** ****** ****** ****** ******
  13  ****** ****** ****** ****** ****** ****** ****** ****** ****** ******
      ****** ****** ****** ****** ****** ****** ****** ****** ****** ******
      ****** ****** ****** ****** ****** ****** ****** ****** ****** ******
  14  ****** ****** ****** ****** ****** ****** ****** ****** ****** ******
      ****** ****** ****** ****** ****** ****** ****** ****** ****** ******
      ****** ****** ****** ****** ****** ****** ****** ****** ****** ******
  15  ****** ****** ****** ****** ****** ****** ****** ****** ****** ******
      ****** ****** ****** ****** ****** ****** ****** ****** ****** ******
      ****** ****** ****** ****** ****** ****** ****** ****** ****** ******
  16  ****** ****** ****** ****** ****** ****** ****** ****** ****** ******
      ****** ****** ****** ****** ****** ****** ****** ****** ****** ******
      ****** ****** ****** ****** ****** ****** ****** ****** ****** ******
  17  ****** ****** ****** ****** ****** ****** ****** ****** ****** ******
      ****** ****** ****** ****** ****** ****** ****** ****** ****** ******
      ****** ****** ****** ****** ****** ****** ****** ****** ****** ******
  18  ****** ****** ****** ****** ****** ****** ****** ****** ****** ******
      ****** ****** ****** ****** ****** ****** ****** ****** ****** ******
      ****** ****** ****** ****** ****** ****** ****** ****** ****** ******
  19  ****** ****** ****** ****** ****** ****** ****** ****** ****** ******
      ****** ****** ****** ****** ****** ****** ****** ****** ****** ******
      ****** ****** ****** ****** ****** ****** ****** ****** ****** ******
  20  ****** ****** ****** ****** ****** ****** ****** ****** ****** ******
      ****** ****** ****** ****** ****** ****** ****** ****** ****** ******
      ****** ****** ****** ****** ****** ****** ****** ****** ****** ******
  21  ****** ****** ****** ****** ****** ****** ****** ****** ****** ******
      ****** ****** ****** ****** ****** ****** ****** ****** ****** ******
      ****** ****** ****** ****** ****** ****** ****** ****** ****** ******
  22  ****** ****** ****** ****** ****** ****** ****** ****** ****** ******
      ****** ****** ****** ****** ****** ****** ****** ****** ****** ******
      ****** ****** ****** ****** ****** ****** ****** ****** ****** ******
  23  ****** ****** ****** ****** ****** ****** ****** ****** ****** ******
      ****** ****** ****** ****** ****** ****** ****** ****** ****** ******
      ****** ****** ****** ****** ****** ****** ****** ****** ****** ******
  24  ****** ****** ****** ****** ****** ****** ****** ****** ****** ******
      ****** ****** ****** ****** ****** ****** ****** ****** ****** ******
      ****** ****** ****** ****** ****** ****** ****** ****** ****** ******
  25  ****** ****** ****** ****** ****** ****** ****** ****** ****** ******
      ****** ****** ****** ****** ****** ****** ****** ****** ****** ******
      ****** ****** ****** ****** ****** ****** ****** ****** ****** ******

 HEAD WILL BE SAVED ON UNIT   51 AT END OF TIME STEP    1, STRESS PERIOD    1
1
  VOLUMETRIC BUDGET FOR ENTIRE MODEL AT END OF TIME STEP    1, STRESS PERIOD   1
  ------------------------------------------------------------------------------

     CUMULATIVE VOLUMES      L**3       RATES FOR THIS TIME STEP      L**3/T
     ------------------                 ------------------------

           IN:                                      IN:
           ---                                      ---
             STORAGE =    18401476.6626               STORAGE =      200016.0507
       CONSTANT HEAD =     1205443.0535         CONSTANT HEAD =       13102.6419
               WELLS =           0.0000                 WELLS =           0.0000
            RECHARGE =     1269600.0000              RECHARGE =       13800.0000
      STREAM LEAKAGE =      368554.0813        STREAM LEAKAGE =        4006.0226

            TOTAL IN =    21245073.7974              TOTAL IN =      230924.7152

          OUT:                                     OUT:
          ----                                     ----
             STORAGE =           0.0000               STORAGE =           0.0000
       CONSTANT HEAD =           0.0000         CONSTANT HEAD =           0.0000
               WELLS =     4351207.0904                 WELLS =       47295.7292
            RECHARGE =           0.0000              RECHARGE =           0.0000
      STREAM LEAKAGE =    16893866.9938        STREAM LEAKAGE =      183628.9891

           TOTAL OUT =    21245074.0842             TOTAL OUT =      230924.7183

            IN - OUT =          -0.2868              IN - OUT =      -3.1176E-03

 PERCENT DISCREPANCY =          -0.00     PERCENT DISCREPANCY =          -0.00






         TIME SUMMARY AT END OF TIME STEP    1 IN STRESS PERIOD    1
                    SECONDS     MINUTES      HOURS       DAYS        YEARS
                    -----------------------------------------------------------
   TIME STEP LENGTH 7.94880E+06 1.32480E+05  2208.0      92.000     0.25188    
 STRESS PERIOD TIME 7.94880E+06 1.32480E+05  2208.0      92.000     0.25188    
         TOTAL TIME 7.94880E+06 1.32480E+05  2208.0      92.000     0.25188    
1
1
                            STRESS PERIOD NO.    2, LENGTH =   91.00000    
                            -----------------------------------------------

                              NUMBER OF TIME STEPS =     1

                               MULTIPLIER FOR DELT =     1.500

                            INITIAL TIME STEP SIZE =   91.00000    

 WELL NO.  LAYER   ROW   COL   STRESS RATE         
 --------------------------------------------------
      1      1     19     29     -0.1179E+05
      2      1     10     29     -0.1333E+05
      3      1     20     21      -8354.    
      4      1      8     12     -0.1382E+05

      4 WELLS

                 RECHARGE =  2.000000E-03

 REUSING STREAM SEGMENT DATA FROM LAST STRESS PERIOD
 
 SOLVING FOR HEAD 


     7 CALLS TO PCG ROUTINE FOR TIME STEP   1 IN STRESS PERIOD    2
    27 TOTAL ITERATIONS

 OUTPUT CONTROL FOR STRESS PERIOD    2   TIME STEP    1
    SAVE BUDGET
    SAVE HEAD FOR ALL LAYERS
    PRINT HEAD FOR ALL LAYERS
 UBDSV2 SAVING "STREAMFLOW OUT  " ON UNIT  50 AT TIME STEP  1, STRESS PERIOD   2



 STREAM LISTING     PERIOD      2   STEP        1

 LAYER ROW COL. STREAM  RCH.  FLOW INTO     FLOW TO   FLOW OUT OF   OVRLND.     DIRECT     STREAM       STREAM     STREAM     STREAM   STREAMBED  STREAMBED
                SEG.NO.  NO.  STRM. RCH.    AQUIFER    STRM. RCH.    RUNOFF     PRECIP       ET          HEAD       DEPTH      WIDTH   CONDCTNC.   GRADIENT

   1   13    1     1     1    1.0000E+05 -3.8778E+03   1.0388E+05  0.000E+00  0.000E+00  0.000E+00  4.84077E+01  1.463E-01  2.000E+01  2.000E+04 -1.939E-01
   1   13    2     1     2    1.0388E+05 -5.1317E+03   1.0901E+05  0.000E+00  0.000E+00  0.000E+00  4.79343E+01  1.502E-01  2.000E+01  2.000E+04 -2.566E-01
   1   14    3     1     3    1.0901E+05 -1.1065E+03   1.1012E+05  0.000E+00  0.000E+00  0.000E+00  4.74596E+01  1.528E-01  2.000E+01  2.000E+04 -5.532E-02
   1   15    4     1     4    1.1012E+05 -1.1367E+03   1.1125E+05  0.000E+00  0.000E+00  0.000E+00  4.69833E+01  1.537E-01  2.000E+01  2.000E+04 -5.683E-02
   1   16    5     1     5    1.1125E+05 -4.2317E+03   1.1548E+05  0.000E+00  0.000E+00  0.000E+00  4.65082E+01  1.560E-01  2.000E+01  2.000E+04 -2.116E-01
   1   16    6     1     6    1.1548E+05 -2.4867E+03   1.1797E+05  0.000E+00  0.000E+00  0.000E+00  4.60337E+01  1.587E-01  2.000E+01  2.000E+04 -1.243E-01
   1   16    7     1     7    1.1797E+05 -2.3853E+03   1.2036E+05  0.000E+00  0.000E+00  0.000E+00  4.55584E+01  1.607E-01  2.000E+01  2.000E+04 -1.193E-01
   1   16    8     1     8    1.2036E+05 -2.3456E+03   1.2270E+05  0.000E+00  0.000E+00  0.000E+00  4.50831E+01  1.626E-01  2.000E+01  2.000E+04 -1.173E-01
   1   16    9     1     9    1.2270E+05 -2.3097E+03   1.2501E+05  0.000E+00  0.000E+00  0.000E+00  4.46076E+01  1.645E-01  2.000E+01  2.000E+04 -1.155E-01
   1   16   10     1    10    1.2501E+05 -2.2633E+03   1.2727E+05  0.000E+00  0.000E+00  0.000E+00  4.41322E+01  1.663E-01  2.000E+01  2.000E+04 -1.132E-01
   1   16   11     1    11    1.2727E+05 -2.2316E+03   1.2951E+05  0.000E+00  0.000E+00  0.000E+00  4.36567E+01  1.681E-01  2.000E+01  2.000E+04 -1.116E-01
   1   16   12     1    12    1.2951E+05 -3.7483E+03   1.3325E+05  0.000E+00  0.000E+00  0.000E+00  4.31818E+01  1.704E-01  2.000E+01  2.000E+04 -1.874E-01
   1   15   13     1    13    1.3325E+05 -3.4708E+03   1.3673E+05  0.000E+00  0.000E+00  0.000E+00  4.27073E+01  1.732E-01  2.000E+01  2.000E+04 -1.735E-01
   1   14   14     1    14    1.3673E+05 -3.6053E+03   1.4033E+05  0.000E+00  0.000E+00  0.000E+00  4.22327E+01  1.759E-01  2.000E+01  2.000E+04 -1.803E-01
   1   13   15     1    15    1.4033E+05 -3.7799E+03   1.4411E+05  0.000E+00  0.000E+00  0.000E+00  4.17582E+01  1.787E-01  2.000E+01  2.000E+04 -1.890E-01
   1   12   16     1    16    1.4411E+05 -4.5093E+03   1.4862E+05  0.000E+00  0.000E+00  0.000E+00  4.12841E+01  1.818E-01  2.000E+01  2.000E+04 -2.255E-01
   1   12   17     1    17    1.4862E+05 -3.2576E+03   1.5188E+05  0.000E+00  0.000E+00  0.000E+00  4.08097E+01  1.847E-01  2.000E+01  2.000E+04 -1.629E-01
   1   12   18     1    18    1.5188E+05 -3.2399E+03   1.5512E+05  0.000E+00  0.000E+00  0.000E+00  4.03348E+01  1.871E-01  2.000E+01  2.000E+04 -1.620E-01
   1   12   19     1    19    1.5512E+05 -4.2816E+03   1.5940E+05  0.000E+00  0.000E+00  0.000E+00  3.98603E+01  1.898E-01  2.000E+01  2.000E+04 -2.141E-01
   1   13   20     1    20    1.5940E+05 -3.3668E+03   1.6277E+05  0.000E+00  0.000E+00  0.000E+00  3.93857E+01  1.926E-01  2.000E+01  2.000E+04 -1.683E-01
   1   14   21     1    21    1.6277E+05 -2.9740E+03   1.6574E+05  0.000E+00  0.000E+00  0.000E+00  3.89107E+01  1.948E-01  2.000E+01  2.000E+04 -1.487E-01
   1   14   22     1    22    1.6574E+05  4.6721E+03   1.6107E+05  0.000E+00  0.000E+00  0.000E+00  3.84329E+01  1.942E-01  2.000E+01  2.000E+04  2.336E-01
   1    9   30     2     1    5.0000E+04  4.3622E+02   4.9564E+04  0.000E+00  0.000E+00  0.000E+00  4.02406E+01  1.156E-01  2.000E+01  2.000E+04  2.181E-02
   1    9   29     2     2    4.9564E+04  2.4566E+03   4.7107E+04  0.000E+00  0.000E+00  0.000E+00  3.99885E+01  1.135E-01  2.000E+01  2.000E+04  1.228E-01
   1    9   28     2     3    4.7107E+04 -7.9722E+02   4.7904E+04  0.000E+00  0.000E+00  0.000E+00  3.97374E+01  1.124E-01  2.000E+01  2.000E+04 -3.986E-02
   1    9   27     2     4    4.7904E+04 -4.0434E+03   5.1948E+04  0.000E+00  0.000E+00  0.000E+00  3.94908E+01  1.158E-01  2.000E+01  2.000E+04 -2.022E-01
   1   10   26     2     5    5.1948E+04 -2.6466E+03   5.4594E+04  0.000E+00  0.000E+00  0.000E+00  3.92454E+01  1.204E-01  2.000E+01  2.000E+04 -1.323E-01
   1   11   25     2     6    5.4594E+04 -2.7809E+03   5.7375E+04  0.000E+00  0.000E+00  0.000E+00  3.89990E+01  1.240E-01  2.000E+01  2.000E+04 -1.390E-01
   1   12   24     2     7    5.7375E+04 -2.9926E+03   6.0368E+04  0.000E+00  0.000E+00  0.000E+00  3.87528E+01  1.278E-01  2.000E+01  2.000E+04 -1.496E-01
   1   13   23     2     8    6.0368E+04 -5.9791E+02   6.0966E+04  0.000E+00  0.000E+00  0.000E+00  3.85051E+01  1.301E-01  2.000E+01  2.000E+04 -2.990E-02
   1   14   22     2     9    6.0966E+04  1.1108E+03   5.9855E+04  0.000E+00  0.000E+00  0.000E+00  3.82548E+01  1.298E-01  2.000E+01  2.000E+04  5.554E-02
   1   14   22     3     1    2.2092E+05 -8.9644E+03   2.2989E+05  0.000E+00  0.000E+00  0.000E+00  3.77510E+01  1.955E-01  2.000E+01  2.000E+04 -4.482E-01
   1   15   23     3     2    2.2989E+05 -8.7485E+02   2.3076E+05  0.000E+00  0.000E+00  0.000E+00  3.68647E+01  1.980E-01  2.000E+01  2.000E+04 -4.374E-02
   1   15   24     3     3    2.3076E+05 -6.0587E+02   2.3137E+05  0.000E+00  0.000E+00  0.000E+00  3.59762E+01  1.984E-01  2.000E+01  2.000E+04 -3.029E-02
   1   15   25     3     4    2.3137E+05 -6.1863E+02   2.3199E+05  0.000E+00  0.000E+00  0.000E+00  3.50876E+01  1.987E-01  2.000E+01  2.000E+04 -3.093E-02
   1   15   26     3     5    2.3199E+05 -6.7693E+02   2.3266E+05  0.000E+00  0.000E+00  0.000E+00  3.41990E+01  1.990E-01  2.000E+01  2.000E+04 -3.385E-02
   1   16   27     3     6    2.3266E+05 -7.2583E+02   2.3339E+05  0.000E+00  0.000E+00  0.000E+00  3.33105E+01  1.994E-01  2.000E+01  2.000E+04 -3.629E-02
   1   17   28     3     7    2.3339E+05 -1.5552E+03   2.3494E+05  0.000E+00  0.000E+00  0.000E+00  3.24222E+01  2.000E-01  2.000E+01  2.000E+04 -7.776E-02
   1   18   29     3     8    2.3494E+05  1.2492E+03   2.3370E+05  0.000E+00  0.000E+00  0.000E+00  3.15334E+01  2.001E-01  2.000E+01  2.000E+04  6.246E-02
   1   18   30     3     9    2.3370E+05 -1.5576E+03   2.3525E+05  0.000E+00  0.000E+00  0.000E+00  3.06446E+01  2.002E-01  2.000E+01  2.000E+04 -7.788E-02



1
              HEAD IN LAYER   1 AT END OF TIME STEP   1 IN STRESS PERIOD    2
  ---------------------------------------------------------------------------

          1      2      3      4      5      6      7      8      9     10
         11     12     13     14     15     16     17     18     19     20
         21     22     23     24     25     26     27     28     29     30
 .........................................................................
   1  ****** ****** ****** ****** ****** ****** ****** ****** ****** ******
      ****** ****** ****** ****** ****** ****** ****** ****** ****** ******
      ****** ****** ****** ****** ****** ****** ****** ****** ****** ******
   2  ****** ****** ****** ****** ****** ****** ****** ****** ****** ******
      ****** ****** ****** ****** ****** ****** ****** ****** ****** ******
      ****** ****** ****** ****** ****** ****** ****** ****** ****** ******
   3  ****** ****** ****** ****** ****** ****** ****** ****** ****** ******
      ****** ****** ****** ****** ****** ****** ****** ****** ****** ******
      ****** ****** ****** ****** ****** ****** ****** ****** ****** ******
   4  ****** ****** ****** ****** ****** ****** ****** ****** ****** ******
      ****** ****** ****** ****** ****** ****** ****** ****** ****** ******
      ****** ****** ****** ****** ****** ****** ****** ****** ****** ******
   5  ****** ****** ****** ****** ****** ****** ****** ****** ****** ******
      ****** ****** ****** ****** ****** ****** ****** ****** ****** ******
      ****** ****** ****** ****** ****** ****** ****** ****** ****** ******
   6  ****** ****** ****** ****** ****** ****** ****** ****** ****** ******
      ****** ****** ****** ****** ****** ****** ****** ****** ****** ******
      ****** ****** ****** ****** ****** ****** ****** ****** ****** ******
   7  ****** ****** ****** ****** ****** ****** ****** ****** ****** ******
      ****** ****** ****** ****** ****** ****** ****** ****** ****** ******
      ****** ****** ****** ****** ****** ****** ****** ****** ****** ******
   8  ****** ****** ****** ****** ****** ****** ****** ****** ****** ******
      ****** ****** ****** ****** ****** ****** ****** ****** ****** ******
      ****** ****** ****** ****** ****** ****** ****** ****** ****** ******
   9  ****** ****** ****** ****** ****** ****** ****** ****** ****** ******
      ****** ****** ****** ****** ****** ****** ****** ****** ****** ******
      ****** ****** ****** ****** ****** ****** ****** ****** ****** ******
  10  ****** ****** ****** ****** ****** ****** ****** ****** ****** ******
      ****** ****** ****** ****** ****** ****** ****** ****** ****** ******
      ****** ****** ****** ****** ****** ****** ****** ****** ****** ******
  11  ****** ****** ****** ****** ****** ****** ****** ****** ****** ******
      ****** ****** ****** ****** ****** ****** ****** ****** ****** ******
      ****** ****** ****** ****** ****** ****** ****** ****** ****** ******
  12  ****** ****** ****** ****** ****** ****** ****** ****** ****** ******
      ****** ****** ****** ****** ****** ****** ****** ****** ****** ******
      ****** ****** ****** ****** ****** ****** ****** ****** ****** ******
  13  ****** ****** ****** ****** ****** ****** ****** ****** ****** ******
      ****** ****** ****** ****** ****** ****** ****** ****** ****** ******
      ****** ****** ****** ****** ****** ****** ****** ****** ****** ******
  14  ****** ****** ****** ****** ****** ****** ****** ****** ****** ******
      ****** ****** ****** ****** ****** ****** ****** ****** ****** ******
      ****** ****** ****** ****** ****** ****** ****** ****** ****** ******
  15  ****** ****** ****** ****** ****** ****** ****** ****** ****** ******
      ****** ****** ****** ****** ****** ****** ****** ****** ****** ******
      ****** ****** ****** ****** ****** ****** ****** ****** ****** ******
  16  ****** ****** ****** ****** ****** ****** ****** ****** ****** ******
      ****** ****** ****** ****** ****** ****** ****** ****** ****** ******
      ****** ****** ****** ****** ****** ****** ****** ****** ****** ******
  17  ****** ****** ****** ****** ****** ****** ****** ****** ****** ******
      ****** ****** ****** ****** ****** ****** ****** ****** ****** ******
      ****** ****** ****** ****** ****** ****** ****** ****** ****** ******
  18  ****** ****** ****** ****** ****** ****** ****** ****** ****** ******
      ****** ****** ****** ****** ****** ****** ****** ****** ****** ******
      ****** ****** ****** ****** ****** ****** ****** ****** ****** ******
  19  ****** ****** ****** ****** ****** ****** ****** ****** ****** ******
      ****** ****** ****** ****** ****** ****** ****** ****** ****** ******
      ****** ****** ****** ****** ****** ****** ****** ****** ****** ******
  20  ****** ****** ****** ****** ****** ****** ****** ****** ****** ******
      ****** ****** ****** ****** ****** ****** ****** ****** ****** ******
      ****** ****** ****** ****** ****** ****** ****** ****** ****** ******
  21  ****** ****** ****** ****** ****** ****** ****** ****** ****** ******
      ****** ****** ****** ****** ****** ****** ****** ****** ****** ******
      ****** ****** ****** ****** ****** ****** ****** ****** ****** ******
  22  ****** ****** ****** ****** ****** ****** ****** ****** ****** ******
      ****** ****** ****** ****** ****** ****** ****** ****** ****** ******
      ****** ****** ****** ****** ****** ****** ****** ****** ****** ******
  23  ****** ****** ****** ****** ****** ****** ****** ****** ****** ******
      ****** ****** ****** ****** ****** ****** ****** ****** ****** ******
      ****** ****** ****** ****** ****** ****** ****** ****** ****** ******
  24  ****** ****** ****** ****** ****** ****** ****** ****** ****** ******
      ****** ****** ****** ****** ****** ****** ****** ****** ****** ******
      ****** ****** ****** ****** ****** ****** ****** ****** ****** ******
  25  ****** ****** ****** ****** ****** ****** ****** ****** ****** ******
      ****** ****** ****** ****** ****** ****** ****** ****** ****** ******
      ****** ****** ****** ****** ****** ****** ****** ****** ****** ******

 HEAD WILL BE SAVED ON UNIT   51 AT END OF TIME STEP    1, STRESS PERIOD    2
1
  VOLUMETRIC BUDGET FOR ENTIRE MODEL AT END OF TIME STEP    1, STRESS PERIOD   2
  ------------------------------------------------------------------------------

     CUMULATIVE VOLUMES      L**3       RATES FOR THIS TIME STEP      L**3/T
     ------------------                 ------------------------

           IN:                                      IN:
           ---                                      ---
             STORAGE =    23781237.6077               STORAGE =       59118.2521
       CONSTANT HEAD =     2864408.4363         CONSTANT HEAD =       18230.3888
               WELLS =           0.0000                 WELLS =           0.0000
            RECHARGE =     6292800.0000              RECHARGE =       55200.0000
      STREAM LEAKAGE =     1271726.8716        STREAM LEAKAGE =        9924.9757

            TOTAL IN =    34210172.9156              TOTAL IN =      142473.6167

          OUT:                                     OUT:
          ----                                     ----
             STORAGE =           0.0000               STORAGE =           0.0000
       CONSTANT HEAD =           0.0000         CONSTANT HEAD =           0.0000
               WELLS =     8655118.4516                 WELLS =       47295.7292
            RECHARGE =           0.0000              RECHARGE =           0.0000
      STREAM LEAKAGE =    25555055.7259        STREAM LEAKAGE =       95177.8982

           TOTAL OUT =    34210174.1776             TOTAL OUT =      142473.6274

            IN - OUT =          -1.2619              IN - OUT =      -1.0716E-02

 PERCENT DISCREPANCY =          -0.00     PERCENT DISCREPANCY =          -0.00






         TIME SUMMARY AT END OF TIME STEP    1 IN STRESS PERIOD    2
                    SECONDS     MINUTES      HOURS       DAYS        YEARS
                    -----------------------------------------------------------
   TIME STEP LENGTH 7.86240E+06 1.31040E+05  2184.0      91.000     0.24914    
 STRESS PERIOD TIME 7.86240E+06 1.31040E+05  2184.0      91.000     0.24914    
         TOTAL TIME 1.58112E+07 2.63520E+05  4392.0      183.00     0.50103    
1
1
                            STRESS PERIOD NO.    3, LENGTH =   91.00000    
                            -----------------------------------------------

                              NUMBER OF TIME STEPS =     1

                               MULTIPLIER FOR DELT =     1.500

                            INITIAL TIME STEP SIZE =   91.00000    

 WELL NO.  LAYER   ROW   COL   STRESS RATE         
 --------------------------------------------------
      1      1     19     29     -0.1179E+05
      2      1     10     29     -0.1333E+05
      3      1     20     21      -8354.    
      4      1      8     12     -0.1382E+05

      4 WELLS

                 RECHARGE =   0.00000    

 REUSING STREAM SEGMENT DATA FROM LAST STRESS PERIOD
 
 SOLVING FOR HEAD 


     7 CALLS TO PCG ROUTINE FOR TIME STEP   1 IN STRESS PERIOD    3
    27 TOTAL ITERATIONS

 OUTPUT CONTROL FOR STRESS PERIOD    3   TIME STEP    1
    SAVE BUDGET
    SAVE HEAD FOR ALL LAYERS
    PRINT HEAD FOR ALL LAYERS
 UBDSV2 SAVING "STREAMFLOW OUT  " ON UNIT  50 AT TIME STEP  1, STRESS PERIOD   3



 STREAM LISTING     PERIOD      3   STEP        1

 LAYER ROW COL. STREAM  RCH.  FLOW INTO     FLOW TO   FLOW OUT OF   OVRLND.     DIRECT     STREAM       STREAM     STREAM     STREAM   STREAMBED  STREAMBED
                SEG.NO.  NO.  STRM. RCH.    AQUIFER    STRM. RCH.    RUNOFF     PRECIP       ET          HEAD       DEPTH      WIDTH   CONDCTNC.   GRADIENT

   1   13    1     1     1    1.0000E+05 -2.5521E+03   1.0255E+05  0.000E+00  0.000E+00  0.000E+00  4.84071E+01  1.458E-01  2.000E+01  2.000E+04 -1.276E-01
   1   13    2     1     2    1.0255E+05 -3.6449E+03   1.0620E+05  0.000E+00  0.000E+00  0.000E+00  4.79325E+01  1.484E-01  2.000E+01  2.000E+04 -1.822E-01
   1   14    3     1     3    1.0620E+05 -6.3770E+02   1.0683E+05  0.000E+00  0.000E+00  0.000E+00  4.74571E+01  1.502E-01  2.000E+01  2.000E+04 -3.189E-02
   1   15    4     1     4    1.0683E+05 -6.2556E+02   1.0746E+05  0.000E+00  0.000E+00  0.000E+00  4.69803E+01  1.508E-01  2.000E+01  2.000E+04 -3.128E-02
   1   16    5     1     5    1.0746E+05 -2.4244E+03   1.0988E+05  0.000E+00  0.000E+00  0.000E+00  4.65043E+01  1.521E-01  2.000E+01  2.000E+04 -1.212E-01
   1   16    6     1     6    1.0988E+05 -1.4718E+03   1.1136E+05  0.000E+00  0.000E+00  0.000E+00  4.60287E+01  1.537E-01  2.000E+01  2.000E+04 -7.359E-02
   1   16    7     1     7    1.1136E+05 -1.4254E+03   1.1278E+05  0.000E+00  0.000E+00  0.000E+00  4.55526E+01  1.549E-01  2.000E+01  2.000E+04 -7.127E-02
   1   16    8     1     8    1.1278E+05 -1.3998E+03   1.1418E+05  0.000E+00  0.000E+00  0.000E+00  4.50765E+01  1.561E-01  2.000E+01  2.000E+04 -6.999E-02
   1   16    9     1     9    1.1418E+05 -1.3638E+03   1.1555E+05  0.000E+00  0.000E+00  0.000E+00  4.46004E+01  1.572E-01  2.000E+01  2.000E+04 -6.819E-02
   1   16   10     1    10    1.1555E+05 -1.3124E+03   1.1686E+05  0.000E+00  0.000E+00  0.000E+00  4.41242E+01  1.583E-01  2.000E+01  2.000E+04 -6.562E-02
   1   16   11     1    11    1.1686E+05 -1.2673E+03   1.1813E+05  0.000E+00  0.000E+00  0.000E+00  4.36480E+01  1.593E-01  2.000E+01  2.000E+04 -6.336E-02
   1   16   12     1    12    1.1813E+05 -2.0412E+03   1.2017E+05  0.000E+00  0.000E+00  0.000E+00  4.31720E+01  1.607E-01  2.000E+01  2.000E+04 -1.021E-01
   1   15   13     1    13    1.2017E+05 -1.6914E+03   1.2186E+05  0.000E+00  0.000E+00  0.000E+00  4.26963E+01  1.622E-01  2.000E+01  2.000E+04 -8.457E-02
   1   14   14     1    14    1.2186E+05 -1.7510E+03   1.2361E+05  0.000E+00  0.000E+00  0.000E+00  4.22204E+01  1.636E-01  2.000E+01  2.000E+04 -8.755E-02
   1   13   15     1    15    1.2361E+05 -1.9041E+03   1.2551E+05  0.000E+00  0.000E+00  0.000E+00  4.17446E+01  1.650E-01  2.000E+01  2.000E+04 -9.520E-02
   1   12   16     1    16    1.2551E+05 -2.5542E+03   1.2807E+05  0.000E+00  0.000E+00  0.000E+00  4.12691E+01  1.668E-01  2.000E+01  2.000E+04 -1.277E-01
   1   12   17     1    17    1.2807E+05 -1.8775E+03   1.2994E+05  0.000E+00  0.000E+00  0.000E+00  4.07935E+01  1.685E-01  2.000E+01  2.000E+04 -9.387E-02
   1   12   18     1    18    1.2994E+05 -1.8964E+03   1.3184E+05  0.000E+00  0.000E+00  0.000E+00  4.03177E+01  1.700E-01  2.000E+01  2.000E+04 -9.482E-02
   1   12   19     1    19    1.3184E+05 -2.6201E+03   1.3446E+05  0.000E+00  0.000E+00  0.000E+00  3.98422E+01  1.718E-01  2.000E+01  2.000E+04 -1.310E-01
   1   13   20     1    20    1.3446E+05 -1.8376E+03   1.3630E+05  0.000E+00  0.000E+00  0.000E+00  3.93667E+01  1.735E-01  2.000E+01  2.000E+04 -9.188E-02
   1   14   21     1    21    1.3630E+05 -1.3723E+03   1.3767E+05  0.000E+00  0.000E+00  0.000E+00  3.88906E+01  1.747E-01  2.000E+01  2.000E+04 -6.862E-02
   1   14   22     1    22    1.3767E+05  5.0575E+03   1.3261E+05  0.000E+00  0.000E+00  0.000E+00  3.84119E+01  1.733E-01  2.000E+01  2.000E+04  2.529E-01
   1    9   30     2     1    5.0000E+04  1.6631E+03   4.8337E+04  0.000E+00  0.000E+00  0.000E+00  4.02397E+01  1.147E-01  2.000E+01  2.000E+04  8.316E-02
   1    9   29     2     2    4.8337E+04  3.6805E+03   4.4656E+04  0.000E+00  0.000E+00  0.000E+00  3.99859E+01  1.109E-01  2.000E+01  2.000E+04  1.840E-01
   1    9   28     2     3    4.4656E+04  4.3659E+02   4.4220E+04  0.000E+00  0.000E+00  0.000E+00  3.97330E+01  1.080E-01  2.000E+01  2.000E+04  2.183E-02
   1    9   27     2     4    4.4220E+04 -2.2762E+03   4.6496E+04  0.000E+00  0.000E+00  0.000E+00  3.94843E+01  1.093E-01  2.000E+01  2.000E+04 -1.138E-01
   1   10   26     2     5    4.6496E+04 -9.8287E+02   4.7479E+04  0.000E+00  0.000E+00  0.000E+00  3.92366E+01  1.116E-01  2.000E+01  2.000E+04 -4.914E-02
   1   11   25     2     6    4.7479E+04 -1.2303E+03   4.8709E+04  0.000E+00  0.000E+00  0.000E+00  3.89882E+01  1.132E-01  2.000E+01  2.000E+04 -6.151E-02
   1   12   24     2     7    4.8709E+04 -1.6103E+03   5.0319E+04  0.000E+00  0.000E+00  0.000E+00  3.87402E+01  1.152E-01  2.000E+01  2.000E+04 -8.051E-02
   1   13   23     2     8    5.0319E+04 -2.5794E+02   5.0577E+04  0.000E+00  0.000E+00  0.000E+00  3.84915E+01  1.165E-01  2.000E+01  2.000E+04 -1.290E-02
   1   14   22     2     9    5.0577E+04  1.6294E+03   4.8948E+04  0.000E+00  0.000E+00  0.000E+00  3.82405E+01  1.155E-01  2.000E+01  2.000E+04  8.147E-02
   1   14   22     3     1    1.8156E+05 -8.5881E+03   1.9015E+05  0.000E+00  0.000E+00  0.000E+00  3.77297E+01  1.741E-01  2.000E+01  2.000E+04 -4.294E-01
   1   15   23     3     2    1.9015E+05 -4.4988E+02   1.9060E+05  0.000E+00  0.000E+00  0.000E+00  3.68433E+01  1.766E-01  2.000E+01  2.000E+04 -2.249E-02
   1   15   24     3     3    1.9060E+05 -2.6572E+02   1.9086E+05  0.000E+00  0.000E+00  0.000E+00  3.59546E+01  1.768E-01  2.000E+01  2.000E+04 -1.329E-02
   1   15   25     3     4    1.9086E+05 -2.6323E+02   1.9113E+05  0.000E+00  0.000E+00  0.000E+00  3.50659E+01  1.770E-01  2.000E+01  2.000E+04 -1.316E-02
   1   15   26     3     5    1.9113E+05 -2.5584E+02   1.9138E+05  0.000E+00  0.000E+00  0.000E+00  3.41771E+01  1.771E-01  2.000E+01  2.000E+04 -1.279E-02
   1   16   27     3     6    1.9138E+05 -2.3231E+02   1.9162E+05  0.000E+00  0.000E+00  0.000E+00  3.32884E+01  1.773E-01  2.000E+01  2.000E+04 -1.162E-02
   1   17   28     3     7    1.9162E+05 -9.6447E+00   1.9163E+05  0.000E+00  0.000E+00  0.000E+00  3.23995E+01  1.773E-01  2.000E+01  2.000E+04 -4.822E-04
   1   18   29     3     8    1.9163E+05  3.0108E+03   1.8862E+05  0.000E+00  0.000E+00  0.000E+00  3.15098E+01  1.765E-01  2.000E+01  2.000E+04  1.505E-01
   1   18   30     3     9    1.8862E+05 -2.5896E+02   1.8887E+05  0.000E+00  0.000E+00  0.000E+00  3.06202E+01  1.757E-01  2.000E+01  2.000E+04 -1.295E-02



1
              HEAD IN LAYER   1 AT END OF TIME STEP   1 IN STRESS PERIOD    3
  ---------------------------------------------------------------------------

          1      2      3      4      5      6      7      8      9     10
         11     12     13     14     15     16     17     18     19     20
         21     22     23     24     25     26     27     28     29     30
 .........................................................................
   1  ****** ****** ****** ****** ****** ****** ****** ****** ****** ******
      ****** ****** ****** ****** ****** ****** ****** ****** ****** ******
      ****** ****** ****** ****** ****** ****** ****** ****** ****** ******
   2  ****** ****** ****** ****** ****** ****** ****** ****** ****** ******
      ****** ****** ****** ****** ****** ****** ****** ****** ****** ******
      ****** ****** ****** ****** ****** ****** ****** ****** ****** ******
   3  ****** ****** ****** ****** ****** ****** ****** ****** ****** ******
      ****** ****** ****** ****** ****** ****** ****** ****** ****** ******
      ****** ****** ****** ****** ****** ****** ****** ****** ****** ******
   4  ****** ****** ****** ****** ****** ****** ****** ****** ****** ******
      ****** ****** ****** ****** ****** ****** ****** ****** ****** ******
      ****** ****** ****** ****** ****** ****** ****** ****** ****** ******
   5  ****** ****** ****** ****** ****** ****** ****** ****** ****** ******
      ****** ****** ****** ****** ****** ****** ****** ****** ****** ******
      ****** ****** ****** ****** ****** ****** ****** ****** ****** ******
   6  ****** ****** ****** ****** ****** ****** ****** ****** ****** ******
      ****** ****** ****** ****** ****** ****** ****** ****** ****** ******
      ****** ****** ****** ****** ****** ****** ****** ****** ****** ******
   7  ****** ****** ****** ****** ****** ****** ****** ****** ****** ******
      ****** ****** ****** ****** ****** ****** ****** ****** ****** ******
      ****** ****** ****** ****** ****** ****** ****** ****** ****** ******
   8  ****** ****** ****** ****** ****** ****** ****** ****** ****** ******
      ****** ****** ****** ****** ****** ****** ****** ****** ****** ******
      ****** ****** ****** ****** ****** ****** ****** ****** ****** ******
   9  ****** ****** ****** ****** ****** ****** ****** ****** ****** ******
      ****** ****** ****** ****** ****** ****** ****** ****** ****** ******
      ****** ****** ****** ****** ****** ****** ****** ****** ****** ******
  10  ****** ****** ****** ****** ****** ****** ****** ****** ****** ******
      ****** ****** ****** ****** ****** ****** ****** ****** ****** ******
      ****** ****** ****** ****** ****** ****** ****** ****** ****** ******
  11  ****** ****** ****** ****** ****** ****** ****** ****** ****** ******
      ****** ****** ****** ****** ****** ****** ****** ****** ****** ******
      ****** ****** ****** ****** ****** ****** ****** ****** ****** ******
  12  ****** ****** ****** ****** ****** ****** ****** ****** ****** ******
      ****** ****** ****** ****** ****** ****** ****** ****** ****** ******
      ****** ****** ****** ****** ****** ****** ****** ****** ****** ******
  13  ****** ****** ****** ****** ****** ****** ****** ****** ****** ******
      ****** ****** ****** ****** ****** ****** ****** ****** ****** ******
      ****** ****** ****** ****** ****** ****** ****** ****** ****** ******
  14  ****** ****** ****** ****** ****** ****** ****** ****** ****** ******
      ****** ****** ****** ****** ****** ****** ****** ****** ****** ******
      ****** ****** ****** ****** ****** ****** ****** ****** ****** ******
  15  ****** ****** ****** ****** ****** ****** ****** ****** ****** ******
      ****** ****** ****** ****** ****** ****** ****** ****** ****** ******
      ****** ****** ****** ****** ****** ****** ****** ****** ****** ******
  16  ****** ****** ****** ****** ****** ****** ****** ****** ****** ******
      ****** ****** ****** ****** ****** ****** ****** ****** ****** ******
      ****** ****** ****** ****** ****** ****** ****** ****** ****** ******
  17  ****** ****** ****** ****** ****** ****** ****** ****** ****** ******
      ****** ****** ****** ****** ****** ****** ****** ****** ****** ******
      ****** ****** ****** ****** ****** ****** ****** ****** ****** ******
  18  ****** ****** ****** ****** ****** ****** ****** ****** ****** ******
      ****** ****** ****** ****** ****** ****** ****** ****** ****** ******
      ****** ****** ****** ****** ****** ****** ****** ****** ****** ******
  19  ****** ****** ****** ****** ****** ****** ****** ****** ****** ******
      ****** ****** ****** ****** ****** ****** ****** ****** ****** ******
      ****** ****** ****** ****** ****** ****** ****** ****** ****** ******
  20  ****** ****** ****** ****** ****** ****** ****** ****** ****** ******
      ****** ****** ****** ****** ****** ****** ****** ****** ****** ******
      ****** ****** ****** ****** ****** ****** ****** ****** ****** ******
  21  ****** ****** ****** ****** ****** ****** ****** ****** ****** ******
      ****** ****** ****** ****** ****** ****** ****** ****** ****** ******
      ****** ****** ****** ****** ****** ****** ****** ****** ****** ******
  22  ****** ****** ****** ****** ****** ****** ****** ****** ****** ******
      ****** ****** ****** ****** ****** ****** ****** ****** ****** ******
      ****** ****** ****** ****** ****** ****** ****** ****** ****** ******
  23  ****** ****** ****** ****** ****** ****** ****** ****** ****** ******
      ****** ****** ****** ****** ****** ****** ****** ****** ****** ******
      ****** ****** ****** ****** ****** ****** ****** ****** ****** ******
  24  ****** ****** ****** ****** ****** ****** ****** ****** ****** ******
      ****** ****** ****** ****** ****** ****** ****** ****** ****** ******
      ****** ****** ****** ****** ****** ****** ****** ****** ****** ******
  25  ****** ****** ****** ****** ****** ****** ****** ****** ****** ******
      ****** ****** ****** ****** ****** ****** ****** ****** ****** ******
      ****** ****** ****** ****** ****** ****** ****** ****** ****** ******

 HEAD WILL BE SAVED ON UNIT   51 AT END OF TIME STEP    1, STRESS PERIOD    3
1
  VOLUMETRIC BUDGET FOR ENTIRE MODEL AT END OF TIME STEP    1, STRESS PERIOD   3
  ------------------------------------------------------------------------------

     CUMULATIVE VOLUMES      L**3       RATES FOR THIS TIME STEP      L**3/T
     ------------------                 ------------------------

           IN:                                      IN:
           ---                                      ---
             STORAGE =    29140746.3423               STORAGE =       58895.7004
       CONSTANT HEAD =     5346361.2536         CONSTANT HEAD =       27274.2068
               WELLS =           0.0000                 WELLS =           0.0000
            RECHARGE =     6292800.0000              RECHARGE =           0.0000
      STREAM LEAKAGE =     2680213.9722        STREAM LEAKAGE =       15477.8802

            TOTAL IN =    43460121.5681              TOTAL IN =      101647.7874

          OUT:                                     OUT:
          ----                                     ----
             STORAGE =           0.0000               STORAGE =           0.0000
       CONSTANT HEAD =           0.0000         CONSTANT HEAD =           0.0000
               WELLS =    12959029.8128                 WELLS =       47295.7292
            RECHARGE =           0.0000              RECHARGE =           0.0000
      STREAM LEAKAGE =    30501093.7182        STREAM LEAKAGE =       54352.0658

           TOTAL OUT =    43460123.5310             TOTAL OUT =      101647.7951

            IN - OUT =          -1.9630              IN - OUT =      -7.7034E-03

 PERCENT DISCREPANCY =          -0.00     PERCENT DISCREPANCY =          -0.00






         TIME SUMMARY AT END OF TIME STEP    1 IN STRESS PERIOD    3
                    SECONDS     MINUTES      HOURS       DAYS        YEARS
                    -----------------------------------------------------------
   TIME STEP LENGTH 7.86240E+06 1.31040E+05  2184.0      91.000     0.24914    
 STRESS PERIOD TIME 7.86240E+06 1.31040E+05  2184.0      91.000     0.24914    
         TOTAL TIME 2.36736E+07 3.94560E+05  6576.0      274.00     0.75017    
1
1
                            STRESS PERIOD NO.    4, LENGTH =   91.00000    
                            -----------------------------------------------

                              NUMBER OF TIME STEPS =     1

                               MULTIPLIER FOR DELT =     1.500

                            INITIAL TIME STEP SIZE =   91.00000    

 WELL NO.  LAYER   ROW   COL   STRESS RATE         
 --------------------------------------------------
      1      1     19     29     -0.1179E+05
      2      1     10     29     -0.1333E+05
      3      1     20     21      -8354.    
      4      1      8     12     -0.1382E+05

      4 WELLS

                 RECHARGE =  1.000000E-03

 REUSING STREAM SEGMENT DATA FROM LAST STRESS PERIOD
 
 SOLVING FOR HEAD 


     6 CALLS TO PCG ROUTINE FOR TIME STEP   1 IN STRESS PERIOD    4
    23 TOTAL ITERATIONS

 OUTPUT CONTROL FOR STRESS PERIOD    4   TIME STEP    1
    SAVE BUDGET
    SAVE HEAD FOR ALL LAYERS
    PRINT HEAD FOR ALL LAYERS
 UBDSV2 SAVING "STREAMFLOW OUT  " ON UNIT  50 AT TIME STEP  1, STRESS PERIOD   4



 STREAM LISTING     PERIOD      4   STEP        1

 LAYER ROW COL. STREAM  RCH.  FLOW INTO     FLOW TO   FLOW OUT OF   OVRLND.     DIRECT     STREAM       STREAM     STREAM     STREAM   STREAMBED  STREAMBED
                SEG.NO.  NO.  STRM. RCH.    AQUIFER    STRM. RCH.    RUNOFF     PRECIP       ET          HEAD       DEPTH      WIDTH   CONDCTNC.   GRADIENT

   1   13    1     1     1    1.0000E+05 -2.2536E+03   1.0225E+05  0.000E+00  0.000E+00  0.000E+00  4.84070E+01  1.456E-01  2.000E+01  2.000E+04 -1.127E-01
   1   13    2     1     2    1.0225E+05 -3.3007E+03   1.0555E+05  0.000E+00  0.000E+00  0.000E+00  4.79321E+01  1.480E-01  2.000E+01  2.000E+04 -1.650E-01
   1   14    3     1     3    1.0555E+05 -6.0141E+02   1.0616E+05  0.000E+00  0.000E+00  0.000E+00  4.74565E+01  1.497E-01  2.000E+01  2.000E+04 -3.007E-02
   1   15    4     1     4    1.0616E+05 -5.8119E+02   1.0674E+05  0.000E+00  0.000E+00  0.000E+00  4.69797E+01  1.502E-01  2.000E+01  2.000E+04 -2.906E-02
   1   16    5     1     5    1.0674E+05 -2.1133E+03   1.0885E+05  0.000E+00  0.000E+00  0.000E+00  4.65036E+01  1.513E-01  2.000E+01  2.000E+04 -1.057E-01
   1   16    6     1     6    1.0885E+05 -1.3142E+03   1.1016E+05  0.000E+00  0.000E+00  0.000E+00  4.60278E+01  1.528E-01  2.000E+01  2.000E+04 -6.571E-02
   1   16    7     1     7    1.1016E+05 -1.2771E+03   1.1144E+05  0.000E+00  0.000E+00  0.000E+00  4.55516E+01  1.538E-01  2.000E+01  2.000E+04 -6.385E-02
   1   16    8     1     8    1.1144E+05 -1.2537E+03   1.1270E+05  0.000E+00  0.000E+00  0.000E+00  4.50753E+01  1.549E-01  2.000E+01  2.000E+04 -6.269E-02
   1   16    9     1     9    1.1270E+05 -1.2186E+03   1.1391E+05  0.000E+00  0.000E+00  0.000E+00  4.45991E+01  1.559E-01  2.000E+01  2.000E+04 -6.093E-02
   1   16   10     1    10    1.1391E+05 -1.1688E+03   1.1508E+05  0.000E+00  0.000E+00  0.000E+00  4.41228E+01  1.569E-01  2.000E+01  2.000E+04 -5.844E-02
   1   16   11     1    11    1.1508E+05 -1.1211E+03   1.1620E+05  0.000E+00  0.000E+00  0.000E+00  4.36465E+01  1.578E-01  2.000E+01  2.000E+04 -5.605E-02
   1   16   12     1    12    1.1620E+05 -1.7265E+03   1.1793E+05  0.000E+00  0.000E+00  0.000E+00  4.31704E+01  1.590E-01  2.000E+01  2.000E+04 -8.633E-02
   1   15   13     1    13    1.1793E+05 -1.3787E+03   1.1931E+05  0.000E+00  0.000E+00  0.000E+00  4.26943E+01  1.603E-01  2.000E+01  2.000E+04 -6.894E-02
   1   14   14     1    14    1.1931E+05 -1.4027E+03   1.2071E+05  0.000E+00  0.000E+00  0.000E+00  4.22182E+01  1.614E-01  2.000E+01  2.000E+04 -7.013E-02
   1   13   15     1    15    1.2071E+05 -1.5227E+03   1.2223E+05  0.000E+00  0.000E+00  0.000E+00  4.17421E+01  1.626E-01  2.000E+01  2.000E+04 -7.614E-02
   1   12   16     1    16    1.2223E+05 -2.0660E+03   1.2430E+05  0.000E+00  0.000E+00  0.000E+00  4.12663E+01  1.640E-01  2.000E+01  2.000E+04 -1.033E-01
   1   12   17     1    17    1.2430E+05 -1.5902E+03   1.2589E+05  0.000E+00  0.000E+00  0.000E+00  4.07905E+01  1.655E-01  2.000E+01  2.000E+04 -7.951E-02
   1   12   18     1    18    1.2589E+05 -1.6343E+03   1.2752E+05  0.000E+00  0.000E+00  0.000E+00  4.03145E+01  1.667E-01  2.000E+01  2.000E+04 -8.171E-02
   1   12   19     1    19    1.2752E+05 -2.3057E+03   1.2983E+05  0.000E+00  0.000E+00  0.000E+00  3.98387E+01  1.683E-01  2.000E+01  2.000E+04 -1.153E-01
   1   13   20     1    20    1.2983E+05 -1.6246E+03   1.3145E+05  0.000E+00  0.000E+00  0.000E+00  3.93630E+01  1.698E-01  2.000E+01  2.000E+04 -8.123E-02
   1   14   21     1    21    1.3145E+05 -1.0791E+03   1.3253E+05  0.000E+00  0.000E+00  0.000E+00  3.88868E+01  1.709E-01  2.000E+01  2.000E+04 -5.395E-02
   1   14   22     1    22    1.3253E+05  5.1038E+03   1.2743E+05  0.000E+00  0.000E+00  0.000E+00  3.84079E+01  1.693E-01  2.000E+01  2.000E+04  2.552E-01
   1    9   30     2     1    5.0000E+04  1.7580E+03   4.8242E+04  0.000E+00  0.000E+00  0.000E+00  4.02396E+01  1.146E-01  2.000E+01  2.000E+04  8.790E-02
   1    9   29     2     2    4.8242E+04  3.7826E+03   4.4459E+04  0.000E+00  0.000E+00  0.000E+00  3.99857E+01  1.107E-01  2.000E+01  2.000E+04  1.891E-01
   1    9   28     2     3    4.4459E+04  5.5971E+02   4.3900E+04  0.000E+00  0.000E+00  0.000E+00  3.97326E+01  1.076E-01  2.000E+01  2.000E+04  2.799E-02
   1    9   27     2     4    4.3900E+04 -1.9954E+03   4.5895E+04  0.000E+00  0.000E+00  0.000E+00  3.94836E+01  1.086E-01  2.000E+01  2.000E+04 -9.977E-02
   1   10   26     2     5    4.5895E+04 -8.1011E+02   4.6705E+04  0.000E+00  0.000E+00  0.000E+00  3.92356E+01  1.106E-01  2.000E+01  2.000E+04 -4.051E-02
   1   11   25     2     6    4.6705E+04 -1.0969E+03   4.7802E+04  0.000E+00  0.000E+00  0.000E+00  3.89870E+01  1.120E-01  2.000E+01  2.000E+04 -5.484E-02
   1   12   24     2     7    4.7802E+04 -1.4944E+03   4.9296E+04  0.000E+00  0.000E+00  0.000E+00  3.87388E+01  1.138E-01  2.000E+01  2.000E+04 -7.472E-02
   1   13   23     2     8    4.9296E+04 -2.8054E+02   4.9577E+04  0.000E+00  0.000E+00  0.000E+00  3.84901E+01  1.151E-01  2.000E+01  2.000E+04 -1.403E-02
   1   14   22     2     9    4.9577E+04  1.7265E+03   4.7851E+04  0.000E+00  0.000E+00  0.000E+00  3.82391E+01  1.141E-01  2.000E+01  2.000E+04  8.632E-02
   1   14   22     3     1    1.7528E+05 -8.5331E+03   1.8381E+05  0.000E+00  0.000E+00  0.000E+00  3.77261E+01  1.705E-01  2.000E+01  2.000E+04 -4.267E-01
   1   15   23     3     2    1.8381E+05 -4.0975E+02   1.8422E+05  0.000E+00  0.000E+00  0.000E+00  3.68397E+01  1.731E-01  2.000E+01  2.000E+04 -2.049E-02
   1   15   24     3     3    1.8422E+05 -2.5512E+02   1.8448E+05  0.000E+00  0.000E+00  0.000E+00  3.59510E+01  1.733E-01  2.000E+01  2.000E+04 -1.276E-02
   1   15   25     3     4    1.8448E+05 -2.5318E+02   1.8473E+05  0.000E+00  0.000E+00  0.000E+00  3.50623E+01  1.734E-01  2.000E+01  2.000E+04 -1.266E-02
   1   15   26     3     5    1.8473E+05 -2.5697E+02   1.8499E+05  0.000E+00  0.000E+00  0.000E+00  3.41735E+01  1.735E-01  2.000E+01  2.000E+04 -1.285E-02
   1   16   27     3     6    1.8499E+05 -2.1933E+02   1.8521E+05  0.000E+00  0.000E+00  0.000E+00  3.32848E+01  1.737E-01  2.000E+01  2.000E+04 -1.097E-02
   1   17   28     3     7    1.8521E+05  1.0922E+02   1.8510E+05  0.000E+00  0.000E+00  0.000E+00  3.23959E+01  1.737E-01  2.000E+01  2.000E+04  5.461E-03
   1   18   29     3     8    1.8510E+05  3.3371E+03   1.8176E+05  0.000E+00  0.000E+00  0.000E+00  3.15061E+01  1.727E-01  2.000E+01  2.000E+04  1.669E-01
   1   18   30     3     9    1.8176E+05 -8.1572E+01   1.8184E+05  0.000E+00  0.000E+00  0.000E+00  3.06163E+01  1.718E-01  2.000E+01  2.000E+04 -4.079E-03



1
              HEAD IN LAYER   1 AT END OF TIME STEP   1 IN STRESS PERIOD    4
  ---------------------------------------------------------------------------

          1      2      3      4      5      6      7      8      9     10
         11     12     13     14     15     16     17     18     19     20
         21     22     23     24     25     26     27     28     29     30
 .........................................................................
   1  ****** ****** ****** ****** ****** ****** ****** ****** ****** ******
      ****** ****** ****** ****** ****** ****** ****** ****** ****** ******
      ****** ****** ****** ****** ****** ****** ****** ****** ****** ******
   2  ****** ****** ****** ****** ****** ****** ****** ****** ****** ******
      ****** ****** ****** ****** ****** ****** ****** ****** ****** ******
      ****** ****** ****** ****** ****** ****** ****** ****** ****** ******
   3  ****** ****** ****** ****** ****** ****** ****** ****** ****** ******
      ****** ****** ****** ****** ****** ****** ****** ****** ****** ******
      ****** ****** ****** ****** ****** ****** ****** ****** ****** ******
   4  ****** ****** ****** ****** ****** ****** ****** ****** ****** ******
      ****** ****** ****** ****** ****** ****** ****** ****** ****** ******
      ****** ****** ****** ****** ****** ****** ****** ****** ****** ******
   5  ****** ****** ****** ****** ****** ****** ****** ****** ****** ******
      ****** ****** ****** ****** ****** ****** ****** ****** ****** ******
      ****** ****** ****** ****** ****** ****** ****** ****** ****** ******
   6  ****** ****** ****** ****** ****** ****** ****** ****** ****** ******
      ****** ****** ****** ****** ****** ****** ****** ****** ****** ******
      ****** ****** ****** ****** ****** ****** ****** ****** ****** ******
   7  ****** ****** ****** ****** ****** ****** ****** ****** ****** ******
      ****** ****** ****** ****** ****** ****** ****** ****** ****** ******
      ****** ****** ****** ****** ****** ****** ****** ****** ****** ******
   8  ****** ****** ****** ****** ****** ****** ****** ****** ****** ******
      ****** ****** ****** ****** ****** ****** ****** ****** ****** ******
      ****** ****** ****** ****** ****** ****** ****** ****** ****** ******
   9  ****** ****** ****** ****** ****** ****** ****** ****** ****** ******
      ****** ****** ****** ****** ****** ****** ****** ****** ****** ******
      ****** ****** ****** ****** ****** ****** ****** ****** ****** ******
  10  ****** ****** ****** ****** ****** ****** ****** ****** ****** ******
      ****** ****** ****** ****** ****** ****** ****** ****** ****** ******
      ****** ****** ****** ****** ****** ****** ****** ****** ****** ******
  11  ****** ****** ****** ****** ****** ****** ****** ****** ****** ******
      ****** ****** ****** ****** ****** ****** ****** ****** ****** ******
      ****** ****** ****** ****** ****** ****** ****** ****** ****** ******
  12  ****** ****** ****** ****** ****** ****** ****** ****** ****** ******
      ****** ****** ****** ****** ****** ****** ****** ****** ****** ******
      ****** ****** ****** ****** ****** ****** ****** ****** ****** ******
  13  ****** ****** ****** ****** ****** ****** ****** ****** ****** ******
      ****** ****** ****** ****** ****** ****** ****** ****** ****** ******
      ****** ****** ****** ****** ****** ****** ****** ****** ****** ******
  14  ****** ****** ****** ****** ****** ****** ****** ****** ****** ******
      ****** ****** ****** ****** ****** ****** ****** ****** ****** ******
      ****** ****** ****** ****** ****** ****** ****** ****** ****** ******
  15  ****** ****** ****** ****** ****** ****** ****** ****** ****** ******
      ****** ****** ****** ****** ****** ****** ****** ****** ****** ******
      ****** ****** ****** ****** ****** ****** ****** ****** ****** ******
  16  ****** ****** ****** ****** ****** ****** ****** ****** ****** ******
      ****** ****** ****** ****** ****** ****** ****** ****** ****** ******
      ****** ****** ****** ****** ****** ****** ****** ****** ****** ******
  17  ****** ****** ****** ****** ****** ****** ****** ****** ****** ******
      ****** ****** ****** ****** ****** ****** ****** ****** ****** ******
      ****** ****** ****** ****** ****** ****** ****** ****** ****** ******
  18  ****** ****** ****** ****** ****** ****** ****** ****** ****** ******
      ****** ****** ****** ****** ****** ****** ****** ****** ****** ******
      ****** ****** ****** ****** ****** ****** ****** ****** ****** ******
  19  ****** ****** ****** ****** ****** ****** ****** ****** ****** ******
      ****** ****** ****** ****** ****** ****** ****** ****** ****** ******
      ****** ****** ****** ****** ****** ****** ****** ****** ****** ******
  20  ****** ****** ****** ****** ****** ****** ****** ****** ****** ******
      ****** ****** ****** ****** ****** ****** ****** ****** ****** ******
      ****** ****** ****** ****** ****** ****** ****** ****** ****** ******
  21  ****** ****** ****** ****** ****** ****** ****** ****** ****** ******
      ****** ****** ****** ****** ****** ****** ****** ****** ****** ******
      ****** ****** ****** ****** ****** ****** ****** ****** ****** ******
  22  ****** ****** ****** ****** ****** ****** ****** ****** ****** ******
      ****** ****** ****** ****** ****** ****** ****** ****** ****** ******
      ****** ****** ****** ****** ****** ****** ****** ****** ****** ******
  23  ****** ****** ****** ****** ****** ****** ****** ****** ****** ******
      ****** ****** ****** ****** ****** ****** ****** ****** ****** ******
      ****** ****** ****** ****** ****** ****** ****** ****** ****** ******
  24  ****** ****** ****** ****** ****** ****** ****** ****** ****** ******
      ****** ****** ****** ****** ****** ****** ****** ****** ****** ******
      ****** ****** ****** ****** ****** ****** ****** ****** ****** ******
  25  ****** ****** ****** ****** ****** ****** ****** ****** ****** ******
      ****** ****** ****** ****** ****** ****** ****** ****** ****** ******
      ****** ****** ****** ****** ****** ****** ****** ****** ****** ******

 HEAD WILL BE SAVED ON UNIT   51 AT END OF TIME STEP    1, STRESS PERIOD    4
1
  VOLUMETRIC BUDGET FOR ENTIRE MODEL AT END OF TIME STEP    1, STRESS PERIOD   4
  ------------------------------------------------------------------------------

     CUMULATIVE VOLUMES      L**3       RATES FOR THIS TIME STEP      L**3/T
     ------------------                 ------------------------

           IN:                                      IN:
           ---                                      ---
             STORAGE =    31079971.2410               STORAGE =       21310.1637
       CONSTANT HEAD =     8097933.1220         CONSTANT HEAD =       30237.0535
               WELLS =           0.0000                 WELLS =           0.0000
            RECHARGE =     8804400.0000              RECHARGE =       27600.0000
      STREAM LEAKAGE =     4170507.4933        STREAM LEAKAGE =       16376.8519

            TOTAL IN =    52152811.8563              TOTAL IN =       95524.0691

          OUT:                                     OUT:
          ----                                     ----
             STORAGE =         722.2542               STORAGE =           7.9369
       CONSTANT HEAD =           0.0000         CONSTANT HEAD =           0.0000
               WELLS =    17262941.1740                 WELLS =       47295.7292
            RECHARGE =           0.0000              RECHARGE =           0.0000
      STREAM LEAKAGE =    34889150.4761        STREAM LEAKAGE =       48220.4039

           TOTAL OUT =    52152813.9044             TOTAL OUT =       95524.0700

            IN - OUT =          -2.0481              IN - OUT =      -9.3585E-04

 PERCENT DISCREPANCY =          -0.00     PERCENT DISCREPANCY =          -0.00






         TIME SUMMARY AT END OF TIME STEP    1 IN STRESS PERIOD    4
                    SECONDS     MINUTES      HOURS       DAYS        YEARS
                    -----------------------------------------------------------
   TIME STEP LENGTH 7.86240E+06 1.31040E+05  2184.0      91.000     0.24914    
 STRESS PERIOD TIME 7.86240E+06 1.31040E+05  2184.0      91.000     0.24914    
         TOTAL TIME 3.15360E+07 5.25600E+05  8760.0      365.00     0.99932    
1
1
                            STRESS PERIOD NO.    5, LENGTH =   92.00000    
                            -----------------------------------------------

                              NUMBER OF TIME STEPS =     1

                               MULTIPLIER FOR DELT =     1.500

                            INITIAL TIME STEP SIZE =   92.00000    

 WELL NO.  LAYER   ROW   COL   STRESS RATE         
 --------------------------------------------------
      1      1     19     29     -0.1179E+05
      2      1     10     29     -0.1333E+05
      3      1     20     21      -8354.    
      4      1      8     12     -0.1382E+05

      4 WELLS

                 RECHARGE =  5.000000E-04

 REUSING STREAM SEGMENT DATA FROM LAST STRESS PERIOD
 
 SOLVING FOR HEAD 


     7 CALLS TO PCG ROUTINE FOR TIME STEP   1 IN STRESS PERIOD    5
    26 TOTAL ITERATIONS

 OUTPUT CONTROL FOR STRESS PERIOD    5   TIME STEP    1
    SAVE BUDGET
    SAVE HEAD FOR ALL LAYERS
    PRINT HEAD FOR ALL LAYERS
 UBDSV2 SAVING "STREAMFLOW OUT  " ON UNIT  50 AT TIME STEP  1, STRESS PERIOD   5



 STREAM LISTING     PERIOD      5   STEP        1

 LAYER ROW COL. STREAM  RCH.  FLOW INTO     FLOW TO   FLOW OUT OF   OVRLND.     DIRECT     STREAM       STREAM     STREAM     STREAM   STREAMBED  STREAMBED
                SEG.NO.  NO.  STRM. RCH.    AQUIFER    STRM. RCH.    RUNOFF     PRECIP       ET          HEAD       DEPTH      WIDTH   CONDCTNC.   GRADIENT

   1   13    1     1     1    1.0000E+05 -1.7887E+03   1.0179E+05  0.000E+00  0.000E+00  0.000E+00  4.84068E+01  1.454E-01  2.000E+01  2.000E+04 -8.943E-02
   1   13    2     1     2    1.0179E+05 -2.7748E+03   1.0456E+05  0.000E+00  0.000E+00  0.000E+00  4.79315E+01  1.474E-01  2.000E+01  2.000E+04 -1.387E-01
   1   14    3     1     3    1.0456E+05 -4.7217E+02   1.0504E+05  0.000E+00  0.000E+00  0.000E+00  4.74556E+01  1.488E-01  2.000E+01  2.000E+04 -2.361E-02
   1   15    4     1     4    1.0504E+05 -4.4690E+02   1.0548E+05  0.000E+00  0.000E+00  0.000E+00  4.69787E+01  1.492E-01  2.000E+01  2.000E+04 -2.234E-02
   1   16    5     1     5    1.0548E+05 -1.6753E+03   1.0716E+05  0.000E+00  0.000E+00  0.000E+00  4.65023E+01  1.501E-01  2.000E+01  2.000E+04 -8.376E-02
   1   16    6     1     6    1.0716E+05 -1.0546E+03   1.0821E+05  0.000E+00  0.000E+00  0.000E+00  4.60262E+01  1.512E-01  2.000E+01  2.000E+04 -5.273E-02
   1   16    7     1     7    1.0821E+05 -1.0267E+03   1.0924E+05  0.000E+00  0.000E+00  0.000E+00  4.55498E+01  1.521E-01  2.000E+01  2.000E+04 -5.133E-02
   1   16    8     1     8    1.0924E+05 -1.0060E+03   1.1025E+05  0.000E+00  0.000E+00  0.000E+00  4.50734E+01  1.529E-01  2.000E+01  2.000E+04 -5.030E-02
   1   16    9     1     9    1.1025E+05 -9.7299E+02   1.1122E+05  0.000E+00  0.000E+00  0.000E+00  4.45970E+01  1.538E-01  2.000E+01  2.000E+04 -4.865E-02
   1   16   10     1    10    1.1122E+05 -9.2612E+02   1.1214E+05  0.000E+00  0.000E+00  0.000E+00  4.41205E+01  1.546E-01  2.000E+01  2.000E+04 -4.631E-02
   1   16   11     1    11    1.1214E+05 -8.7727E+02   1.1302E+05  0.000E+00  0.000E+00  0.000E+00  4.36439E+01  1.553E-01  2.000E+01  2.000E+04 -4.386E-02
   1   16   12     1    12    1.1302E+05 -1.2828E+03   1.1430E+05  0.000E+00  0.000E+00  0.000E+00  4.31676E+01  1.562E-01  2.000E+01  2.000E+04 -6.414E-02
   1   15   13     1    13    1.1430E+05 -9.0237E+02   1.1521E+05  0.000E+00  0.000E+00  0.000E+00  4.26912E+01  1.571E-01  2.000E+01  2.000E+04 -4.512E-02
   1   14   14     1    14    1.1521E+05 -8.9051E+02   1.1610E+05  0.000E+00  0.000E+00  0.000E+00  4.22147E+01  1.578E-01  2.000E+01  2.000E+04 -4.453E-02
   1   13   15     1    15    1.1610E+05 -9.8793E+02   1.1709E+05  0.000E+00  0.000E+00  0.000E+00  4.17382E+01  1.586E-01  2.000E+01  2.000E+04 -4.940E-02
   1   12   16     1    16    1.1709E+05 -1.4771E+03   1.1856E+05  0.000E+00  0.000E+00  0.000E+00  4.12619E+01  1.596E-01  2.000E+01  2.000E+04 -7.386E-02
   1   12   17     1    17    1.1856E+05 -1.2022E+03   1.1976E+05  0.000E+00  0.000E+00  0.000E+00  4.07857E+01  1.607E-01  2.000E+01  2.000E+04 -6.011E-02
   1   12   18     1    18    1.1976E+05 -1.2684E+03   1.2103E+05  0.000E+00  0.000E+00  0.000E+00  4.03094E+01  1.617E-01  2.000E+01  2.000E+04 -6.342E-02
   1   12   19     1    19    1.2103E+05 -1.8670E+03   1.2290E+05  0.000E+00  0.000E+00  0.000E+00  3.98334E+01  1.630E-01  2.000E+01  2.000E+04 -9.335E-02
   1   13   20     1    20    1.2290E+05 -1.2439E+03   1.2414E+05  0.000E+00  0.000E+00  0.000E+00  3.93574E+01  1.642E-01  2.000E+01  2.000E+04 -6.219E-02
   1   14   21     1    21    1.2414E+05 -6.6538E+02   1.2481E+05  0.000E+00  0.000E+00  0.000E+00  3.88809E+01  1.650E-01  2.000E+01  2.000E+04 -3.327E-02
   1   14   22     1    22    1.2481E+05  5.1902E+03   1.1962E+05  0.000E+00  0.000E+00  0.000E+00  3.84018E+01  1.632E-01  2.000E+01  2.000E+04  2.595E-01
   1    9   30     2     1    5.0000E+04  1.9925E+03   4.8008E+04  0.000E+00  0.000E+00  0.000E+00  4.02395E+01  1.145E-01  2.000E+01  2.000E+04  9.962E-02
   1    9   29     2     2    4.8008E+04  4.0210E+03   4.3987E+04  0.000E+00  0.000E+00  0.000E+00  3.99852E+01  1.102E-01  2.000E+01  2.000E+04  2.011E-01
   1    9   28     2     3    4.3987E+04  8.1084E+02   4.3176E+04  0.000E+00  0.000E+00  0.000E+00  3.97317E+01  1.067E-01  2.000E+01  2.000E+04  4.054E-02
   1    9   27     2     4    4.3176E+04 -1.5962E+03   4.4772E+04  0.000E+00  0.000E+00  0.000E+00  3.94823E+01  1.073E-01  2.000E+01  2.000E+04 -7.981E-02
   1   10   26     2     5    4.4772E+04 -4.6004E+02   4.5232E+04  0.000E+00  0.000E+00  0.000E+00  3.92338E+01  1.088E-01  2.000E+01  2.000E+04 -2.300E-02
   1   11   25     2     6    4.5232E+04 -7.7431E+02   4.6006E+04  0.000E+00  0.000E+00  0.000E+00  3.89847E+01  1.097E-01  2.000E+01  2.000E+04 -3.872E-02
   1   12   24     2     7    4.6006E+04 -1.1984E+03   4.7205E+04  0.000E+00  0.000E+00  0.000E+00  3.87361E+01  1.111E-01  2.000E+01  2.000E+04 -5.992E-02
   1   13   23     2     8    4.7205E+04 -2.1012E+02   4.7415E+04  0.000E+00  0.000E+00  0.000E+00  3.84871E+01  1.121E-01  2.000E+01  2.000E+04 -1.051E-02
   1   14   22     2     9    4.7415E+04  1.8724E+03   4.5542E+04  0.000E+00  0.000E+00  0.000E+00  3.82359E+01  1.109E-01  2.000E+01  2.000E+04  9.362E-02
   1   14   22     3     1    1.6516E+05 -8.4410E+03   1.7360E+05  0.000E+00  0.000E+00  0.000E+00  3.77202E+01  1.647E-01  2.000E+01  2.000E+04 -4.221E-01
   1   15   23     3     2    1.7360E+05 -3.0183E+02   1.7390E+05  0.000E+00  0.000E+00  0.000E+00  3.68339E+01  1.672E-01  2.000E+01  2.000E+04 -1.509E-02
   1   15   24     3     3    1.7390E+05 -1.7714E+02   1.7408E+05  0.000E+00  0.000E+00  0.000E+00  3.59451E+01  1.673E-01  2.000E+01  2.000E+04 -8.857E-03
   1   15   25     3     4    1.7408E+05 -1.7624E+02   1.7426E+05  0.000E+00  0.000E+00  0.000E+00  3.50563E+01  1.674E-01  2.000E+01  2.000E+04 -8.812E-03
   1   15   26     3     5    1.7426E+05 -1.8065E+02   1.7444E+05  0.000E+00  0.000E+00  0.000E+00  3.41676E+01  1.676E-01  2.000E+01  2.000E+04 -9.033E-03
   1   16   27     3     6    1.7444E+05 -1.2143E+02   1.7456E+05  0.000E+00  0.000E+00  0.000E+00  3.32788E+01  1.676E-01  2.000E+01  2.000E+04 -6.072E-03
   1   17   28     3     7    1.7456E+05  4.0519E+02   1.7415E+05  0.000E+00  0.000E+00  0.000E+00  3.23898E+01  1.676E-01  2.000E+01  2.000E+04  2.026E-02
   1   18   29     3     8    1.7415E+05  3.7689E+03   1.7039E+05  0.000E+00  0.000E+00  0.000E+00  3.14997E+01  1.664E-01  2.000E+01  2.000E+04  1.884E-01
   1   18   30     3     9    1.7039E+05  2.1194E+02   1.7017E+05  0.000E+00  0.000E+00  0.000E+00  3.06096E+01  1.652E-01  2.000E+01  2.000E+04  1.060E-02



1
              HEAD IN LAYER   1 AT END OF TIME STEP   1 IN STRESS PERIOD    5
  ---------------------------------------------------------------------------

          1      2      3      4      5      6      7      8      9     10
         11     12     13     14     15     16     17     18     19     20
         21     22     23     24     25     26     27     28     29     30
 .........................................................................
   1  ****** ****** ****** ****** ****** ****** ****** ****** ****** ******
      ****** ****** ****** ****** ****** ****** ****** ****** ****** ******
      ****** ****** ****** ****** ****** ****** ****** ****** ****** ******
   2  ****** ****** ****** ****** ****** ****** ****** ****** ****** ******
      ****** ****** ****** ****** ****** ****** ****** ****** ****** ******
      ****** ****** ****** ****** ****** ****** ****** ****** ****** ******
   3  ****** ****** ****** ****** ****** ****** ****** ****** ****** ******
      ****** ****** ****** ****** ****** ****** ****** ****** ****** ******
      ****** ****** ****** ****** ****** ****** ****** ****** ****** ******
   4  ****** ****** ****** ****** ****** ****** ****** ****** ****** ******
      ****** ****** ****** ****** ****** ****** ****** ****** ****** ******
      ****** ****** ****** ****** ****** ****** ****** ****** ****** ******
   5  ****** ****** ****** ****** ****** ****** ****** ****** ****** ******
      ****** ****** ****** ****** ****** ****** ****** ****** ****** ******
      ****** ****** ****** ****** ****** ****** ****** ****** ****** ******
   6  ****** ****** ****** ****** ****** ****** ****** ****** ****** ******
      ****** ****** ****** ****** ****** ****** ****** ****** ****** ******
      ****** ****** ****** ****** ****** ****** ****** ****** ****** ******
   7  ****** ****** ****** ****** ****** ****** ****** ****** ****** ******
      ****** ****** ****** ****** ****** ****** ****** ****** ****** ******
      ****** ****** ****** ****** ****** ****** ****** ****** ****** ******
   8  ****** ****** ****** ****** ****** ****** ****** ****** ****** ******
      ****** ****** ****** ****** ****** ****** ****** ****** ****** ******
      ****** ****** ****** ****** ****** ****** ****** ****** ****** ******
   9  ****** ****** ****** ****** ****** ****** ****** ****** ****** ******
      ****** ****** ****** ****** ****** ****** ****** ****** ****** ******
      ****** ****** ****** ****** ****** ****** ****** ****** ****** ******
  10  ****** ****** ****** ****** ****** ****** ****** ****** ****** ******
      ****** ****** ****** ****** ****** ****** ****** ****** ****** ******
      ****** ****** ****** ****** ****** ****** ****** ****** ****** ******
  11  ****** ****** ****** ****** ****** ****** ****** ****** ****** ******
      ****** ****** ****** ****** ****** ****** ****** ****** ****** ******
      ****** ****** ****** ****** ****** ****** ****** ****** ****** ******
  12  ****** ****** ****** ****** ****** ****** ****** ****** ****** ******
      ****** ****** ****** ****** ****** ****** ****** ****** ****** ******
      ****** ****** ****** ****** ****** ****** ****** ****** ****** ******
  13  ****** ****** ****** ****** ****** ****** ****** ****** ****** ******
      ****** ****** ****** ****** ****** ****** ****** ****** ****** ******
      ****** ****** ****** ****** ****** ****** ****** ****** ****** ******
  14  ****** ****** ****** ****** ****** ****** ****** ****** ****** ******
      ****** ****** ****** ****** ****** ****** ****** ****** ****** ******
      ****** ****** ****** ****** ****** ****** ****** ****** ****** ******
  15  ****** ****** ****** ****** ****** ****** ****** ****** ****** ******
      ****** ****** ****** ****** ****** ****** ****** ****** ****** ******
      ****** ****** ****** ****** ****** ****** ****** ****** ****** ******
  16  ****** ****** ****** ****** ****** ****** ****** ****** ****** ******
      ****** ****** ****** ****** ****** ****** ****** ****** ****** ******
      ****** ****** ****** ****** ****** ****** ****** ****** ****** ******
  17  ****** ****** ****** ****** ****** ****** ****** ****** ****** ******
      ****** ****** ****** ****** ****** ****** ****** ****** ****** ******
      ****** ****** ****** ****** ****** ****** ****** ****** ****** ******
  18  ****** ****** ****** ****** ****** ****** ****** ****** ****** ******
      ****** ****** ****** ****** ****** ****** ****** ****** ****** ******
      ****** ****** ****** ****** ****** ****** ****** ****** ****** ******
  19  ****** ****** ****** ****** ****** ****** ****** ****** ****** ******
      ****** ****** ****** ****** ****** ****** ****** ****** ****** ******
      ****** ****** ****** ****** ****** ****** ****** ****** ****** ******
  20  ****** ****** ****** ****** ****** ****** ****** ****** ****** ******
      ****** ****** ****** ****** ****** ****** ****** ****** ****** ******
      ****** ****** ****** ****** ****** ****** ****** ****** ****** ******
  21  ****** ****** ****** ****** ****** ****** ****** ****** ****** ******
      ****** ****** ****** ****** ****** ****** ****** ****** ****** ******
      ****** ****** ****** ****** ****** ****** ****** ****** ****** ******
  22  ****** ****** ****** ****** ****** ****** ****** ****** ****** ******
      ****** ****** ****** ****** ****** ****** ****** ****** ****** ******
      ****** ****** ****** ****** ****** ****** ****** ****** ****** ******
  23  ****** ****** ****** ****** ****** ****** ****** ****** ****** ******
      ****** ****** ****** ****** ****** ****** ****** ****** ****** ******
      ****** ****** ****** ****** ****** ****** ****** ****** ****** ******
  24  ****** ****** ****** ****** ****** ****** ****** ****** ****** ******
      ****** ****** ****** ****** ****** ****** ****** ****** ****** ******
      ****** ****** ****** ****** ****** ****** ****** ****** ****** ******
  25  ****** ****** ****** ****** ****** ****** ****** ****** ****** ******
      ****** ****** ****** ****** ****** ****** ****** ****** ****** ******
      ****** ****** ****** ****** ****** ****** ****** ****** ****** ******

 HEAD WILL BE SAVED ON UNIT   51 AT END OF TIME STEP    1, STRESS PERIOD    5
1
  VOLUMETRIC BUDGET FOR ENTIRE MODEL AT END OF TIME STEP    1, STRESS PERIOD   5
  ------------------------------------------------------------------------------

     CUMULATIVE VOLUMES      L**3       RATES FOR THIS TIME STEP      L**3/T
     ------------------                 ------------------------

           IN:                                      IN:
           ---                                      ---
             STORAGE =    32943534.5716               STORAGE =       20256.1232
       CONSTANT HEAD =    11171947.2688         CONSTANT HEAD =       33413.1972
               WELLS =           0.0000                 WELLS =           0.0000
            RECHARGE =    10074000.0000              RECHARGE =       13800.0000
      STREAM LEAKAGE =     5851621.5461        STREAM LEAKAGE =       18272.9788

            TOTAL IN =    60041103.3866              TOTAL IN =       85742.2992

          OUT:                                     OUT:
          ----                                     ----
             STORAGE =         722.2542               STORAGE =           0.0000
       CONSTANT HEAD =           0.0000         CONSTANT HEAD =           0.0000
               WELLS =    21614148.2645                 WELLS =       47295.7292
            RECHARGE =           0.0000              RECHARGE =           0.0000
      STREAM LEAKAGE =    38426235.2259        STREAM LEAKAGE =       38446.5734

           TOTAL OUT =    60041105.7446             TOTAL OUT =       85742.3026

            IN - OUT =          -2.3580              IN - OUT =      -3.3685E-03

 PERCENT DISCREPANCY =          -0.00     PERCENT DISCREPANCY =          -0.00






         TIME SUMMARY AT END OF TIME STEP    1 IN STRESS PERIOD    5
                    SECONDS     MINUTES      HOURS       DAYS        YEARS
                    -----------------------------------------------------------
   TIME STEP LENGTH 7.94880E+06 1.32480E+05  2208.0      92.000     0.25188    
 STRESS PERIOD TIME 7.94880E+06 1.32480E+05  2208.0      92.000     0.25188    
         TOTAL TIME 3.94848E+07 6.58080E+05  10968.      457.00      1.2512    
1
1
                            STRESS PERIOD NO.    6, LENGTH =   91.00000    
                            -----------------------------------------------

                              NUMBER OF TIME STEPS =     1

                               MULTIPLIER FOR DELT =     1.500

                            INITIAL TIME STEP SIZE =   91.00000    

 WELL NO.  LAYER   ROW   COL   STRESS RATE         
 --------------------------------------------------
      1      1     19     29     -0.1179E+05
      2      1     10     29     -0.1333E+05
      3      1     20     21      -8354.    
      4      1      8     12     -0.1382E+05

      4 WELLS

                 RECHARGE =  2.000000E-03

 REUSING STREAM SEGMENT DATA FROM LAST STRESS PERIOD
 
 SOLVING FOR HEAD 


     7 CALLS TO PCG ROUTINE FOR TIME STEP   1 IN STRESS PERIOD    6
    26 TOTAL ITERATIONS

 OUTPUT CONTROL FOR STRESS PERIOD    6   TIME STEP    1
    SAVE BUDGET
    SAVE HEAD FOR ALL LAYERS
    PRINT HEAD FOR ALL LAYERS
 UBDSV2 SAVING "STREAMFLOW OUT  " ON UNIT  50 AT TIME STEP  1, STRESS PERIOD   6



 STREAM LISTING     PERIOD      6   STEP        1

 LAYER ROW COL. STREAM  RCH.  FLOW INTO     FLOW TO   FLOW OUT OF   OVRLND.     DIRECT     STREAM       STREAM     STREAM     STREAM   STREAMBED  STREAMBED
                SEG.NO.  NO.  STRM. RCH.    AQUIFER    STRM. RCH.    RUNOFF     PRECIP       ET          HEAD       DEPTH      WIDTH   CONDCTNC.   GRADIENT

   1   13    1     1     1    1.0000E+05 -2.0666E+03   1.0207E+05  0.000E+00  0.000E+00  0.000E+00  4.84069E+01  1.455E-01  2.000E+01  2.000E+04 -1.033E-01
   1   13    2     1     2    1.0207E+05 -3.0770E+03   1.0514E+05  0.000E+00  0.000E+00  0.000E+00  4.79318E+01  1.478E-01  2.000E+01  2.000E+04 -1.539E-01
   1   14    3     1     3    1.0514E+05 -6.2135E+02   1.0576E+05  0.000E+00  0.000E+00  0.000E+00  4.74562E+01  1.493E-01  2.000E+01  2.000E+04 -3.107E-02
   1   15    4     1     4    1.0576E+05 -6.0868E+02   1.0637E+05  0.000E+00  0.000E+00  0.000E+00  4.69794E+01  1.499E-01  2.000E+01  2.000E+04 -3.043E-02
   1   16    5     1     5    1.0637E+05 -2.1663E+03   1.0854E+05  0.000E+00  0.000E+00  0.000E+00  4.65033E+01  1.510E-01  2.000E+01  2.000E+04 -1.083E-01
   1   16    6     1     6    1.0854E+05 -1.3403E+03   1.0988E+05  0.000E+00  0.000E+00  0.000E+00  4.60275E+01  1.525E-01  2.000E+01  2.000E+04 -6.701E-02
   1   16    7     1     7    1.0988E+05 -1.2963E+03   1.1118E+05  0.000E+00  0.000E+00  0.000E+00  4.55513E+01  1.536E-01  2.000E+01  2.000E+04 -6.481E-02
   1   16    8     1     8    1.1118E+05 -1.2705E+03   1.1245E+05  0.000E+00  0.000E+00  0.000E+00  4.50751E+01  1.547E-01  2.000E+01  2.000E+04 -6.352E-02
   1   16    9     1     9    1.1245E+05 -1.2368E+03   1.1368E+05  0.000E+00  0.000E+00  0.000E+00  4.45989E+01  1.557E-01  2.000E+01  2.000E+04 -6.184E-02
   1   16   10     1    10    1.1368E+05 -1.1917E+03   1.1488E+05  0.000E+00  0.000E+00  0.000E+00  4.41226E+01  1.567E-01  2.000E+01  2.000E+04 -5.958E-02
   1   16   11     1    11    1.1488E+05 -1.1461E+03   1.1602E+05  0.000E+00  0.000E+00  0.000E+00  4.36463E+01  1.577E-01  2.000E+01  2.000E+04 -5.731E-02
   1   16   12     1    12    1.1602E+05 -1.7118E+03   1.1773E+05  0.000E+00  0.000E+00  0.000E+00  4.31702E+01  1.588E-01  2.000E+01  2.000E+04 -8.559E-02
   1   15   13     1    13    1.1773E+05 -1.3340E+03   1.1907E+05  0.000E+00  0.000E+00  0.000E+00  4.26942E+01  1.601E-01  2.000E+01  2.000E+04 -6.670E-02
   1   14   14     1    14    1.1907E+05 -1.3118E+03   1.2038E+05  0.000E+00  0.000E+00  0.000E+00  4.22180E+01  1.612E-01  2.000E+01  2.000E+04 -6.559E-02
   1   13   15     1    15    1.2038E+05 -1.3862E+03   1.2177E+05  0.000E+00  0.000E+00  0.000E+00  4.17418E+01  1.622E-01  2.000E+01  2.000E+04 -6.931E-02
   1   12   16     1    16    1.2177E+05 -1.8234E+03   1.2359E+05  0.000E+00  0.000E+00  0.000E+00  4.12658E+01  1.635E-01  2.000E+01  2.000E+04 -9.117E-02
   1   12   17     1    17    1.2359E+05 -1.4949E+03   1.2508E+05  0.000E+00  0.000E+00  0.000E+00  4.07898E+01  1.648E-01  2.000E+01  2.000E+04 -7.474E-02
   1   12   18     1    18    1.2508E+05 -1.5680E+03   1.2665E+05  0.000E+00  0.000E+00  0.000E+00  4.03138E+01  1.661E-01  2.000E+01  2.000E+04 -7.840E-02
   1   12   19     1    19    1.2665E+05 -2.2425E+03   1.2889E+05  0.000E+00  0.000E+00  0.000E+00  3.98380E+01  1.676E-01  2.000E+01  2.000E+04 -1.121E-01
   1   13   20     1    20    1.2889E+05 -1.6514E+03   1.3055E+05  0.000E+00  0.000E+00  0.000E+00  3.93623E+01  1.691E-01  2.000E+01  2.000E+04 -8.257E-02
   1   14   21     1    21    1.3055E+05 -1.0588E+03   1.3160E+05  0.000E+00  0.000E+00  0.000E+00  3.88861E+01  1.702E-01  2.000E+01  2.000E+04 -5.294E-02
   1   14   22     1    22    1.3160E+05  5.0834E+03   1.2652E+05  0.000E+00  0.000E+00  0.000E+00  3.84072E+01  1.686E-01  2.000E+01  2.000E+04  2.542E-01
   1    9   30     2     1    5.0000E+04  1.6308E+03   4.8369E+04  0.000E+00  0.000E+00  0.000E+00  4.02397E+01  1.147E-01  2.000E+01  2.000E+04  8.154E-02
   1    9   29     2     2    4.8369E+04  3.6639E+03   4.4705E+04  0.000E+00  0.000E+00  0.000E+00  3.99860E+01  1.110E-01  2.000E+01  2.000E+04  1.832E-01
   1    9   28     2     3    4.4705E+04  4.6124E+02   4.4244E+04  0.000E+00  0.000E+00  0.000E+00  3.97330E+01  1.080E-01  2.000E+01  2.000E+04  2.306E-02
   1    9   27     2     4    4.4244E+04 -2.0348E+03   4.6279E+04  0.000E+00  0.000E+00  0.000E+00  3.94841E+01  1.091E-01  2.000E+01  2.000E+04 -1.017E-01
   1   10   26     2     5    4.6279E+04 -9.2303E+02   4.7202E+04  0.000E+00  0.000E+00  0.000E+00  3.92363E+01  1.113E-01  2.000E+01  2.000E+04 -4.615E-02
   1   11   25     2     6    4.7202E+04 -1.2225E+03   4.8424E+04  0.000E+00  0.000E+00  0.000E+00  3.89878E+01  1.128E-01  2.000E+01  2.000E+04 -6.113E-02
   1   12   24     2     7    4.8424E+04 -1.6014E+03   5.0026E+04  0.000E+00  0.000E+00  0.000E+00  3.87398E+01  1.148E-01  2.000E+01  2.000E+04 -8.007E-02
   1   13   23     2     8    5.0026E+04 -3.4679E+02   5.0373E+04  0.000E+00  0.000E+00  0.000E+00  3.84911E+01  1.161E-01  2.000E+01  2.000E+04 -1.734E-02
   1   14   22     2     9    5.0373E+04  1.7425E+03   4.8630E+04  0.000E+00  0.000E+00  0.000E+00  3.82402E+01  1.152E-01  2.000E+01  2.000E+04  8.713E-02
   1   14   22     3     1    1.7515E+05 -8.5406E+03   1.8369E+05  0.000E+00  0.000E+00  0.000E+00  3.77260E+01  1.705E-01  2.000E+01  2.000E+04 -4.270E-01
   1   15   23     3     2    1.8369E+05 -4.3449E+02   1.8413E+05  0.000E+00  0.000E+00  0.000E+00  3.68397E+01  1.730E-01  2.000E+01  2.000E+04 -2.172E-02
   1   15   24     3     3    1.8413E+05 -2.9617E+02   1.8442E+05  0.000E+00  0.000E+00  0.000E+00  3.59510E+01  1.732E-01  2.000E+01  2.000E+04 -1.481E-02
   1   15   25     3     4    1.8442E+05 -2.9997E+02   1.8472E+05  0.000E+00  0.000E+00  0.000E+00  3.50623E+01  1.734E-01  2.000E+01  2.000E+04 -1.500E-02
   1   15   26     3     5    1.8472E+05 -3.3014E+02   1.8505E+05  0.000E+00  0.000E+00  0.000E+00  3.41736E+01  1.736E-01  2.000E+01  2.000E+04 -1.651E-02
   1   16   27     3     6    1.8505E+05 -2.8676E+02   1.8534E+05  0.000E+00  0.000E+00  0.000E+00  3.32848E+01  1.737E-01  2.000E+01  2.000E+04 -1.434E-02
   1   17   28     3     7    1.8534E+05 -4.5423E+01   1.8538E+05  0.000E+00  0.000E+00  0.000E+00  3.23960E+01  1.738E-01  2.000E+01  2.000E+04 -2.271E-03
   1   18   29     3     8    1.8538E+05  3.3548E+03   1.8203E+05  0.000E+00  0.000E+00  0.000E+00  3.15062E+01  1.729E-01  2.000E+01  2.000E+04  1.677E-01
   1   18   30     3     9    1.8203E+05 -1.2853E+02   1.8216E+05  0.000E+00  0.000E+00  0.000E+00  3.06164E+01  1.720E-01  2.000E+01  2.000E+04 -6.426E-03



1
              HEAD IN LAYER   1 AT END OF TIME STEP   1 IN STRESS PERIOD    6
  ---------------------------------------------------------------------------

          1      2      3      4      5      6      7      8      9     10
         11     12     13     14     15     16     17     18     19     20
         21     22     23     24     25     26     27     28     29     30
 .........................................................................
   1  ****** ****** ****** ****** ****** ****** ****** ****** ****** ******
      ****** ****** ****** ****** ****** ****** ****** ****** ****** ******
      ****** ****** ****** ****** ****** ****** ****** ****** ****** ******
   2  ****** ****** ****** ****** ****** ****** ****** ****** ****** ******
      ****** ****** ****** ****** ****** ****** ****** ****** ****** ******
      ****** ****** ****** ****** ****** ****** ****** ****** ****** ******
   3  ****** ****** ****** ****** ****** ****** ****** ****** ****** ******
      ****** ****** ****** ****** ****** ****** ****** ****** ****** ******
      ****** ****** ****** ****** ****** ****** ****** ****** ****** ******
   4  ****** ****** ****** ****** ****** ****** ****** ****** ****** ******
      ****** ****** ****** ****** ****** ****** ****** ****** ****** ******
      ****** ****** ****** ****** ****** ****** ****** ****** ****** ******
   5  ****** ****** ****** ****** ****** ****** ****** ****** ****** ******
      ****** ****** ****** ****** ****** ****** ****** ****** ****** ******
      ****** ****** ****** ****** ****** ****** ****** ****** ****** ******
   6  ****** ****** ****** ****** ****** ****** ****** ****** ****** ******
      ****** ****** ****** ****** ****** ****** ****** ****** ****** ******
      ****** ****** ****** ****** ****** ****** ****** ****** ****** ******
   7  ****** ****** ****** ****** ****** ****** ****** ****** ****** ******
      ****** ****** ****** ****** ****** ****** ****** ****** ****** ******
      ****** ****** ****** ****** ****** ****** ****** ****** ****** ******
   8  ****** ****** ****** ****** ****** ****** ****** ****** ****** ******
      ****** ****** ****** ****** ****** ****** ****** ****** ****** ******
      ****** ****** ****** ****** ****** ****** ****** ****** ****** ******
   9  ****** ****** ****** ****** ****** ****** ****** ****** ****** ******
      ****** ****** ****** ****** ****** ****** ****** ****** ****** ******
      ****** ****** ****** ****** ****** ****** ****** ****** ****** ******
  10  ****** ****** ****** ****** ****** ****** ****** ****** ****** ******
      ****** ****** ****** ****** ****** ****** ****** ****** ****** ******
      ****** ****** ****** ****** ****** ****** ****** ****** ****** ******
  11  ****** ****** ****** ****** ****** ****** ****** ****** ****** ******
      ****** ****** ****** ****** ****** ****** ****** ****** ****** ******
      ****** ****** ****** ****** ****** ****** ****** ****** ****** ******
  12  ****** ****** ****** ****** ****** ****** ****** ****** ****** ******
      ****** ****** ****** ****** ****** ****** ****** ****** ****** ******
      ****** ****** ****** ****** ****** ****** ****** ****** ****** ******
  13  ****** ****** ****** ****** ****** ****** ****** ****** ****** ******
      ****** ****** ****** ****** ****** ****** ****** ****** ****** ******
      ****** ****** ****** ****** ****** ****** ****** ****** ****** ******
  14  ****** ****** ****** ****** ****** ****** ****** ****** ****** ******
      ****** ****** ****** ****** ****** ****** ****** ****** ****** ******
      ****** ****** ****** ****** ****** ****** ****** ****** ****** ******
  15  ****** ****** ****** ****** ****** ****** ****** ****** ****** ******
      ****** ****** ****** ****** ****** ****** ****** ****** ****** ******
      ****** ****** ****** ****** ****** ****** ****** ****** ****** ******
  16  ****** ****** ****** ****** ****** ****** ****** ****** ****** ******
      ****** ****** ****** ****** ****** ****** ****** ****** ****** ******
      ****** ****** ****** ****** ****** ****** ****** ****** ****** ******
  17  ****** ****** ****** ****** ****** ****** ****** ****** ****** ******
      ****** ****** ****** ****** ****** ****** ****** ****** ****** ******
      ****** ****** ****** ****** ****** ****** ****** ****** ****** ******
  18  ****** ****** ****** ****** ****** ****** ****** ****** ****** ******
      ****** ****** ****** ****** ****** ****** ****** ****** ****** ******
      ****** ****** ****** ****** ****** ****** ****** ****** ****** ******
  19  ****** ****** ****** ****** ****** ****** ****** ****** ****** ******
      ****** ****** ****** ****** ****** ****** ****** ****** ****** ******
      ****** ****** ****** ****** ****** ****** ****** ****** ****** ******
  20  ****** ****** ****** ****** ****** ****** ****** ****** ****** ******
      ****** ****** ****** ****** ****** ****** ****** ****** ****** ******
      ****** ****** ****** ****** ****** ****** ****** ****** ****** ******
  21  ****** ****** ****** ****** ****** ****** ****** ****** ****** ******
      ****** ****** ****** ****** ****** ****** ****** ****** ****** ******
      ****** ****** ****** ****** ****** ****** ****** ****** ****** ******
  22  ****** ****** ****** ****** ****** ****** ****** ****** ****** ******
      ****** ****** ****** ****** ****** ****** ****** ****** ****** ******
      ****** ****** ****** ****** ****** ****** ****** ****** ****** ******
  23  ****** ****** ****** ****** ****** ****** ****** ****** ****** ******
      ****** ****** ****** ****** ****** ****** ****** ****** ****** ******
      ****** ****** ****** ****** ****** ****** ****** ****** ****** ******
  24  ****** ****** ****** ****** ****** ****** ****** ****** ****** ******
      ****** ****** ****** ****** ****** ****** ****** ****** ****** ******
      ****** ****** ****** ****** ****** ****** ****** ****** ****** ******
  25  ****** ****** ****** ****** ****** ****** ****** ****** ****** ******
      ****** ****** ****** ****** ****** ****** ****** ****** ****** ******
      ****** ****** ****** ****** ****** ****** ****** ****** ****** ******

 HEAD WILL BE SAVED ON UNIT   51 AT END OF TIME STEP    1, STRESS PERIOD    6
1
  VOLUMETRIC BUDGET FOR ENTIRE MODEL AT END OF TIME STEP    1, STRESS PERIOD   6
  ------------------------------------------------------------------------------

     CUMULATIVE VOLUMES      L**3       RATES FOR THIS TIME STEP      L**3/T
     ------------------                 ------------------------

           IN:                                      IN:
           ---                                      ---
             STORAGE =    32954266.1472               STORAGE =         117.9294
       CONSTANT HEAD =    14054617.6971         CONSTANT HEAD =       31677.6970
               WELLS =           0.0000                 WELLS =           0.0000
            RECHARGE =    15097200.0000              RECHARGE =       55200.0000
      STREAM LEAKAGE =     7301859.6865        STREAM LEAKAGE =       15936.6829

            TOTAL IN =    69407943.5309              TOTAL IN =      102932.3093

          OUT:                                     OUT:
          ----                                     ----
             STORAGE =      687013.3830               STORAGE =        7541.6608
       CONSTANT HEAD =           0.0000         CONSTANT HEAD =           0.0000
               WELLS =    25918059.6257                 WELLS =       47295.7292
            RECHARGE =           0.0000              RECHARGE =           0.0000
      STREAM LEAKAGE =    42802872.6207        STREAM LEAKAGE =       48094.9164

           TOTAL OUT =    69407945.6294             TOTAL OUT =      102932.3064

            IN - OUT =          -2.0985              IN - OUT =       2.8515E-03

 PERCENT DISCREPANCY =          -0.00     PERCENT DISCREPANCY =           0.00






         TIME SUMMARY AT END OF TIME STEP    1 IN STRESS PERIOD    6
                    SECONDS     MINUTES      HOURS       DAYS        YEARS
                    -----------------------------------------------------------
   TIME STEP LENGTH 7.86240E+06 1.31040E+05  2184.0      91.000     0.24914    
 STRESS PERIOD TIME 7.86240E+06 1.31040E+05  2184.0      91.000     0.24914    
         TOTAL TIME 4.73472E+07 7.89120E+05  13152.      548.00      1.5003    
1
1
                            STRESS PERIOD NO.    7, LENGTH =   91.00000    
                            -----------------------------------------------

                              NUMBER OF TIME STEPS =     1

                               MULTIPLIER FOR DELT =     1.500

                            INITIAL TIME STEP SIZE =   91.00000    

 WELL NO.  LAYER   ROW   COL   STRESS RATE         
 --------------------------------------------------
      1      1     19     29     -0.1179E+05
      2      1     10     29     -0.1333E+05
      3      1     20     21      -8354.    
      4      1      8     12     -0.1382E+05

      4 WELLS

                 RECHARGE =   0.00000    

 REUSING STREAM SEGMENT DATA FROM LAST STRESS PERIOD
 
 SOLVING FOR HEAD 


     7 CALLS TO PCG ROUTINE FOR TIME STEP   1 IN STRESS PERIOD    7
    26 TOTAL ITERATIONS

 OUTPUT CONTROL FOR STRESS PERIOD    7   TIME STEP    1
    SAVE BUDGET
    SAVE HEAD FOR ALL LAYERS
    PRINT HEAD FOR ALL LAYERS
 UBDSV2 SAVING "STREAMFLOW OUT  " ON UNIT  50 AT TIME STEP  1, STRESS PERIOD   7



 STREAM LISTING     PERIOD      7   STEP        1

 LAYER ROW COL. STREAM  RCH.  FLOW INTO     FLOW TO   FLOW OUT OF   OVRLND.     DIRECT     STREAM       STREAM     STREAM     STREAM   STREAMBED  STREAMBED
                SEG.NO.  NO.  STRM. RCH.    AQUIFER    STRM. RCH.    RUNOFF     PRECIP       ET          HEAD       DEPTH      WIDTH   CONDCTNC.   GRADIENT

   1   13    1     1     1    1.0000E+05 -1.3736E+03   1.0137E+05  0.000E+00  0.000E+00  0.000E+00  4.84066E+01  1.452E-01  2.000E+01  2.000E+04 -6.868E-02
   1   13    2     1     2    1.0137E+05 -2.3005E+03   1.0367E+05  0.000E+00  0.000E+00  0.000E+00  4.79309E+01  1.468E-01  2.000E+01  2.000E+04 -1.150E-01
   1   14    3     1     3    1.0367E+05 -3.6494E+02   1.0404E+05  0.000E+00  0.000E+00  0.000E+00  4.74548E+01  1.480E-01  2.000E+01  2.000E+04 -1.825E-02
   1   15    4     1     4    1.0404E+05 -3.4236E+02   1.0438E+05  0.000E+00  0.000E+00  0.000E+00  4.69778E+01  1.483E-01  2.000E+01  2.000E+04 -1.712E-02
   1   16    5     1     5    1.0438E+05 -1.4090E+03   1.0579E+05  0.000E+00  0.000E+00  0.000E+00  4.65013E+01  1.490E-01  2.000E+01  2.000E+04 -7.045E-02
   1   16    6     1     6    1.0579E+05 -8.8165E+02   1.0667E+05  0.000E+00  0.000E+00  0.000E+00  4.60250E+01  1.500E-01  2.000E+01  2.000E+04 -4.408E-02
   1   16    7     1     7    1.0667E+05 -8.5553E+02   1.0753E+05  0.000E+00  0.000E+00  0.000E+00  4.55485E+01  1.507E-01  2.000E+01  2.000E+04 -4.278E-02
   1   16    8     1     8    1.0753E+05 -8.3542E+02   1.0836E+05  0.000E+00  0.000E+00  0.000E+00  4.50719E+01  1.514E-01  2.000E+01  2.000E+04 -4.177E-02
   1   16    9     1     9    1.0836E+05 -8.0495E+02   1.0917E+05  0.000E+00  0.000E+00  0.000E+00  4.45953E+01  1.521E-01  2.000E+01  2.000E+04 -4.025E-02
   1   16   10     1    10    1.0917E+05 -7.6248E+02   1.0993E+05  0.000E+00  0.000E+00  0.000E+00  4.41187E+01  1.528E-01  2.000E+01  2.000E+04 -3.812E-02
   1   16   11     1    11    1.0993E+05 -7.1596E+02   1.1065E+05  0.000E+00  0.000E+00  0.000E+00  4.36420E+01  1.534E-01  2.000E+01  2.000E+04 -3.580E-02
   1   16   12     1    12    1.1065E+05 -9.8605E+02   1.1163E+05  0.000E+00  0.000E+00  0.000E+00  4.31655E+01  1.541E-01  2.000E+01  2.000E+04 -4.930E-02
   1   15   13     1    13    1.1163E+05 -5.5130E+02   1.1218E+05  0.000E+00  0.000E+00  0.000E+00  4.26888E+01  1.548E-01  2.000E+01  2.000E+04 -2.757E-02
   1   14   14     1    14    1.1218E+05 -4.9771E+02   1.1268E+05  0.000E+00  0.000E+00  0.000E+00  4.22120E+01  1.552E-01  2.000E+01  2.000E+04 -2.489E-02
   1   13   15     1    15    1.1268E+05 -5.6753E+02   1.1325E+05  0.000E+00  0.000E+00  0.000E+00  4.17352E+01  1.556E-01  2.000E+01  2.000E+04 -2.838E-02
   1   12   16     1    16    1.1325E+05 -1.0068E+03   1.1426E+05  0.000E+00  0.000E+00  0.000E+00  4.12586E+01  1.563E-01  2.000E+01  2.000E+04 -5.034E-02
   1   12   17     1    17    1.1426E+05 -9.0570E+02   1.1516E+05  0.000E+00  0.000E+00  0.000E+00  4.07821E+01  1.571E-01  2.000E+01  2.000E+04 -4.528E-02
   1   12   18     1    18    1.1516E+05 -9.9487E+02   1.1616E+05  0.000E+00  0.000E+00  0.000E+00  4.03056E+01  1.578E-01  2.000E+01  2.000E+04 -4.974E-02
   1   12   19     1    19    1.1616E+05 -1.5437E+03   1.1770E+05  0.000E+00  0.000E+00  0.000E+00  3.98293E+01  1.589E-01  2.000E+01  2.000E+04 -7.719E-02
   1   13   20     1    20    1.1770E+05 -9.7369E+02   1.1867E+05  0.000E+00  0.000E+00  0.000E+00  3.93531E+01  1.599E-01  2.000E+01  2.000E+04 -4.868E-02
   1   14   21     1    21    1.1867E+05 -3.8817E+02   1.1906E+05  0.000E+00  0.000E+00  0.000E+00  3.88764E+01  1.605E-01  2.000E+01  2.000E+04 -1.941E-02
   1   14   22     1    22    1.1906E+05  5.2459E+03   1.1382E+05  0.000E+00  0.000E+00  0.000E+00  3.83971E+01  1.585E-01  2.000E+01  2.000E+04  2.623E-01
   1    9   30     2     1    5.0000E+04  2.1460E+03   4.7854E+04  0.000E+00  0.000E+00  0.000E+00  4.02394E+01  1.144E-01  2.000E+01  2.000E+04  1.073E-01
   1    9   29     2     2    4.7854E+04  4.1775E+03   4.3676E+04  0.000E+00  0.000E+00  0.000E+00  3.99849E+01  1.099E-01  2.000E+01  2.000E+04  2.089E-01
   1    9   28     2     3    4.3676E+04  9.7660E+02   4.2700E+04  0.000E+00  0.000E+00  0.000E+00  3.97311E+01  1.061E-01  2.000E+01  2.000E+04  4.883E-02
   1    9   27     2     4    4.2700E+04 -1.3325E+03   4.4032E+04  0.000E+00  0.000E+00  0.000E+00  3.94814E+01  1.064E-01  2.000E+01  2.000E+04 -6.662E-02
   1   10   26     2     5    4.4032E+04 -2.1926E+02   4.4252E+04  0.000E+00  0.000E+00  0.000E+00  3.92325E+01  1.075E-01  2.000E+01  2.000E+04 -1.096E-02
   1   11   25     2     6    4.4252E+04 -5.4746E+02   4.4799E+04  0.000E+00  0.000E+00  0.000E+00  3.89831E+01  1.081E-01  2.000E+01  2.000E+04 -2.737E-02
   1   12   24     2     7    4.4799E+04 -9.8546E+02   4.5785E+04  0.000E+00  0.000E+00  0.000E+00  3.87342E+01  1.092E-01  2.000E+01  2.000E+04 -4.927E-02
   1   13   23     2     8    4.5785E+04 -1.5421E+02   4.5939E+04  0.000E+00  0.000E+00  0.000E+00  3.84850E+01  1.100E-01  2.000E+01  2.000E+04 -7.710E-03
   1   14   22     2     9    4.5939E+04  1.9774E+03   4.3961E+04  0.000E+00  0.000E+00  0.000E+00  3.82337E+01  1.087E-01  2.000E+01  2.000E+04  9.887E-02
   1   14   22     3     1    1.5778E+05 -8.3792E+03   1.6616E+05  0.000E+00  0.000E+00  0.000E+00  3.77159E+01  1.603E-01  2.000E+01  2.000E+04 -4.190E-01
   1   15   23     3     2    1.6616E+05 -2.2598E+02   1.6638E+05  0.000E+00  0.000E+00  0.000E+00  3.68295E+01  1.629E-01  2.000E+01  2.000E+04 -1.130E-02
   1   15   24     3     3    1.6638E+05 -1.2123E+02   1.6650E+05  0.000E+00  0.000E+00  0.000E+00  3.59407E+01  1.630E-01  2.000E+01  2.000E+04 -6.061E-03
   1   15   25     3     4    1.6650E+05 -1.2205E+02   1.6663E+05  0.000E+00  0.000E+00  0.000E+00  3.50519E+01  1.630E-01  2.000E+01  2.000E+04 -6.103E-03
   1   15   26     3     5    1.6663E+05 -1.2812E+02   1.6675E+05  0.000E+00  0.000E+00  0.000E+00  3.41631E+01  1.631E-01  2.000E+01  2.000E+04 -6.406E-03
   1   16   27     3     6    1.6675E+05 -5.2914E+01   1.6681E+05  0.000E+00  0.000E+00  0.000E+00  3.32743E+01  1.632E-01  2.000E+01  2.000E+04 -2.646E-03
   1   17   28     3     7    1.6681E+05  6.0143E+02   1.6621E+05  0.000E+00  0.000E+00  0.000E+00  3.23852E+01  1.630E-01  2.000E+01  2.000E+04  3.007E-02
   1   18   29     3     8    1.6621E+05  4.0524E+03   1.6215E+05  0.000E+00  0.000E+00  0.000E+00  3.14950E+01  1.616E-01  2.000E+01  2.000E+04  2.026E-01
   1   18   30     3     9    1.6215E+05  4.0681E+02   1.6175E+05  0.000E+00  0.000E+00  0.000E+00  3.06047E+01  1.603E-01  2.000E+01  2.000E+04  2.034E-02



1
              HEAD IN LAYER   1 AT END OF TIME STEP   1 IN STRESS PERIOD    7
  ---------------------------------------------------------------------------

          1      2      3      4      5      6      7      8      9     10
         11     12     13     14     15     16     17     18     19     20
         21     22     23     24     25     26     27     28     29     30
 .........................................................................
   1  ****** ****** ****** ****** ****** ****** ****** ****** ****** ******
      ****** ****** ****** ****** ****** ****** ****** ****** ****** ******
      ****** ****** ****** ****** ****** ****** ****** ****** ****** ******
   2  ****** ****** ****** ****** ****** ****** ****** ****** ****** ******
      ****** ****** ****** ****** ****** ****** ****** ****** ****** ******
      ****** ****** ****** ****** ****** ****** ****** ****** ****** ******
   3  ****** ****** ****** ****** ****** ****** ****** ****** ****** ******
      ****** ****** ****** ****** ****** ****** ****** ****** ****** ******
      ****** ****** ****** ****** ****** ****** ****** ****** ****** ******
   4  ****** ****** ****** ****** ****** ****** ****** ****** ****** ******
      ****** ****** ****** ****** ****** ****** ****** ****** ****** ******
      ****** ****** ****** ****** ****** ****** ****** ****** ****** ******
   5  ****** ****** ****** ****** ****** ****** ****** ****** ****** ******
      ****** ****** ****** ****** ****** ****** ****** ****** ****** ******
      ****** ****** ****** ****** ****** ****** ****** ****** ****** ******
   6  ****** ****** ****** ****** ****** ****** ****** ****** ****** ******
      ****** ****** ****** ****** ****** ****** ****** ****** ****** ******
      ****** ****** ****** ****** ****** ****** ****** ****** ****** ******
   7  ****** ****** ****** ****** ****** ****** ****** ****** ****** ******
      ****** ****** ****** ****** ****** ****** ****** ****** ****** ******
      ****** ****** ****** ****** ****** ****** ****** ****** ****** ******
   8  ****** ****** ****** ****** ****** ****** ****** ****** ****** ******
      ****** ****** ****** ****** ****** ****** ****** ****** ****** ******
      ****** ****** ****** ****** ****** ****** ****** ****** ****** ******
   9  ****** ****** ****** ****** ****** ****** ****** ****** ****** ******
      ****** ****** ****** ****** ****** ****** ****** ****** ****** ******
      ****** ****** ****** ****** ****** ****** ****** ****** ****** ******
  10  ****** ****** ****** ****** ****** ****** ****** ****** ****** ******
      ****** ****** ****** ****** ****** ****** ****** ****** ****** ******
      ****** ****** ****** ****** ****** ****** ****** ****** ****** ******
  11  ****** ****** ****** ****** ****** ****** ****** ****** ****** ******
      ****** ****** ****** ****** ****** ****** ****** ****** ****** ******
      ****** ****** ****** ****** ****** ****** ****** ****** ****** ******
  12  ****** ****** ****** ****** ****** ****** ****** ****** ****** ******
      ****** ****** ****** ****** ****** ****** ****** ****** ****** ******
      ****** ****** ****** ****** ****** ****** ****** ****** ****** ******
  13  ****** ****** ****** ****** ****** ****** ****** ****** ****** ******
      ****** ****** ****** ****** ****** ****** ****** ****** ****** ******
      ****** ****** ****** ****** ****** ****** ****** ****** ****** ******
  14  ****** ****** ****** ****** ****** ****** ****** ****** ****** ******
      ****** ****** ****** ****** ****** ****** ****** ****** ****** ******
      ****** ****** ****** ****** ****** ****** ****** ****** ****** ******
  15  ****** ****** ****** ****** ****** ****** ****** ****** ****** ******
      ****** ****** ****** ****** ****** ****** ****** ****** ****** ******
      ****** ****** ****** ****** ****** ****** ****** ****** ****** ******
  16  ****** ****** ****** ****** ****** ****** ****** ****** ****** ******
      ****** ****** ****** ****** ****** ****** ****** ****** ****** ******
      ****** ****** ****** ****** ****** ****** ****** ****** ****** ******
  17  ****** ****** ****** ****** ****** ****** ****** ****** ****** ******
      ****** ****** ****** ****** ****** ****** ****** ****** ****** ******
      ****** ****** ****** ****** ****** ****** ****** ****** ****** ******
  18  ****** ****** ****** ****** ****** ****** ****** ****** ****** ******
      ****** ****** ****** ****** ****** ****** ****** ****** ****** ******
      ****** ****** ****** ****** ****** ****** ****** ****** ****** ******
  19  ****** ****** ****** ****** ****** ****** ****** ****** ****** ******
      ****** ****** ****** ****** ****** ****** ****** ****** ****** ******
      ****** ****** ****** ****** ****** ****** ****** ****** ****** ******
  20  ****** ****** ****** ****** ****** ****** ****** ****** ****** ******
      ****** ****** ****** ****** ****** ****** ****** ****** ****** ******
      ****** ****** ****** ****** ****** ****** ****** ****** ****** ******
  21  ****** ****** ****** ****** ****** ****** ****** ****** ****** ******
      ****** ****** ****** ****** ****** ****** ****** ****** ****** ******
      ****** ****** ****** ****** ****** ****** ****** ****** ****** ******
  22  ****** ****** ****** ****** ****** ****** ****** ****** ****** ******
      ****** ****** ****** ****** ****** ****** ****** ****** ****** ******
      ****** ****** ****** ****** ****** ****** ****** ****** ****** ******
  23  ****** ****** ****** ****** ****** ****** ****** ****** ****** ******
      ****** ****** ****** ****** ****** ****** ****** ****** ****** ******
      ****** ****** ****** ****** ****** ****** ****** ****** ****** ******
  24  ****** ****** ****** ****** ****** ****** ****** ****** ****** ******
      ****** ****** ****** ****** ****** ****** ****** ****** ****** ******
      ****** ****** ****** ****** ****** ****** ****** ****** ****** ******
  25  ****** ****** ****** ****** ****** ****** ****** ****** ****** ******
      ****** ****** ****** ****** ****** ****** ****** ****** ****** ******
      ****** ****** ****** ****** ****** ****** ****** ****** ****** ******

 HEAD WILL BE SAVED ON UNIT   51 AT END OF TIME STEP    1, STRESS PERIOD    7
1
  VOLUMETRIC BUDGET FOR ENTIRE MODEL AT END OF TIME STEP    1, STRESS PERIOD   7
  ------------------------------------------------------------------------------

     CUMULATIVE VOLUMES      L**3       RATES FOR THIS TIME STEP      L**3/T
     ------------------                 ------------------------

           IN:                                      IN:
           ---                                      ---
             STORAGE =    35076484.5985               STORAGE =       23321.0819
       CONSTANT HEAD =    17305231.1139         CONSTANT HEAD =       35721.0266
               WELLS =           0.0000                 WELLS =           0.0000
            RECHARGE =    15097200.0000              RECHARGE =           0.0000
      STREAM LEAKAGE =     9084006.1251        STREAM LEAKAGE =       19584.0268

            TOTAL IN =    76562921.8375              TOTAL IN =       78626.1352

          OUT:                                     OUT:
          ----                                     ----
             STORAGE =      687013.3830               STORAGE =           0.0000
       CONSTANT HEAD =           0.0000         CONSTANT HEAD =           0.0000
               WELLS =    30221970.9869                 WELLS =       47295.7292
            RECHARGE =           0.0000              RECHARGE =           0.0000
      STREAM LEAKAGE =    45653940.0763        STREAM LEAKAGE =       31330.4116

           TOTAL OUT =    76562924.4462             TOTAL OUT =       78626.1408

            IN - OUT =          -2.6087              IN - OUT =      -5.6059E-03

 PERCENT DISCREPANCY =          -0.00     PERCENT DISCREPANCY =          -0.00






         TIME SUMMARY AT END OF TIME STEP    1 IN STRESS PERIOD    7
                    SECONDS     MINUTES      HOURS       DAYS        YEARS
                    -----------------------------------------------------------
   TIME STEP LENGTH 7.86240E+06 1.31040E+05  2184.0      91.000     0.24914    
 STRESS PERIOD TIME 7.86240E+06 1.31040E+05  2184.0      91.000     0.24914    
         TOTAL TIME 5.52096E+07 9.20160E+05  15336.      639.00      1.7495    
1
1
                            STRESS PERIOD NO.    8, LENGTH =   91.00000    
                            -----------------------------------------------

                              NUMBER OF TIME STEPS =     1

                               MULTIPLIER FOR DELT =     1.500

                            INITIAL TIME STEP SIZE =   91.00000    

 WELL NO.  LAYER   ROW   COL   STRESS RATE         
 --------------------------------------------------
      1      1     19     29     -0.1179E+05
      2      1     10     29     -0.1333E+05
      3      1     20     21      -8354.    
      4      1      8     12     -0.1382E+05

      4 WELLS

                 RECHARGE =  1.000000E-03

 REUSING STREAM SEGMENT DATA FROM LAST STRESS PERIOD
 
 SOLVING FOR HEAD 


     6 CALLS TO PCG ROUTINE FOR TIME STEP   1 IN STRESS PERIOD    8
    22 TOTAL ITERATIONS

 OUTPUT CONTROL FOR STRESS PERIOD    8   TIME STEP    1
    SAVE BUDGET
    SAVE HEAD FOR ALL LAYERS
    PRINT HEAD FOR ALL LAYERS
 UBDSV2 SAVING "STREAMFLOW OUT  " ON UNIT  50 AT TIME STEP  1, STRESS PERIOD   8



 STREAM LISTING     PERIOD      8   STEP        1

 LAYER ROW COL. STREAM  RCH.  FLOW INTO     FLOW TO   FLOW OUT OF   OVRLND.     DIRECT     STREAM       STREAM     STREAM     STREAM   STREAMBED  STREAMBED
                SEG.NO.  NO.  STRM. RCH.    AQUIFER    STRM. RCH.    RUNOFF     PRECIP       ET          HEAD       DEPTH      WIDTH   CONDCTNC.   GRADIENT

   1   13    1     1     1    1.0000E+05 -1.4275E+03   1.0143E+05  0.000E+00  0.000E+00  0.000E+00  4.84066E+01  1.453E-01  2.000E+01  2.000E+04 -7.138E-02
   1   13    2     1     2    1.0143E+05 -2.3506E+03   1.0378E+05  0.000E+00  0.000E+00  0.000E+00  4.79310E+01  1.469E-01  2.000E+01  2.000E+04 -1.175E-01
   1   14    3     1     3    1.0378E+05 -4.2555E+02   1.0420E+05  0.000E+00  0.000E+00  0.000E+00  4.74549E+01  1.481E-01  2.000E+01  2.000E+04 -2.128E-02
   1   15    4     1     4    1.0420E+05 -4.0823E+02   1.0461E+05  0.000E+00  0.000E+00  0.000E+00  4.69780E+01  1.484E-01  2.000E+01  2.000E+04 -2.041E-02
   1   16    5     1     5    1.0461E+05 -1.5799E+03   1.0619E+05  0.000E+00  0.000E+00  0.000E+00  4.65016E+01  1.493E-01  2.000E+01  2.000E+04 -7.899E-02
   1   16    6     1     6    1.0619E+05 -9.8547E+02   1.0718E+05  0.000E+00  0.000E+00  0.000E+00  4.60254E+01  1.504E-01  2.000E+01  2.000E+04 -4.927E-02
   1   16    7     1     7    1.0718E+05 -9.5402E+02   1.0813E+05  0.000E+00  0.000E+00  0.000E+00  4.55489E+01  1.512E-01  2.000E+01  2.000E+04 -4.770E-02
   1   16    8     1     8    1.0813E+05 -9.3299E+02   1.0906E+05  0.000E+00  0.000E+00  0.000E+00  4.50724E+01  1.520E-01  2.000E+01  2.000E+04 -4.665E-02
   1   16    9     1     9    1.0906E+05 -9.0381E+02   1.0997E+05  0.000E+00  0.000E+00  0.000E+00  4.45959E+01  1.528E-01  2.000E+01  2.000E+04 -4.519E-02
   1   16   10     1    10    1.0997E+05 -8.6419E+02   1.1083E+05  0.000E+00  0.000E+00  0.000E+00  4.41194E+01  1.535E-01  2.000E+01  2.000E+04 -4.321E-02
   1   16   11     1    11    1.1083E+05 -8.2111E+02   1.1165E+05  0.000E+00  0.000E+00  0.000E+00  4.36428E+01  1.542E-01  2.000E+01  2.000E+04 -4.106E-02
   1   16   12     1    12    1.1165E+05 -1.1411E+03   1.1279E+05  0.000E+00  0.000E+00  0.000E+00  4.31664E+01  1.550E-01  2.000E+01  2.000E+04 -5.706E-02
   1   15   13     1    13    1.1279E+05 -7.0934E+02   1.1350E+05  0.000E+00  0.000E+00  0.000E+00  4.26899E+01  1.558E-01  2.000E+01  2.000E+04 -3.547E-02
   1   14   14     1    14    1.1350E+05 -6.4588E+02   1.1415E+05  0.000E+00  0.000E+00  0.000E+00  4.22132E+01  1.563E-01  2.000E+01  2.000E+04 -3.229E-02
   1   13   15     1    15    1.1415E+05 -7.0069E+02   1.1485E+05  0.000E+00  0.000E+00  0.000E+00  4.17364E+01  1.569E-01  2.000E+01  2.000E+04 -3.503E-02
   1   12   16     1    16    1.1485E+05 -1.0983E+03   1.1595E+05  0.000E+00  0.000E+00  0.000E+00  4.12599E+01  1.576E-01  2.000E+01  2.000E+04 -5.491E-02
   1   12   17     1    17    1.1595E+05 -1.0065E+03   1.1696E+05  0.000E+00  0.000E+00  0.000E+00  4.07835E+01  1.585E-01  2.000E+01  2.000E+04 -5.033E-02
   1   12   18     1    18    1.1696E+05 -1.1041E+03   1.1806E+05  0.000E+00  0.000E+00  0.000E+00  4.03071E+01  1.594E-01  2.000E+01  2.000E+04 -5.520E-02
   1   12   19     1    19    1.1806E+05 -1.6827E+03   1.1974E+05  0.000E+00  0.000E+00  0.000E+00  3.98309E+01  1.605E-01  2.000E+01  2.000E+04 -8.414E-02
   1   13   20     1    20    1.1974E+05 -1.1457E+03   1.2089E+05  0.000E+00  0.000E+00  0.000E+00  3.93548E+01  1.616E-01  2.000E+01  2.000E+04 -5.729E-02
   1   14   21     1    21    1.2089E+05 -5.4087E+02   1.2143E+05  0.000E+00  0.000E+00  0.000E+00  3.88782E+01  1.623E-01  2.000E+01  2.000E+04 -2.704E-02
   1   14   22     1    22    1.2143E+05  5.1977E+03   1.1623E+05  0.000E+00  0.000E+00  0.000E+00  3.83991E+01  1.604E-01  2.000E+01  2.000E+04  2.599E-01
   1    9   30     2     1    5.0000E+04  1.9844E+03   4.8016E+04  0.000E+00  0.000E+00  0.000E+00  4.02395E+01  1.145E-01  2.000E+01  2.000E+04  9.922E-02
   1    9   29     2     2    4.8016E+04  4.0189E+03   4.3997E+04  0.000E+00  0.000E+00  0.000E+00  3.99852E+01  1.102E-01  2.000E+01  2.000E+04  2.009E-01
   1    9   28     2     3    4.3997E+04  8.2403E+02   4.3173E+04  0.000E+00  0.000E+00  0.000E+00  3.97317E+01  1.067E-01  2.000E+01  2.000E+04  4.120E-02
   1    9   27     2     4    4.3173E+04 -1.5055E+03   4.4678E+04  0.000E+00  0.000E+00  0.000E+00  3.94822E+01  1.072E-01  2.000E+01  2.000E+04 -7.527E-02
   1   10   26     2     5    4.4678E+04 -4.1992E+02   4.5098E+04  0.000E+00  0.000E+00  0.000E+00  3.92336E+01  1.086E-01  2.000E+01  2.000E+04 -2.100E-02
   1   11   25     2     6    4.5098E+04 -7.4670E+02   4.5845E+04  0.000E+00  0.000E+00  0.000E+00  3.89844E+01  1.094E-01  2.000E+01  2.000E+04 -3.734E-02
   1   12   24     2     7    4.5845E+04 -1.1658E+03   4.7011E+04  0.000E+00  0.000E+00  0.000E+00  3.87358E+01  1.108E-01  2.000E+01  2.000E+04 -5.829E-02
   1   13   23     2     8    4.7011E+04 -2.2773E+02   4.7238E+04  0.000E+00  0.000E+00  0.000E+00  3.84868E+01  1.118E-01  2.000E+01  2.000E+04 -1.139E-02
   1   14   22     2     9    4.7238E+04  1.9285E+03   4.5310E+04  0.000E+00  0.000E+00  0.000E+00  3.82356E+01  1.106E-01  2.000E+01  2.000E+04  9.643E-02
   1   14   22     3     1    1.6154E+05 -8.4216E+03   1.6996E+05  0.000E+00  0.000E+00  0.000E+00  3.77181E+01  1.625E-01  2.000E+01  2.000E+04 -4.211E-01
   1   15   23     3     2    1.6996E+05 -2.8888E+02   1.7025E+05  0.000E+00  0.000E+00  0.000E+00  3.68318E+01  1.651E-01  2.000E+01  2.000E+04 -1.444E-02
   1   15   24     3     3    1.7025E+05 -1.8091E+02   1.7043E+05  0.000E+00  0.000E+00  0.000E+00  3.59430E+01  1.652E-01  2.000E+01  2.000E+04 -9.046E-03
   1   15   25     3     4    1.7043E+05 -1.8352E+02   1.7062E+05  0.000E+00  0.000E+00  0.000E+00  3.50542E+01  1.653E-01  2.000E+01  2.000E+04 -9.176E-03
   1   15   26     3     5    1.7062E+05 -2.0225E+02   1.7082E+05  0.000E+00  0.000E+00  0.000E+00  3.41654E+01  1.654E-01  2.000E+01  2.000E+04 -1.011E-02
   1   16   27     3     6    1.7082E+05 -1.3380E+02   1.7095E+05  0.000E+00  0.000E+00  0.000E+00  3.32767E+01  1.655E-01  2.000E+01  2.000E+04 -6.690E-03
   1   17   28     3     7    1.7095E+05  4.0093E+02   1.7055E+05  0.000E+00  0.000E+00  0.000E+00  3.23877E+01  1.655E-01  2.000E+01  2.000E+04  2.005E-02
   1   18   29     3     8    1.7055E+05  3.8938E+03   1.6666E+05  0.000E+00  0.000E+00  0.000E+00  3.14976E+01  1.642E-01  2.000E+01  2.000E+04  1.947E-01
   1   18   30     3     9    1.6666E+05  2.6435E+02   1.6639E+05  0.000E+00  0.000E+00  0.000E+00  3.06074E+01  1.630E-01  2.000E+01  2.000E+04  1.322E-02



1
              HEAD IN LAYER   1 AT END OF TIME STEP   1 IN STRESS PERIOD    8
  ---------------------------------------------------------------------------

          1      2      3      4      5      6      7      8      9     10
         11     12     13     14     15     16     17     18     19     20
         21     22     23     24     25     26     27     28     29     30
 .........................................................................
   1  ****** ****** ****** ****** ****** ****** ****** ****** ****** ******
      ****** ****** ****** ****** ****** ****** ****** ****** ****** ******
      ****** ****** ****** ****** ****** ****** ****** ****** ****** ******
   2  ****** ****** ****** ****** ****** ****** ****** ****** ****** ******
      ****** ****** ****** ****** ****** ****** ****** ****** ****** ******
      ****** ****** ****** ****** ****** ****** ****** ****** ****** ******
   3  ****** ****** ****** ****** ****** ****** ****** ****** ****** ******
      ****** ****** ****** ****** ****** ****** ****** ****** ****** ******
      ****** ****** ****** ****** ****** ****** ****** ****** ****** ******
   4  ****** ****** ****** ****** ****** ****** ****** ****** ****** ******
      ****** ****** ****** ****** ****** ****** ****** ****** ****** ******
      ****** ****** ****** ****** ****** ****** ****** ****** ****** ******
   5  ****** ****** ****** ****** ****** ****** ****** ****** ****** ******
      ****** ****** ****** ****** ****** ****** ****** ****** ****** ******
      ****** ****** ****** ****** ****** ****** ****** ****** ****** ******
   6  ****** ****** ****** ****** ****** ****** ****** ****** ****** ******
      ****** ****** ****** ****** ****** ****** ****** ****** ****** ******
      ****** ****** ****** ****** ****** ****** ****** ****** ****** ******
   7  ****** ****** ****** ****** ****** ****** ****** ****** ****** ******
      ****** ****** ****** ****** ****** ****** ****** ****** ****** ******
      ****** ****** ****** ****** ****** ****** ****** ****** ****** ******
   8  ****** ****** ****** ****** ****** ****** ****** ****** ****** ******
      ****** ****** ****** ****** ****** ****** ****** ****** ****** ******
      ****** ****** ****** ****** ****** ****** ****** ****** ****** ******
   9  ****** ****** ****** ****** ****** ****** ****** ****** ****** ******
      ****** ****** ****** ****** ****** ****** ****** ****** ****** ******
      ****** ****** ****** ****** ****** ****** ****** ****** ****** ******
  10  ****** ****** ****** ****** ****** ****** ****** ****** ****** ******
      ****** ****** ****** ****** ****** ****** ****** ****** ****** ******
      ****** ****** ****** ****** ****** ****** ****** ****** ****** ******
  11  ****** ****** ****** ****** ****** ****** ****** ****** ****** ******
      ****** ****** ****** ****** ****** ****** ****** ****** ****** ******
      ****** ****** ****** ****** ****** ****** ****** ****** ****** ******
  12  ****** ****** ****** ****** ****** ****** ****** ****** ****** ******
      ****** ****** ****** ****** ****** ****** ****** ****** ****** ******
      ****** ****** ****** ****** ****** ****** ****** ****** ****** ******
  13  ****** ****** ****** ****** ****** ****** ****** ****** ****** ******
      ****** ****** ****** ****** ****** ****** ****** ****** ****** ******
      ****** ****** ****** ****** ****** ****** ****** ****** ****** ******
  14  ****** ****** ****** ****** ****** ****** ****** ****** ****** ******
      ****** ****** ****** ****** ****** ****** ****** ****** ****** ******
      ****** ****** ****** ****** ****** ****** ****** ****** ****** ******
  15  ****** ****** ****** ****** ****** ****** ****** ****** ****** ******
      ****** ****** ****** ****** ****** ****** ****** ****** ****** ******
      ****** ****** ****** ****** ****** ****** ****** ****** ****** ******
  16  ****** ****** ****** ****** ****** ****** ****** ****** ****** ******
      ****** ****** ****** ****** ****** ****** ****** ****** ****** ******
      ****** ****** ****** ****** ****** ****** ****** ****** ****** ******
  17  ****** ****** ****** ****** ****** ****** ****** ****** ****** ******
      ****** ****** ****** ****** ****** ****** ****** ****** ****** ******
      ****** ****** ****** ****** ****** ****** ****** ****** ****** ******
  18  ****** ****** ****** ****** ****** ****** ****** ****** ****** ******
      ****** ****** ****** ****** ****** ****** ****** ****** ****** ******
      ****** ****** ****** ****** ****** ****** ****** ****** ****** ******
  19  ****** ****** ****** ****** ****** ****** ****** ****** ****** ******
      ****** ****** ****** ****** ****** ****** ****** ****** ****** ******
      ****** ****** ****** ****** ****** ****** ****** ****** ****** ******
  20  ****** ****** ****** ****** ****** ****** ****** ****** ****** ******
      ****** ****** ****** ****** ****** ****** ****** ****** ****** ******
      ****** ****** ****** ****** ****** ****** ****** ****** ****** ******
  21  ****** ****** ****** ****** ****** ****** ****** ****** ****** ******
      ****** ****** ****** ****** ****** ****** ****** ****** ****** ******
      ****** ****** ****** ****** ****** ****** ****** ****** ****** ******
  22  ****** ****** ****** ****** ****** ****** ****** ****** ****** ******
      ****** ****** ****** ****** ****** ****** ****** ****** ****** ******
      ****** ****** ****** ****** ****** ****** ****** ****** ****** ******
  23  ****** ****** ****** ****** ****** ****** ****** ****** ****** ******
      ****** ****** ****** ****** ****** ****** ****** ****** ****** ******
      ****** ****** ****** ****** ****** ****** ****** ****** ****** ******
  24  ****** ****** ****** ****** ****** ****** ****** ****** ****** ******
      ****** ****** ****** ****** ****** ****** ****** ****** ****** ******
      ****** ****** ****** ****** ****** ****** ****** ****** ****** ******
  25  ****** ****** ****** ****** ****** ****** ****** ****** ****** ******
      ****** ****** ****** ****** ****** ****** ****** ****** ****** ******
      ****** ****** ****** ****** ****** ****** ****** ****** ****** ******

 HEAD WILL BE SAVED ON UNIT   51 AT END OF TIME STEP    1, STRESS PERIOD    8
1
  VOLUMETRIC BUDGET FOR ENTIRE MODEL AT END OF TIME STEP    1, STRESS PERIOD   8
  ------------------------------------------------------------------------------

     CUMULATIVE VOLUMES      L**3       RATES FOR THIS TIME STEP      L**3/T
     ------------------                 ------------------------

           IN:                                      IN:
           ---                                      ---
             STORAGE =    35259531.5701               STORAGE =        2011.5052
       CONSTANT HEAD =    20536310.8739         CONSTANT HEAD =       35506.3710
               WELLS =           0.0000                 WELLS =           0.0000
            RECHARGE =    17608800.0000              RECHARGE =       27600.0000
      STREAM LEAKAGE =    10768656.6632        STREAM LEAKAGE =       18512.6433

            TOTAL IN =    84173299.1072              TOTAL IN =       83630.5194

          OUT:                                     OUT:
          ----                                     ----
             STORAGE =      817100.7001               STORAGE =        1429.5310
       CONSTANT HEAD =           0.0000         CONSTANT HEAD =           0.0000
               WELLS =    34525882.3481                 WELLS =       47295.7292
            RECHARGE =           0.0000              RECHARGE =           0.0000
      STREAM LEAKAGE =    48830317.9876        STREAM LEAKAGE =       34905.2518

           TOTAL OUT =    84173301.0358             TOTAL OUT =       83630.5120

            IN - OUT =          -1.9286              IN - OUT =       7.4734E-03

 PERCENT DISCREPANCY =          -0.00     PERCENT DISCREPANCY =           0.00






         TIME SUMMARY AT END OF TIME STEP    1 IN STRESS PERIOD    8
                    SECONDS     MINUTES      HOURS       DAYS        YEARS
                    -----------------------------------------------------------
   TIME STEP LENGTH 7.86240E+06 1.31040E+05  2184.0      91.000     0.24914    
 STRESS PERIOD TIME 7.86240E+06 1.31040E+05  2184.0      91.000     0.24914    
         TOTAL TIME 6.30720E+07 1.05120E+06  17520.      730.00      1.9986    
1
1
                            STRESS PERIOD NO.    9, LENGTH =   92.00000    
                            -----------------------------------------------

                              NUMBER OF TIME STEPS =     1

                               MULTIPLIER FOR DELT =     1.500

                            INITIAL TIME STEP SIZE =   92.00000    

 WELL NO.  LAYER   ROW   COL   STRESS RATE         
 --------------------------------------------------
      1      1     19     29     -0.1179E+05
      2      1     10     29     -0.1333E+05
      3      1     20     21      -8354.    
      4      1      8     12     -0.1382E+05

      4 WELLS

                 RECHARGE =  5.000000E-04

 REUSING STREAM SEGMENT DATA FROM LAST STRESS PERIOD
 
 SOLVING FOR HEAD 


     6 CALLS TO PCG ROUTINE FOR TIME STEP   1 IN STRESS PERIOD    9
    23 TOTAL ITERATIONS

 OUTPUT CONTROL FOR STRESS PERIOD    9   TIME STEP    1
    SAVE BUDGET
    SAVE HEAD FOR ALL LAYERS
    PRINT HEAD FOR ALL LAYERS
 UBDSV2 SAVING "STREAMFLOW OUT  " ON UNIT  50 AT TIME STEP  1, STRESS PERIOD   9



 STREAM LISTING     PERIOD      9   STEP        1

 LAYER ROW COL. STREAM  RCH.  FLOW INTO     FLOW TO   FLOW OUT OF   OVRLND.     DIRECT     STREAM       STREAM     STREAM     STREAM   STREAMBED  STREAMBED
                SEG.NO.  NO.  STRM. RCH.    AQUIFER    STRM. RCH.    RUNOFF     PRECIP       ET          HEAD       DEPTH      WIDTH   CONDCTNC.   GRADIENT

   1   13    1     1     1    1.0000E+05 -1.1987E+03   1.0120E+05  0.000E+00  0.000E+00  0.000E+00  4.84065E+01  1.452E-01  2.000E+01  2.000E+04 -5.994E-02
   1   13    2     1     2    1.0120E+05 -2.0909E+03   1.0329E+05  0.000E+00  0.000E+00  0.000E+00  4.79307E+01  1.466E-01  2.000E+01  2.000E+04 -1.045E-01
   1   14    3     1     3    1.0329E+05 -3.5212E+02   1.0364E+05  0.000E+00  0.000E+00  0.000E+00  4.74545E+01  1.476E-01  2.000E+01  2.000E+04 -1.761E-02
   1   15    4     1     4    1.0364E+05 -3.3426E+02   1.0398E+05  0.000E+00  0.000E+00  0.000E+00  4.69775E+01  1.479E-01  2.000E+01  2.000E+04 -1.671E-02
   1   16    5     1     5    1.0398E+05 -1.3855E+03   1.0536E+05  0.000E+00  0.000E+00  0.000E+00  4.65009E+01  1.487E-01  2.000E+01  2.000E+04 -6.927E-02
   1   16    6     1     6    1.0536E+05 -8.6327E+02   1.0622E+05  0.000E+00  0.000E+00  0.000E+00  4.60246E+01  1.496E-01  2.000E+01  2.000E+04 -4.316E-02
   1   16    7     1     7    1.0622E+05 -8.3531E+02   1.0706E+05  0.000E+00  0.000E+00  0.000E+00  4.55481E+01  1.503E-01  2.000E+01  2.000E+04 -4.177E-02
   1   16    8     1     8    1.0706E+05 -8.1578E+02   1.0788E+05  0.000E+00  0.000E+00  0.000E+00  4.50715E+01  1.510E-01  2.000E+01  2.000E+04 -4.079E-02
   1   16    9     1     9    1.0788E+05 -7.8837E+02   1.0866E+05  0.000E+00  0.000E+00  0.000E+00  4.45949E+01  1.517E-01  2.000E+01  2.000E+04 -3.942E-02
   1   16   10     1    10    1.0866E+05 -7.5108E+02   1.0942E+05  0.000E+00  0.000E+00  0.000E+00  4.41183E+01  1.524E-01  2.000E+01  2.000E+04 -3.755E-02
   1   16   11     1    11    1.0942E+05 -7.0936E+02   1.1012E+05  0.000E+00  0.000E+00  0.000E+00  4.36416E+01  1.530E-01  2.000E+01  2.000E+04 -3.547E-02
   1   16   12     1    12    1.1012E+05 -9.4894E+02   1.1107E+05  0.000E+00  0.000E+00  0.000E+00  4.31650E+01  1.537E-01  2.000E+01  2.000E+04 -4.745E-02
   1   15   13     1    13    1.1107E+05 -4.9305E+02   1.1157E+05  0.000E+00  0.000E+00  0.000E+00  4.26884E+01  1.543E-01  2.000E+01  2.000E+04 -2.465E-02
   1   14   14     1    14    1.1157E+05 -4.1422E+02   1.1198E+05  0.000E+00  0.000E+00  0.000E+00  4.22115E+01  1.546E-01  2.000E+01  2.000E+04 -2.071E-02
   1   13   15     1    15    1.1198E+05 -4.6174E+02   1.1244E+05  0.000E+00  0.000E+00  0.000E+00  4.17346E+01  1.550E-01  2.000E+01  2.000E+04 -2.309E-02
   1   12   16     1    16    1.1244E+05 -8.4860E+02   1.1329E+05  0.000E+00  0.000E+00  0.000E+00  4.12578E+01  1.555E-01  2.000E+01  2.000E+04 -4.243E-02
   1   12   17     1    17    1.1329E+05 -8.3725E+02   1.1413E+05  0.000E+00  0.000E+00  0.000E+00  4.07812E+01  1.562E-01  2.000E+01  2.000E+04 -4.186E-02
   1   12   18     1    18    1.1413E+05 -9.4335E+02   1.1507E+05  0.000E+00  0.000E+00  0.000E+00  4.03047E+01  1.570E-01  2.000E+01  2.000E+04 -4.717E-02
   1   12   19     1    19    1.1507E+05 -1.4897E+03   1.1656E+05  0.000E+00  0.000E+00  0.000E+00  3.98284E+01  1.580E-01  2.000E+01  2.000E+04 -7.449E-02
   1   13   20     1    20    1.1656E+05 -9.6868E+02   1.1753E+05  0.000E+00  0.000E+00  0.000E+00  3.93522E+01  1.590E-01  2.000E+01  2.000E+04 -4.843E-02
   1   14   21     1    21    1.1753E+05 -3.6612E+02   1.1790E+05  0.000E+00  0.000E+00  0.000E+00  3.88754E+01  1.595E-01  2.000E+01  2.000E+04 -1.831E-02
   1   14   22     1    22    1.1790E+05  5.2371E+03   1.1266E+05  0.000E+00  0.000E+00  0.000E+00  3.83962E+01  1.575E-01  2.000E+01  2.000E+04  2.619E-01
   1    9   30     2     1    5.0000E+04  2.1088E+03   4.7891E+04  0.000E+00  0.000E+00  0.000E+00  4.02394E+01  1.144E-01  2.000E+01  2.000E+04  1.054E-01
   1    9   29     2     2    4.7891E+04  4.1436E+03   4.3748E+04  0.000E+00  0.000E+00  0.000E+00  3.99850E+01  1.100E-01  2.000E+01  2.000E+04  2.072E-01
   1    9   28     2     3    4.3748E+04  9.5087E+02   4.2797E+04  0.000E+00  0.000E+00  0.000E+00  3.97312E+01  1.062E-01  2.000E+01  2.000E+04  4.754E-02
   1    9   27     2     4    4.2797E+04 -1.3259E+03   4.4123E+04  0.000E+00  0.000E+00  0.000E+00  3.94815E+01  1.065E-01  2.000E+01  2.000E+04 -6.629E-02
   1   10   26     2     5    4.4123E+04 -2.4354E+02   4.4366E+04  0.000E+00  0.000E+00  0.000E+00  3.92327E+01  1.077E-01  2.000E+01  2.000E+04 -1.218E-02
   1   11   25     2     6    4.4366E+04 -5.7788E+02   4.4944E+04  0.000E+00  0.000E+00  0.000E+00  3.89833E+01  1.083E-01  2.000E+01  2.000E+04 -2.889E-02
   1   12   24     2     7    4.4944E+04 -1.0103E+03   4.5954E+04  0.000E+00  0.000E+00  0.000E+00  3.87344E+01  1.094E-01  2.000E+01  2.000E+04 -5.052E-02
   1   13   23     2     8    4.5954E+04 -1.8020E+02   4.6135E+04  0.000E+00  0.000E+00  0.000E+00  3.84853E+01  1.103E-01  2.000E+01  2.000E+04 -9.010E-03
   1   14   22     2     9    4.6135E+04  1.9931E+03   4.4141E+04  0.000E+00  0.000E+00  0.000E+00  3.82340E+01  1.090E-01  2.000E+01  2.000E+04  9.965E-02
   1   14   22     3     1    1.5680E+05 -8.3806E+03   1.6518E+05  0.000E+00  0.000E+00  0.000E+00  3.77153E+01  1.597E-01  2.000E+01  2.000E+04 -4.190E-01
   1   15   23     3     2    1.6518E+05 -2.3567E+02   1.6542E+05  0.000E+00  0.000E+00  0.000E+00  3.68289E+01  1.623E-01  2.000E+01  2.000E+04 -1.178E-02
   1   15   24     3     3    1.6542E+05 -1.3751E+02   1.6555E+05  0.000E+00  0.000E+00  0.000E+00  3.59402E+01  1.624E-01  2.000E+01  2.000E+04 -6.875E-03
   1   15   25     3     4    1.6555E+05 -1.3989E+02   1.6569E+05  0.000E+00  0.000E+00  0.000E+00  3.50514E+01  1.625E-01  2.000E+01  2.000E+04 -6.995E-03
   1   15   26     3     5    1.6569E+05 -1.5442E+02   1.6585E+05  0.000E+00  0.000E+00  0.000E+00  3.41626E+01  1.626E-01  2.000E+01  2.000E+04 -7.721E-03
   1   16   27     3     6    1.6585E+05 -7.7357E+01   1.6593E+05  0.000E+00  0.000E+00  0.000E+00  3.32737E+01  1.626E-01  2.000E+01  2.000E+04 -3.868E-03
   1   17   28     3     7    1.6593E+05  5.5600E+02   1.6537E+05  0.000E+00  0.000E+00  0.000E+00  3.23847E+01  1.625E-01  2.000E+01  2.000E+04  2.780E-02
   1   18   29     3     8    1.6537E+05  4.0730E+03   1.6130E+05  0.000E+00  0.000E+00  0.000E+00  3.14945E+01  1.611E-01  2.000E+01  2.000E+04  2.036E-01
   1   18   30     3     9    1.6130E+05  3.9851E+02   1.6090E+05  0.000E+00  0.000E+00  0.000E+00  3.06042E+01  1.598E-01  2.000E+01  2.000E+04  1.993E-02



1
              HEAD IN LAYER   1 AT END OF TIME STEP   1 IN STRESS PERIOD    9
  ---------------------------------------------------------------------------

          1      2      3      4      5      6      7      8      9     10
         11     12     13     14     15     16     17     18     19     20
         21     22     23     24     25     26     27     28     29     30
 .........................................................................
   1  ****** ****** ****** ****** ****** ****** ****** ****** ****** ******
      ****** ****** ****** ****** ****** ****** ****** ****** ****** ******
      ****** ****** ****** ****** ****** ****** ****** ****** ****** ******
   2  ****** ****** ****** ****** ****** ****** ****** ****** ****** ******
      ****** ****** ****** ****** ****** ****** ****** ****** ****** ******
      ****** ****** ****** ****** ****** ****** ****** ****** ****** ******
   3  ****** ****** ****** ****** ****** ****** ****** ****** ****** ******
      ****** ****** ****** ****** ****** ****** ****** ****** ****** ******
      ****** ****** ****** ****** ****** ****** ****** ****** ****** ******
   4  ****** ****** ****** ****** ****** ****** ****** ****** ****** ******
      ****** ****** ****** ****** ****** ****** ****** ****** ****** ******
      ****** ****** ****** ****** ****** ****** ****** ****** ****** ******
   5  ****** ****** ****** ****** ****** ****** ****** ****** ****** ******
      ****** ****** ****** ****** ****** ****** ****** ****** ****** ******
      ****** ****** ****** ****** ****** ****** ****** ****** ****** ******
   6  ****** ****** ****** ****** ****** ****** ****** ****** ****** ******
      ****** ****** ****** ****** ****** ****** ****** ****** ****** ******
      ****** ****** ****** ****** ****** ****** ****** ****** ****** ******
   7  ****** ****** ****** ****** ****** ****** ****** ****** ****** ******
      ****** ****** ****** ****** ****** ****** ****** ****** ****** ******
      ****** ****** ****** ****** ****** ****** ****** ****** ****** ******
   8  ****** ****** ****** ****** ****** ****** ****** ****** ****** ******
      ****** ****** ****** ****** ****** ****** ****** ****** ****** ******
      ****** ****** ****** ****** ****** ****** ****** ****** ****** ******
   9  ****** ****** ****** ****** ****** ****** ****** ****** ****** ******
      ****** ****** ****** ****** ****** ****** ****** ****** ****** ******
      ****** ****** ****** ****** ****** ****** ****** ****** ****** ******
  10  ****** ****** ****** ****** ****** ****** ****** ****** ****** ******
      ****** ****** ****** ****** ****** ****** ****** ****** ****** ******
      ****** ****** ****** ****** ****** ****** ****** ****** ****** ******
  11  ****** ****** ****** ****** ****** ****** ****** ****** ****** ******
      ****** ****** ****** ****** ****** ****** ****** ****** ****** ******
      ****** ****** ****** ****** ****** ****** ****** ****** ****** ******
  12  ****** ****** ****** ****** ****** ****** ****** ****** ****** ******
      ****** ****** ****** ****** ****** ****** ****** ****** ****** ******
      ****** ****** ****** ****** ****** ****** ****** ****** ****** ******
  13  ****** ****** ****** ****** ****** ****** ****** ****** ****** ******
      ****** ****** ****** ****** ****** ****** ****** ****** ****** ******
      ****** ****** ****** ****** ****** ****** ****** ****** ****** ******
  14  ****** ****** ****** ****** ****** ****** ****** ****** ****** ******
      ****** ****** ****** ****** ****** ****** ****** ****** ****** ******
      ****** ****** ****** ****** ****** ****** ****** ****** ****** ******
  15  ****** ****** ****** ****** ****** ****** ****** ****** ****** ******
      ****** ****** ****** ****** ****** ****** ****** ****** ****** ******
      ****** ****** ****** ****** ****** ****** ****** ****** ****** ******
  16  ****** ****** ****** ****** ****** ****** ****** ****** ****** ******
      ****** ****** ****** ****** ****** ****** ****** ****** ****** ******
      ****** ****** ****** ****** ****** ****** ****** ****** ****** ******
  17  ****** ****** ****** ****** ****** ****** ****** ****** ****** ******
      ****** ****** ****** ****** ****** ****** ****** ****** ****** ******
      ****** ****** ****** ****** ****** ****** ****** ****** ****** ******
  18  ****** ****** ****** ****** ****** ****** ****** ****** ****** ******
      ****** ****** ****** ****** ****** ****** ****** ****** ****** ******
      ****** ****** ****** ****** ****** ****** ****** ****** ****** ******
  19  ****** ****** ****** ****** ****** ****** ****** ****** ****** ******
      ****** ****** ****** ****** ****** ****** ****** ****** ****** ******
      ****** ****** ****** ****** ****** ****** ****** ****** ****** ******
  20  ****** ****** ****** ****** ****** ****** ****** ****** ****** ******
      ****** ****** ****** ****** ****** ****** ****** ****** ****** ******
      ****** ****** ****** ****** ****** ****** ****** ****** ****** ******
  21  ****** ****** ****** ****** ****** ****** ****** ****** ****** ******
      ****** ****** ****** ****** ****** ****** ****** ****** ****** ******
      ****** ****** ****** ****** ****** ****** ****** ****** ****** ******
  22  ****** ****** ****** ****** ****** ****** ****** ****** ****** ******
      ****** ****** ****** ****** ****** ****** ****** ****** ****** ******
      ****** ****** ****** ****** ****** ****** ****** ****** ****** ******
  23  ****** ****** ****** ****** ****** ****** ****** ****** ****** ******
      ****** ****** ****** ****** ****** ****** ****** ****** ****** ******
      ****** ****** ****** ****** ****** ****** ****** ****** ****** ******
  24  ****** ****** ****** ****** ****** ****** ****** ****** ****** ******
      ****** ****** ****** ****** ****** ****** ****** ****** ****** ******
      ****** ****** ****** ****** ****** ****** ****** ****** ****** ******
  25  ****** ****** ****** ****** ****** ****** ****** ****** ****** ******
      ****** ****** ****** ****** ****** ****** ****** ****** ****** ******
      ****** ****** ****** ****** ****** ****** ****** ****** ****** ******

 HEAD WILL BE SAVED ON UNIT   51 AT END OF TIME STEP    1, STRESS PERIOD    9
1
  VOLUMETRIC BUDGET FOR ENTIRE MODEL AT END OF TIME STEP    1, STRESS PERIOD   9
  ------------------------------------------------------------------------------

     CUMULATIVE VOLUMES      L**3       RATES FOR THIS TIME STEP      L**3/T
     ------------------                 ------------------------

           IN:                                      IN:
           ---                                      ---
             STORAGE =    35964842.1385               STORAGE =        7666.4192
       CONSTANT HEAD =    23915280.7299         CONSTANT HEAD =       36727.9332
               WELLS =           0.0000                 WELLS =           0.0000
            RECHARGE =    18878400.0000              RECHARGE =       13800.0000
      STREAM LEAKAGE =    12559060.7878        STREAM LEAKAGE =       19460.9144

            TOTAL IN =    91317583.6562              TOTAL IN =       77655.2668

          OUT:                                     OUT:
          ----                                     ----
             STORAGE =      817100.7001               STORAGE =           0.0000
       CONSTANT HEAD =           0.0000         CONSTANT HEAD =           0.0000
               WELLS =    38877089.4385                 WELLS =       47295.7292
            RECHARGE =           0.0000              RECHARGE =           0.0000
      STREAM LEAKAGE =    51623395.5217        STREAM LEAKAGE =       30359.5384

           TOTAL OUT =    91317585.6604             TOTAL OUT =       77655.2677

            IN - OUT =          -2.0042              IN - OUT =      -8.2181E-04

 PERCENT DISCREPANCY =          -0.00     PERCENT DISCREPANCY =          -0.00






         TIME SUMMARY AT END OF TIME STEP    1 IN STRESS PERIOD    9
                    SECONDS     MINUTES      HOURS       DAYS        YEARS
                    -----------------------------------------------------------
   TIME STEP LENGTH 7.94880E+06 1.32480E+05  2208.0      92.000     0.25188    
 STRESS PERIOD TIME 7.94880E+06 1.32480E+05  2208.0      92.000     0.25188    
         TOTAL TIME 7.10208E+07 1.18368E+06  19728.      822.00      2.2505    
1
1
                            STRESS PERIOD NO.   10, LENGTH =   91.00000    
                            -----------------------------------------------

                              NUMBER OF TIME STEPS =     1

                               MULTIPLIER FOR DELT =     1.500

                            INITIAL TIME STEP SIZE =   91.00000    

 WELL NO.  LAYER   ROW   COL   STRESS RATE         
 --------------------------------------------------
      1      1     19     29     -0.1179E+05
      2      1     10     29     -0.1333E+05
      3      1     20     21      -8354.    
      4      1      8     12     -0.1382E+05

      4 WELLS

                 RECHARGE =  2.000000E-03

 REUSING STREAM SEGMENT DATA FROM LAST STRESS PERIOD
 
 SOLVING FOR HEAD 


     7 CALLS TO PCG ROUTINE FOR TIME STEP   1 IN STRESS PERIOD   10
    26 TOTAL ITERATIONS

 OUTPUT CONTROL FOR STRESS PERIOD   10   TIME STEP    1
    SAVE BUDGET
    SAVE HEAD FOR ALL LAYERS
    PRINT HEAD FOR ALL LAYERS
 UBDSV2 SAVING "STREAMFLOW OUT  " ON UNIT  50 AT TIME STEP  1, STRESS PERIOD  10



 STREAM LISTING     PERIOD     10   STEP        1

 LAYER ROW COL. STREAM  RCH.  FLOW INTO     FLOW TO   FLOW OUT OF   OVRLND.     DIRECT     STREAM       STREAM     STREAM     STREAM   STREAMBED  STREAMBED
                SEG.NO.  NO.  STRM. RCH.    AQUIFER    STRM. RCH.    RUNOFF     PRECIP       ET          HEAD       DEPTH      WIDTH   CONDCTNC.   GRADIENT

   1   13    1     1     1    1.0000E+05 -1.6409E+03   1.0164E+05  0.000E+00  0.000E+00  0.000E+00  4.84067E+01  1.454E-01  2.000E+01  2.000E+04 -8.204E-02
   1   13    2     1     2    1.0164E+05 -2.5801E+03   1.0422E+05  0.000E+00  0.000E+00  0.000E+00  4.79313E+01  1.472E-01  2.000E+01  2.000E+04 -1.290E-01
   1   14    3     1     3    1.0422E+05 -5.3673E+02   1.0476E+05  0.000E+00  0.000E+00  0.000E+00  4.74553E+01  1.485E-01  2.000E+01  2.000E+04 -2.684E-02
   1   15    4     1     4    1.0476E+05 -5.3212E+02   1.0529E+05  0.000E+00  0.000E+00  0.000E+00  4.69785E+01  1.490E-01  2.000E+01  2.000E+04 -2.661E-02
   1   16    5     1     5    1.0529E+05 -2.0030E+03   1.0729E+05  0.000E+00  0.000E+00  0.000E+00  4.65023E+01  1.500E-01  2.000E+01  2.000E+04 -1.002E-01
   1   16    6     1     6    1.0729E+05 -1.2239E+03   1.0852E+05  0.000E+00  0.000E+00  0.000E+00  4.60264E+01  1.514E-01  2.000E+01  2.000E+04 -6.120E-02
   1   16    7     1     7    1.0852E+05 -1.1780E+03   1.0969E+05  0.000E+00  0.000E+00  0.000E+00  4.55501E+01  1.524E-01  2.000E+01  2.000E+04 -5.890E-02
   1   16    8     1     8    1.0969E+05 -1.1530E+03   1.1085E+05  0.000E+00  0.000E+00  0.000E+00  4.50738E+01  1.534E-01  2.000E+01  2.000E+04 -5.765E-02
   1   16    9     1     9    1.1085E+05 -1.1242E+03   1.1197E+05  0.000E+00  0.000E+00  0.000E+00  4.45975E+01  1.543E-01  2.000E+01  2.000E+04 -5.621E-02
   1   16   10     1    10    1.1197E+05 -1.0873E+03   1.1306E+05  0.000E+00  0.000E+00  0.000E+00  4.41212E+01  1.553E-01  2.000E+01  2.000E+04 -5.437E-02
   1   16   11     1    11    1.1306E+05 -1.0494E+03   1.1411E+05  0.000E+00  0.000E+00  0.000E+00  4.36448E+01  1.561E-01  2.000E+01  2.000E+04 -5.247E-02
   1   16   12     1    12    1.1411E+05 -1.5159E+03   1.1562E+05  0.000E+00  0.000E+00  0.000E+00  4.31686E+01  1.572E-01  2.000E+01  2.000E+04 -7.580E-02
   1   15   13     1    13    1.1562E+05 -1.0750E+03   1.1670E+05  0.000E+00  0.000E+00  0.000E+00  4.26923E+01  1.583E-01  2.000E+01  2.000E+04 -5.375E-02
   1   14   14     1    14    1.1670E+05 -1.0020E+03   1.1770E+05  0.000E+00  0.000E+00  0.000E+00  4.22159E+01  1.591E-01  2.000E+01  2.000E+04 -5.010E-02
   1   13   15     1    15    1.1770E+05 -1.0385E+03   1.1874E+05  0.000E+00  0.000E+00  0.000E+00  4.17395E+01  1.599E-01  2.000E+01  2.000E+04 -5.193E-02
   1   12   16     1    16    1.1874E+05 -1.4021E+03   1.2014E+05  0.000E+00  0.000E+00  0.000E+00  4.12632E+01  1.609E-01  2.000E+01  2.000E+04 -7.011E-02
   1   12   17     1    17    1.2014E+05 -1.2585E+03   1.2140E+05  0.000E+00  0.000E+00  0.000E+00  4.07870E+01  1.620E-01  2.000E+01  2.000E+04 -6.292E-02
   1   12   18     1    18    1.2140E+05 -1.3612E+03   1.2276E+05  0.000E+00  0.000E+00  0.000E+00  4.03108E+01  1.630E-01  2.000E+01  2.000E+04 -6.806E-02
   1   12   19     1    19    1.2276E+05 -2.0043E+03   1.2477E+05  0.000E+00  0.000E+00  0.000E+00  3.98348E+01  1.644E-01  2.000E+01  2.000E+04 -1.002E-01
   1   13   20     1    20    1.2477E+05 -1.4878E+03   1.2625E+05  0.000E+00  0.000E+00  0.000E+00  3.93590E+01  1.658E-01  2.000E+01  2.000E+04 -7.439E-02
   1   14   21     1    21    1.2625E+05 -8.8945E+02   1.2714E+05  0.000E+00  0.000E+00  0.000E+00  3.88826E+01  1.667E-01  2.000E+01  2.000E+04 -4.447E-02
   1   14   22     1    22    1.2714E+05  5.1075E+03   1.2204E+05  0.000E+00  0.000E+00  0.000E+00  3.84037E+01  1.650E-01  2.000E+01  2.000E+04  2.554E-01
   1    9   30     2     1    5.0000E+04  1.6952E+03   4.8305E+04  0.000E+00  0.000E+00  0.000E+00  4.02397E+01  1.147E-01  2.000E+01  2.000E+04  8.476E-02
   1    9   29     2     2    4.8305E+04  3.7324E+03   4.4572E+04  0.000E+00  0.000E+00  0.000E+00  3.99858E+01  1.108E-01  2.000E+01  2.000E+04  1.866E-01
   1    9   28     2     3    4.4572E+04  5.4070E+02   4.4032E+04  0.000E+00  0.000E+00  0.000E+00  3.97328E+01  1.078E-01  2.000E+01  2.000E+04  2.703E-02
   1    9   27     2     4    4.4032E+04 -1.8766E+03   4.5908E+04  0.000E+00  0.000E+00  0.000E+00  3.94837E+01  1.087E-01  2.000E+01  2.000E+04 -9.383E-02
   1   10   26     2     5    4.5908E+04 -7.9457E+02   4.6703E+04  0.000E+00  0.000E+00  0.000E+00  3.92357E+01  1.107E-01  2.000E+01  2.000E+04 -3.973E-02
   1   11   25     2     6    4.6703E+04 -1.1044E+03   4.7807E+04  0.000E+00  0.000E+00  0.000E+00  3.89870E+01  1.120E-01  2.000E+01  2.000E+04 -5.522E-02
   1   12   24     2     7    4.7807E+04 -1.4867E+03   4.9294E+04  0.000E+00  0.000E+00  0.000E+00  3.87388E+01  1.138E-01  2.000E+01  2.000E+04 -7.433E-02
   1   13   23     2     8    4.9294E+04 -3.2856E+02   4.9622E+04  0.000E+00  0.000E+00  0.000E+00  3.84901E+01  1.151E-01  2.000E+01  2.000E+04 -1.643E-02
   1   14   22     2     9    4.9622E+04  1.8152E+03   4.7807E+04  0.000E+00  0.000E+00  0.000E+00  3.82391E+01  1.141E-01  2.000E+01  2.000E+04  9.076E-02
   1   14   22     3     1    1.6984E+05 -8.5069E+03   1.7835E+05  0.000E+00  0.000E+00  0.000E+00  3.77230E+01  1.674E-01  2.000E+01  2.000E+04 -4.253E-01
   1   15   23     3     2    1.7835E+05 -3.9784E+02   1.7875E+05  0.000E+00  0.000E+00  0.000E+00  3.68366E+01  1.700E-01  2.000E+01  2.000E+04 -1.989E-02
   1   15   24     3     3    1.7875E+05 -2.7446E+02   1.7902E+05  0.000E+00  0.000E+00  0.000E+00  3.59479E+01  1.702E-01  2.000E+01  2.000E+04 -1.372E-02
   1   15   25     3     4    1.7902E+05 -2.8027E+02   1.7930E+05  0.000E+00  0.000E+00  0.000E+00  3.50592E+01  1.703E-01  2.000E+01  2.000E+04 -1.401E-02
   1   15   26     3     5    1.7930E+05 -3.1652E+02   1.7962E+05  0.000E+00  0.000E+00  0.000E+00  3.41705E+01  1.705E-01  2.000E+01  2.000E+04 -1.583E-02
   1   16   27     3     6    1.7962E+05 -2.6297E+02   1.7988E+05  0.000E+00  0.000E+00  0.000E+00  3.32818E+01  1.706E-01  2.000E+01  2.000E+04 -1.315E-02
   1   17   28     3     7    1.7988E+05  3.6164E+01   1.7985E+05  0.000E+00  0.000E+00  0.000E+00  3.23929E+01  1.707E-01  2.000E+01  2.000E+04  1.808E-03
   1   18   29     3     8    1.7985E+05  3.5233E+03   1.7632E+05  0.000E+00  0.000E+00  0.000E+00  3.15030E+01  1.697E-01  2.000E+01  2.000E+04  1.762E-01
   1   18   30     3     9    1.7632E+05 -2.5640E+01   1.7635E+05  0.000E+00  0.000E+00  0.000E+00  3.06131E+01  1.687E-01  2.000E+01  2.000E+04 -1.282E-03



1
              HEAD IN LAYER   1 AT END OF TIME STEP   1 IN STRESS PERIOD   10
  ---------------------------------------------------------------------------

          1      2      3      4      5      6      7      8      9     10
         11     12     13     14     15     16     17     18     19     20
         21     22     23     24     25     26     27     28     29     30
 .........................................................................
   1  ****** ****** ****** ****** ****** ****** ****** ****** ****** ******
      ****** ****** ****** ****** ****** ****** ****** ****** ****** ******
      ****** ****** ****** ****** ****** ****** ****** ****** ****** ******
   2  ****** ****** ****** ****** ****** ****** ****** ****** ****** ******
      ****** ****** ****** ****** ****** ****** ****** ****** ****** ******
      ****** ****** ****** ****** ****** ****** ****** ****** ****** ******
   3  ****** ****** ****** ****** ****** ****** ****** ****** ****** ******
      ****** ****** ****** ****** ****** ****** ****** ****** ****** ******
      ****** ****** ****** ****** ****** ****** ****** ****** ****** ******
   4  ****** ****** ****** ****** ****** ****** ****** ****** ****** ******
      ****** ****** ****** ****** ****** ****** ****** ****** ****** ******
      ****** ****** ****** ****** ****** ****** ****** ****** ****** ******
   5  ****** ****** ****** ****** ****** ****** ****** ****** ****** ******
      ****** ****** ****** ****** ****** ****** ****** ****** ****** ******
      ****** ****** ****** ****** ****** ****** ****** ****** ****** ******
   6  ****** ****** ****** ****** ****** ****** ****** ****** ****** ******
      ****** ****** ****** ****** ****** ****** ****** ****** ****** ******
      ****** ****** ****** ****** ****** ****** ****** ****** ****** ******
   7  ****** ****** ****** ****** ****** ****** ****** ****** ****** ******
      ****** ****** ****** ****** ****** ****** ****** ****** ****** ******
      ****** ****** ****** ****** ****** ****** ****** ****** ****** ******
   8  ****** ****** ****** ****** ****** ****** ****** ****** ****** ******
      ****** ****** ****** ****** ****** ****** ****** ****** ****** ******
      ****** ****** ****** ****** ****** ****** ****** ****** ****** ******
   9  ****** ****** ****** ****** ****** ****** ****** ****** ****** ******
      ****** ****** ****** ****** ****** ****** ****** ****** ****** ******
      ****** ****** ****** ****** ****** ****** ****** ****** ****** ******
  10  ****** ****** ****** ****** ****** ****** ****** ****** ****** ******
      ****** ****** ****** ****** ****** ****** ****** ****** ****** ******
      ****** ****** ****** ****** ****** ****** ****** ****** ****** ******
  11  ****** ****** ****** ****** ****** ****** ****** ****** ****** ******
      ****** ****** ****** ****** ****** ****** ****** ****** ****** ******
      ****** ****** ****** ****** ****** ****** ****** ****** ****** ******
  12  ****** ****** ****** ****** ****** ****** ****** ****** ****** ******
      ****** ****** ****** ****** ****** ****** ****** ****** ****** ******
      ****** ****** ****** ****** ****** ****** ****** ****** ****** ******
  13  ****** ****** ****** ****** ****** ****** ****** ****** ****** ******
      ****** ****** ****** ****** ****** ****** ****** ****** ****** ******
      ****** ****** ****** ****** ****** ****** ****** ****** ****** ******
  14  ****** ****** ****** ****** ****** ****** ****** ****** ****** ******
      ****** ****** ****** ****** ****** ****** ****** ****** ****** ******
      ****** ****** ****** ****** ****** ****** ****** ****** ****** ******
  15  ****** ****** ****** ****** ****** ****** ****** ****** ****** ******
      ****** ****** ****** ****** ****** ****** ****** ****** ****** ******
      ****** ****** ****** ****** ****** ****** ****** ****** ****** ******
  16  ****** ****** ****** ****** ****** ****** ****** ****** ****** ******
      ****** ****** ****** ****** ****** ****** ****** ****** ****** ******
      ****** ****** ****** ****** ****** ****** ****** ****** ****** ******
  17  ****** ****** ****** ****** ****** ****** ****** ****** ****** ******
      ****** ****** ****** ****** ****** ****** ****** ****** ****** ******
      ****** ****** ****** ****** ****** ****** ****** ****** ****** ******
  18  ****** ****** ****** ****** ****** ****** ****** ****** ****** ******
      ****** ****** ****** ****** ****** ****** ****** ****** ****** ******
      ****** ****** ****** ****** ****** ****** ****** ****** ****** ******
  19  ****** ****** ****** ****** ****** ****** ****** ****** ****** ******
      ****** ****** ****** ****** ****** ****** ****** ****** ****** ******
      ****** ****** ****** ****** ****** ****** ****** ****** ****** ******
  20  ****** ****** ****** ****** ****** ****** ****** ****** ****** ******
      ****** ****** ****** ****** ****** ****** ****** ****** ****** ******
      ****** ****** ****** ****** ****** ****** ****** ****** ****** ******
  21  ****** ****** ****** ****** ****** ****** ****** ****** ****** ******
      ****** ****** ****** ****** ****** ****** ****** ****** ****** ******
      ****** ****** ****** ****** ****** ****** ****** ****** ****** ******
  22  ****** ****** ****** ****** ****** ****** ****** ****** ****** ******
      ****** ****** ****** ****** ****** ****** ****** ****** ****** ******
      ****** ****** ****** ****** ****** ****** ****** ****** ****** ******
  23  ****** ****** ****** ****** ****** ****** ****** ****** ****** ******
      ****** ****** ****** ****** ****** ****** ****** ****** ****** ******
      ****** ****** ****** ****** ****** ****** ****** ****** ****** ******
  24  ****** ****** ****** ****** ****** ****** ****** ****** ****** ******
      ****** ****** ****** ****** ****** ****** ****** ****** ****** ******
      ****** ****** ****** ****** ****** ****** ****** ****** ****** ******
  25  ****** ****** ****** ****** ****** ****** ****** ****** ****** ******
      ****** ****** ****** ****** ****** ****** ****** ****** ****** ******
      ****** ****** ****** ****** ****** ****** ****** ****** ****** ******

 HEAD WILL BE SAVED ON UNIT   51 AT END OF TIME STEP    1, STRESS PERIOD   10
1
  VOLUMETRIC BUDGET FOR ENTIRE MODEL AT END OF TIME STEP    1, STRESS PERIOD  10
  ------------------------------------------------------------------------------

     CUMULATIVE VOLUMES      L**3       RATES FOR THIS TIME STEP      L**3/T
     ------------------                 ------------------------

           IN:                                      IN:
           ---                                      ---
             STORAGE =    35964842.1385               STORAGE =           0.0000
       CONSTANT HEAD =    26992188.0448         CONSTANT HEAD =       33812.1683
               WELLS =           0.0000                 WELLS =           0.0000
            RECHARGE =    23901600.0000              RECHARGE =       55200.0000
      STREAM LEAKAGE =    14056060.6502        STREAM LEAKAGE =       16450.5479

            TOTAL IN =   100914690.8335              TOTAL IN =      105462.7162

          OUT:                                     OUT:
          ----                                     ----
             STORAGE =     2215593.5730               STORAGE =       15368.0535
       CONSTANT HEAD =           0.0000         CONSTANT HEAD =           0.0000
               WELLS =    43181000.7997                 WELLS =       47295.7292
            RECHARGE =           0.0000              RECHARGE =           0.0000
      STREAM LEAKAGE =    55518098.1146        STREAM LEAKAGE =       42798.9296

           TOTAL OUT =   100914692.4873             TOTAL OUT =      105462.7124

            IN - OUT =          -1.6538              IN - OUT =       3.8511E-03

 PERCENT DISCREPANCY =          -0.00     PERCENT DISCREPANCY =           0.00






         TIME SUMMARY AT END OF TIME STEP    1 IN STRESS PERIOD   10
                    SECONDS     MINUTES      HOURS       DAYS        YEARS
                    -----------------------------------------------------------
   TIME STEP LENGTH 7.86240E+06 1.31040E+05  2184.0      91.000     0.24914    
 STRESS PERIOD TIME 7.86240E+06 1.31040E+05  2184.0      91.000     0.24914    
         TOTAL TIME 7.88832E+07 1.31472E+06  21912.      913.00      2.4997    
1
1
                            STRESS PERIOD NO.   11, LENGTH =   91.00000    
                            -----------------------------------------------

                              NUMBER OF TIME STEPS =     1

                               MULTIPLIER FOR DELT =     1.500

                            INITIAL TIME STEP SIZE =   91.00000    

 WELL NO.  LAYER   ROW   COL   STRESS RATE         
 --------------------------------------------------
      1      1     19     29     -0.1179E+05
      2      1     10     29     -0.1333E+05
      3      1     20     21      -8354.    
      4      1      8     12     -0.1382E+05

      4 WELLS

                 RECHARGE =   0.00000    

 REUSING STREAM SEGMENT DATA FROM LAST STRESS PERIOD
 
 SOLVING FOR HEAD 


     7 CALLS TO PCG ROUTINE FOR TIME STEP   1 IN STRESS PERIOD   11
    26 TOTAL ITERATIONS

 OUTPUT CONTROL FOR STRESS PERIOD   11   TIME STEP    1
    SAVE BUDGET
    SAVE HEAD FOR ALL LAYERS
    PRINT HEAD FOR ALL LAYERS
 UBDSV2 SAVING "STREAMFLOW OUT  " ON UNIT  50 AT TIME STEP  1, STRESS PERIOD  11



 STREAM LISTING     PERIOD     11   STEP        1

 LAYER ROW COL. STREAM  RCH.  FLOW INTO     FLOW TO   FLOW OUT OF   OVRLND.     DIRECT     STREAM       STREAM     STREAM     STREAM   STREAMBED  STREAMBED
                SEG.NO.  NO.  STRM. RCH.    AQUIFER    STRM. RCH.    RUNOFF     PRECIP       ET          HEAD       DEPTH      WIDTH   CONDCTNC.   GRADIENT

   1   13    1     1     1    1.0000E+05 -1.0656E+03   1.0107E+05  0.000E+00  0.000E+00  0.000E+00  4.84065E+01  1.451E-01  2.000E+01  2.000E+04 -5.328E-02
   1   13    2     1     2    1.0107E+05 -1.9390E+03   1.0300E+05  0.000E+00  0.000E+00  0.000E+00  4.79305E+01  1.464E-01  2.000E+01  2.000E+04 -9.695E-02
   1   14    3     1     3    1.0300E+05 -3.0442E+02   1.0331E+05  0.000E+00  0.000E+00  0.000E+00  4.74542E+01  1.474E-01  2.000E+01  2.000E+04 -1.522E-02
   1   15    4     1     4    1.0331E+05 -2.8907E+02   1.0360E+05  0.000E+00  0.000E+00  0.000E+00  4.69772E+01  1.476E-01  2.000E+01  2.000E+04 -1.445E-02
   1   16    5     1     5    1.0360E+05 -1.3143E+03   1.0491E+05  0.000E+00  0.000E+00  0.000E+00  4.65006E+01  1.483E-01  2.000E+01  2.000E+04 -6.571E-02
   1   16    6     1     6    1.0491E+05 -8.0849E+02   1.0572E+05  0.000E+00  0.000E+00  0.000E+00  4.60242E+01  1.492E-01  2.000E+01  2.000E+04 -4.042E-02
   1   16    7     1     7    1.0572E+05 -7.8006E+02   1.0650E+05  0.000E+00  0.000E+00  0.000E+00  4.55476E+01  1.499E-01  2.000E+01  2.000E+04 -3.900E-02
   1   16    8     1     8    1.0650E+05 -7.6061E+02   1.0726E+05  0.000E+00  0.000E+00  0.000E+00  4.50710E+01  1.505E-01  2.000E+01  2.000E+04 -3.803E-02
   1   16    9     1     9    1.0726E+05 -7.3415E+02   1.0800E+05  0.000E+00  0.000E+00  0.000E+00  4.45944E+01  1.512E-01  2.000E+01  2.000E+04 -3.671E-02
   1   16   10     1    10    1.0800E+05 -6.9856E+02   1.0869E+05  0.000E+00  0.000E+00  0.000E+00  4.41177E+01  1.518E-01  2.000E+01  2.000E+04 -3.493E-02
   1   16   11     1    11    1.0869E+05 -6.5903E+02   1.0935E+05  0.000E+00  0.000E+00  0.000E+00  4.36410E+01  1.523E-01  2.000E+01  2.000E+04 -3.295E-02
   1   16   12     1    12    1.0935E+05 -8.6865E+02   1.1022E+05  0.000E+00  0.000E+00  0.000E+00  4.31644E+01  1.530E-01  2.000E+01  2.000E+04 -4.343E-02
   1   15   13     1    13    1.1022E+05 -3.8341E+02   1.1061E+05  0.000E+00  0.000E+00  0.000E+00  4.26876E+01  1.535E-01  2.000E+01  2.000E+04 -1.917E-02
   1   14   14     1    14    1.1061E+05 -2.9166E+02   1.1090E+05  0.000E+00  0.000E+00  0.000E+00  4.22106E+01  1.538E-01  2.000E+01  2.000E+04 -1.458E-02
   1   13   15     1    15    1.1090E+05 -3.3299E+02   1.1123E+05  0.000E+00  0.000E+00  0.000E+00  4.17336E+01  1.541E-01  2.000E+01  2.000E+04 -1.665E-02
   1   12   16     1    16    1.1123E+05 -7.1879E+02   1.1195E+05  0.000E+00  0.000E+00  0.000E+00  4.12568E+01  1.545E-01  2.000E+01  2.000E+04 -3.594E-02
   1   12   17     1    17    1.1195E+05 -7.4870E+02   1.1270E+05  0.000E+00  0.000E+00  0.000E+00  4.07801E+01  1.551E-01  2.000E+01  2.000E+04 -3.744E-02
   1   12   18     1    18    1.1270E+05 -8.5962E+02   1.1356E+05  0.000E+00  0.000E+00  0.000E+00  4.03035E+01  1.558E-01  2.000E+01  2.000E+04 -4.298E-02
   1   12   19     1    19    1.1356E+05 -1.3888E+03   1.1495E+05  0.000E+00  0.000E+00  0.000E+00  3.98271E+01  1.567E-01  2.000E+01  2.000E+04 -6.944E-02
   1   13   20     1    20    1.1495E+05 -8.7401E+02   1.1582E+05  0.000E+00  0.000E+00  0.000E+00  3.93508E+01  1.576E-01  2.000E+01  2.000E+04 -4.370E-02
   1   14   21     1    21    1.1582E+05 -2.9144E+02   1.1611E+05  0.000E+00  0.000E+00  0.000E+00  3.88740E+01  1.581E-01  2.000E+01  2.000E+04 -1.457E-02
   1   14   22     1    22    1.1611E+05  5.2573E+03   1.1085E+05  0.000E+00  0.000E+00  0.000E+00  3.83947E+01  1.561E-01  2.000E+01  2.000E+04  2.629E-01
   1    9   30     2     1    5.0000E+04  2.1838E+03   4.7816E+04  0.000E+00  0.000E+00  0.000E+00  4.02393E+01  1.143E-01  2.000E+01  2.000E+04  1.092E-01
   1    9   29     2     2    4.7816E+04  4.2180E+03   4.3598E+04  0.000E+00  0.000E+00  0.000E+00  3.99848E+01  1.098E-01  2.000E+01  2.000E+04  2.109E-01
   1    9   28     2     3    4.3598E+04  1.0241E+03   4.2574E+04  0.000E+00  0.000E+00  0.000E+00  3.97310E+01  1.060E-01  2.000E+01  2.000E+04  5.121E-02
   1    9   27     2     4    4.2574E+04 -1.2356E+03   4.3810E+04  0.000E+00  0.000E+00  0.000E+00  3.94811E+01  1.061E-01  2.000E+01  2.000E+04 -6.178E-02
   1   10   26     2     5    4.3810E+04 -1.3926E+02   4.3949E+04  0.000E+00  0.000E+00  0.000E+00  3.92321E+01  1.071E-01  2.000E+01  2.000E+04 -6.963E-03
   1   11   25     2     6    4.3949E+04 -4.7298E+02   4.4422E+04  0.000E+00  0.000E+00  0.000E+00  3.89826E+01  1.076E-01  2.000E+01  2.000E+04 -2.365E-02
   1   12   24     2     7    4.4422E+04 -9.1223E+02   4.5334E+04  0.000E+00  0.000E+00  0.000E+00  3.87336E+01  1.086E-01  2.000E+01  2.000E+04 -4.561E-02
   1   13   23     2     8    4.5334E+04 -1.4256E+02   4.5477E+04  0.000E+00  0.000E+00  0.000E+00  3.84844E+01  1.094E-01  2.000E+01  2.000E+04 -7.128E-03
   1   14   22     2     9    4.5477E+04  2.0233E+03   4.3453E+04  0.000E+00  0.000E+00  0.000E+00  3.82330E+01  1.080E-01  2.000E+01  2.000E+04  1.012E-01
   1   14   22     3     1    1.5431E+05 -8.3607E+03   1.6267E+05  0.000E+00  0.000E+00  0.000E+00  3.77138E+01  1.582E-01  2.000E+01  2.000E+04 -4.180E-01
   1   15   23     3     2    1.6267E+05 -2.0564E+02   1.6287E+05  0.000E+00  0.000E+00  0.000E+00  3.68275E+01  1.608E-01  2.000E+01  2.000E+04 -1.028E-02
   1   15   24     3     3    1.6287E+05 -1.0923E+02   1.6298E+05  0.000E+00  0.000E+00  0.000E+00  3.59387E+01  1.609E-01  2.000E+01  2.000E+04 -5.462E-03
   1   15   25     3     4    1.6298E+05 -1.1123E+02   1.6309E+05  0.000E+00  0.000E+00  0.000E+00  3.50498E+01  1.609E-01  2.000E+01  2.000E+04 -5.561E-03
   1   15   26     3     5    1.6309E+05 -1.2078E+02   1.6322E+05  0.000E+00  0.000E+00  0.000E+00  3.41610E+01  1.610E-01  2.000E+01  2.000E+04 -6.039E-03
   1   16   27     3     6    1.6322E+05 -3.9853E+01   1.6325E+05  0.000E+00  0.000E+00  0.000E+00  3.32722E+01  1.611E-01  2.000E+01  2.000E+04 -1.993E-03
   1   17   28     3     7    1.6325E+05  6.4630E+02   1.6261E+05  0.000E+00  0.000E+00  0.000E+00  3.23831E+01  1.609E-01  2.000E+01  2.000E+04  3.231E-02
   1   18   29     3     8    1.6261E+05  4.1460E+03   1.5846E+05  0.000E+00  0.000E+00  0.000E+00  3.14928E+01  1.595E-01  2.000E+01  2.000E+04  2.073E-01
   1   18   30     3     9    1.5846E+05  4.6387E+02   1.5800E+05  0.000E+00  0.000E+00  0.000E+00  3.06025E+01  1.581E-01  2.000E+01  2.000E+04  2.319E-02



1
              HEAD IN LAYER   1 AT END OF TIME STEP   1 IN STRESS PERIOD   11
  ---------------------------------------------------------------------------

          1      2      3      4      5      6      7      8      9     10
         11     12     13     14     15     16     17     18     19     20
         21     22     23     24     25     26     27     28     29     30
 .........................................................................
   1  ****** ****** ****** ****** ****** ****** ****** ****** ****** ******
      ****** ****** ****** ****** ****** ****** ****** ****** ****** ******
      ****** ****** ****** ****** ****** ****** ****** ****** ****** ******
   2  ****** ****** ****** ****** ****** ****** ****** ****** ****** ******
      ****** ****** ****** ****** ****** ****** ****** ****** ****** ******
      ****** ****** ****** ****** ****** ****** ****** ****** ****** ******
   3  ****** ****** ****** ****** ****** ****** ****** ****** ****** ******
      ****** ****** ****** ****** ****** ****** ****** ****** ****** ******
      ****** ****** ****** ****** ****** ****** ****** ****** ****** ******
   4  ****** ****** ****** ****** ****** ****** ****** ****** ****** ******
      ****** ****** ****** ****** ****** ****** ****** ****** ****** ******
      ****** ****** ****** ****** ****** ****** ****** ****** ****** ******
   5  ****** ****** ****** ****** ****** ****** ****** ****** ****** ******
      ****** ****** ****** ****** ****** ****** ****** ****** ****** ******
      ****** ****** ****** ****** ****** ****** ****** ****** ****** ******
   6  ****** ****** ****** ****** ****** ****** ****** ****** ****** ******
      ****** ****** ****** ****** ****** ****** ****** ****** ****** ******
      ****** ****** ****** ****** ****** ****** ****** ****** ****** ******
   7  ****** ****** ****** ****** ****** ****** ****** ****** ****** ******
      ****** ****** ****** ****** ****** ****** ****** ****** ****** ******
      ****** ****** ****** ****** ****** ****** ****** ****** ****** ******
   8  ****** ****** ****** ****** ****** ****** ****** ****** ****** ******
      ****** ****** ****** ****** ****** ****** ****** ****** ****** ******
      ****** ****** ****** ****** ****** ****** ****** ****** ****** ******
   9  ****** ****** ****** ****** ****** ****** ****** ****** ****** ******
      ****** ****** ****** ****** ****** ****** ****** ****** ****** ******
      ****** ****** ****** ****** ****** ****** ****** ****** ****** ******
  10  ****** ****** ****** ****** ****** ****** ****** ****** ****** ******
      ****** ****** ****** ****** ****** ****** ****** ****** ****** ******
      ****** ****** ****** ****** ****** ****** ****** ****** ****** ******
  11  ****** ****** ****** ****** ****** ****** ****** ****** ****** ******
      ****** ****** ****** ****** ****** ****** ****** ****** ****** ******
      ****** ****** ****** ****** ****** ****** ****** ****** ****** ******
  12  ****** ****** ****** ****** ****** ****** ****** ****** ****** ******
      ****** ****** ****** ****** ****** ****** ****** ****** ****** ******
      ****** ****** ****** ****** ****** ****** ****** ****** ****** ******
  13  ****** ****** ****** ****** ****** ****** ****** ****** ****** ******
      ****** ****** ****** ****** ****** ****** ****** ****** ****** ******
      ****** ****** ****** ****** ****** ****** ****** ****** ****** ******
  14  ****** ****** ****** ****** ****** ****** ****** ****** ****** ******
      ****** ****** ****** ****** ****** ****** ****** ****** ****** ******
      ****** ****** ****** ****** ****** ****** ****** ****** ****** ******
  15  ****** ****** ****** ****** ****** ****** ****** ****** ****** ******
      ****** ****** ****** ****** ****** ****** ****** ****** ****** ******
      ****** ****** ****** ****** ****** ****** ****** ****** ****** ******
  16  ****** ****** ****** ****** ****** ****** ****** ****** ****** ******
      ****** ****** ****** ****** ****** ****** ****** ****** ****** ******
      ****** ****** ****** ****** ****** ****** ****** ****** ****** ******
  17  ****** ****** ****** ****** ****** ****** ****** ****** ****** ******
      ****** ****** ****** ****** ****** ****** ****** ****** ****** ******
      ****** ****** ****** ****** ****** ****** ****** ****** ****** ******
  18  ****** ****** ****** ****** ****** ****** ****** ****** ****** ******
      ****** ****** ****** ****** ****** ****** ****** ****** ****** ******
      ****** ****** ****** ****** ****** ****** ****** ****** ****** ******
  19  ****** ****** ****** ****** ****** ****** ****** ****** ****** ******
      ****** ****** ****** ****** ****** ****** ****** ****** ****** ******
      ****** ****** ****** ****** ****** ****** ****** ****** ****** ******
  20  ****** ****** ****** ****** ****** ****** ****** ****** ****** ******
      ****** ****** ****** ****** ****** ****** ****** ****** ****** ******
      ****** ****** ****** ****** ****** ****** ****** ****** ****** ******
  21  ****** ****** ****** ****** ****** ****** ****** ****** ****** ******
      ****** ****** ****** ****** ****** ****** ****** ****** ****** ******
      ****** ****** ****** ****** ****** ****** ****** ****** ****** ******
  22  ****** ****** ****** ****** ****** ****** ****** ****** ****** ******
      ****** ****** ****** ****** ****** ****** ****** ****** ****** ******
      ****** ****** ****** ****** ****** ****** ****** ****** ****** ******
  23  ****** ****** ****** ****** ****** ****** ****** ****** ****** ******
      ****** ****** ****** ****** ****** ****** ****** ****** ****** ******
      ****** ****** ****** ****** ****** ****** ****** ****** ****** ******
  24  ****** ****** ****** ****** ****** ****** ****** ****** ****** ******
      ****** ****** ****** ****** ****** ****** ****** ****** ****** ******
      ****** ****** ****** ****** ****** ****** ****** ****** ****** ******
  25  ****** ****** ****** ****** ****** ****** ****** ****** ****** ******
      ****** ****** ****** ****** ****** ****** ****** ****** ****** ******
      ****** ****** ****** ****** ****** ****** ****** ****** ****** ******

 HEAD WILL BE SAVED ON UNIT   51 AT END OF TIME STEP    1, STRESS PERIOD   11
1
  VOLUMETRIC BUDGET FOR ENTIRE MODEL AT END OF TIME STEP    1, STRESS PERIOD  11
  ------------------------------------------------------------------------------

     CUMULATIVE VOLUMES      L**3       RATES FOR THIS TIME STEP      L**3/T
     ------------------                 ------------------------

           IN:                                      IN:
           ---                                      ---
             STORAGE =    37618350.8045               STORAGE =       18170.4249
       CONSTANT HEAD =    30370476.8502         CONSTANT HEAD =       37124.0528
               WELLS =           0.0000                 WELLS =           0.0000
            RECHARGE =    23901600.0000              RECHARGE =           0.0000
      STREAM LEAKAGE =    15872667.2945        STREAM LEAKAGE =       19962.7104

            TOTAL IN =   107763094.9492              TOTAL IN =       75257.1881

          OUT:                                     OUT:
          ----                                     ----
             STORAGE =     2215593.5730               STORAGE =           0.0000
       CONSTANT HEAD =           0.0000         CONSTANT HEAD =           0.0000
               WELLS =    47484912.1609                 WELLS =       47295.7292
            RECHARGE =           0.0000              RECHARGE =           0.0000
      STREAM LEAKAGE =    58062591.3206        STREAM LEAKAGE =       27961.4638

           TOTAL OUT =   107763097.0544             TOTAL OUT =       75257.1930

            IN - OUT =          -2.1052              IN - OUT =      -4.9613E-03

 PERCENT DISCREPANCY =          -0.00     PERCENT DISCREPANCY =          -0.00






         TIME SUMMARY AT END OF TIME STEP    1 IN STRESS PERIOD   11
                    SECONDS     MINUTES      HOURS       DAYS        YEARS
                    -----------------------------------------------------------
   TIME STEP LENGTH 7.86240E+06 1.31040E+05  2184.0      91.000     0.24914    
 STRESS PERIOD TIME 7.86240E+06 1.31040E+05  2184.0      91.000     0.24914    
         TOTAL TIME 8.67456E+07 1.44576E+06  24096.      1004.0      2.7488    
1
1
                            STRESS PERIOD NO.   12, LENGTH =   91.00000    
                            -----------------------------------------------

                              NUMBER OF TIME STEPS =     1

                               MULTIPLIER FOR DELT =     1.500

                            INITIAL TIME STEP SIZE =   91.00000    

 WELL NO.  LAYER   ROW   COL   STRESS RATE         
 --------------------------------------------------
      1      1     19     29     -0.1179E+05
      2      1     10     29     -0.1333E+05
      3      1     20     21      -8354.    
      4      1      8     12     -0.1382E+05

      4 WELLS

                 RECHARGE =  1.000000E-03

 REUSING STREAM SEGMENT DATA FROM LAST STRESS PERIOD
 
 SOLVING FOR HEAD 


     7 CALLS TO PCG ROUTINE FOR TIME STEP   1 IN STRESS PERIOD   12
    24 TOTAL ITERATIONS

 OUTPUT CONTROL FOR STRESS PERIOD   12   TIME STEP    1
    SAVE BUDGET
    SAVE HEAD FOR ALL LAYERS
    PRINT HEAD FOR ALL LAYERS
 UBDSV2 SAVING "STREAMFLOW OUT  " ON UNIT  50 AT TIME STEP  1, STRESS PERIOD  12



 STREAM LISTING     PERIOD     12   STEP        1

 LAYER ROW COL. STREAM  RCH.  FLOW INTO     FLOW TO   FLOW OUT OF   OVRLND.     DIRECT     STREAM       STREAM     STREAM     STREAM   STREAMBED  STREAMBED
                SEG.NO.  NO.  STRM. RCH.    AQUIFER    STRM. RCH.    RUNOFF     PRECIP       ET          HEAD       DEPTH      WIDTH   CONDCTNC.   GRADIENT

   1   13    1     1     1    1.0000E+05 -1.2044E+03   1.0120E+05  0.000E+00  0.000E+00  0.000E+00  4.84065E+01  1.452E-01  2.000E+01  2.000E+04 -6.022E-02
   1   13    2     1     2    1.0120E+05 -2.0877E+03   1.0329E+05  0.000E+00  0.000E+00  0.000E+00  4.79307E+01  1.466E-01  2.000E+01  2.000E+04 -1.044E-01
   1   14    3     1     3    1.0329E+05 -3.8194E+02   1.0367E+05  0.000E+00  0.000E+00  0.000E+00  4.74545E+01  1.477E-01  2.000E+01  2.000E+04 -1.910E-02
   1   15    4     1     4    1.0367E+05 -3.7057E+02   1.0404E+05  0.000E+00  0.000E+00  0.000E+00  4.69775E+01  1.480E-01  2.000E+01  2.000E+04 -1.853E-02
   1   16    5     1     5    1.0404E+05 -1.5234E+03   1.0557E+05  0.000E+00  0.000E+00  0.000E+00  4.65011E+01  1.488E-01  2.000E+01  2.000E+04 -7.617E-02
   1   16    6     1     6    1.0557E+05 -9.3811E+02   1.0651E+05  0.000E+00  0.000E+00  0.000E+00  4.60248E+01  1.498E-01  2.000E+01  2.000E+04 -4.691E-02
   1   16    7     1     7    1.0651E+05 -9.0453E+02   1.0741E+05  0.000E+00  0.000E+00  0.000E+00  4.55483E+01  1.506E-01  2.000E+01  2.000E+04 -4.523E-02
   1   16    8     1     8    1.0741E+05 -8.8405E+02   1.0829E+05  0.000E+00  0.000E+00  0.000E+00  4.50718E+01  1.514E-01  2.000E+01  2.000E+04 -4.420E-02
   1   16    9     1     9    1.0829E+05 -8.5811E+02   1.0915E+05  0.000E+00  0.000E+00  0.000E+00  4.45953E+01  1.521E-01  2.000E+01  2.000E+04 -4.291E-02
   1   16   10     1    10    1.0915E+05 -8.2399E+02   1.0998E+05  0.000E+00  0.000E+00  0.000E+00  4.41187E+01  1.528E-01  2.000E+01  2.000E+04 -4.120E-02
   1   16   11     1    11    1.0998E+05 -7.8686E+02   1.1076E+05  0.000E+00  0.000E+00  0.000E+00  4.36421E+01  1.535E-01  2.000E+01  2.000E+04 -3.934E-02
   1   16   12     1    12    1.1076E+05 -1.0693E+03   1.1183E+05  0.000E+00  0.000E+00  0.000E+00  4.31656E+01  1.542E-01  2.000E+01  2.000E+04 -5.346E-02
   1   15   13     1    13    1.1183E+05 -5.9821E+02   1.1243E+05  0.000E+00  0.000E+00  0.000E+00  4.26890E+01  1.549E-01  2.000E+01  2.000E+04 -2.991E-02
   1   14   14     1    14    1.1243E+05 -5.0633E+02   1.1294E+05  0.000E+00  0.000E+00  0.000E+00  4.22122E+01  1.554E-01  2.000E+01  2.000E+04 -2.532E-02
   1   13   15     1    15    1.1294E+05 -5.3981E+02   1.1348E+05  0.000E+00  0.000E+00  0.000E+00  4.17354E+01  1.558E-01  2.000E+01  2.000E+04 -2.699E-02
   1   12   16     1    16    1.1348E+05 -8.9821E+02   1.1438E+05  0.000E+00  0.000E+00  0.000E+00  4.12587E+01  1.564E-01  2.000E+01  2.000E+04 -4.491E-02
   1   12   17     1    17    1.1438E+05 -9.0014E+02   1.1528E+05  0.000E+00  0.000E+00  0.000E+00  4.07822E+01  1.572E-01  2.000E+01  2.000E+04 -4.501E-02
   1   12   18     1    18    1.1528E+05 -1.0136E+03   1.1629E+05  0.000E+00  0.000E+00  0.000E+00  4.03057E+01  1.579E-01  2.000E+01  2.000E+04 -5.068E-02
   1   12   19     1    19    1.1629E+05 -1.5794E+03   1.1787E+05  0.000E+00  0.000E+00  0.000E+00  3.98295E+01  1.590E-01  2.000E+01  2.000E+04 -7.897E-02
   1   13   20     1    20    1.1787E+05 -1.0835E+03   1.1895E+05  0.000E+00  0.000E+00  0.000E+00  3.93533E+01  1.601E-01  2.000E+01  2.000E+04 -5.417E-02
   1   14   21     1    21    1.1895E+05 -4.8494E+02   1.1944E+05  0.000E+00  0.000E+00  0.000E+00  3.88766E+01  1.607E-01  2.000E+01  2.000E+04 -2.425E-02
   1   14   22     1    22    1.1944E+05  5.2031E+03   1.1423E+05  0.000E+00  0.000E+00  0.000E+00  3.83974E+01  1.588E-01  2.000E+01  2.000E+04  2.602E-01
   1    9   30     2     1    5.0000E+04  2.0077E+03   4.7992E+04  0.000E+00  0.000E+00  0.000E+00  4.02395E+01  1.145E-01  2.000E+01  2.000E+04  1.004E-01
   1    9   29     2     2    4.7992E+04  4.0440E+03   4.3948E+04  0.000E+00  0.000E+00  0.000E+00  3.99852E+01  1.102E-01  2.000E+01  2.000E+04  2.022E-01
   1    9   28     2     3    4.3948E+04  8.5375E+02   4.3095E+04  0.000E+00  0.000E+00  0.000E+00  3.97316E+01  1.066E-01  2.000E+01  2.000E+04  4.269E-02
   1    9   27     2     4    4.3095E+04 -1.4437E+03   4.4538E+04  0.000E+00  0.000E+00  0.000E+00  3.94820E+01  1.070E-01  2.000E+01  2.000E+04 -7.218E-02
   1   10   26     2     5    4.4538E+04 -3.6815E+02   4.4906E+04  0.000E+00  0.000E+00  0.000E+00  3.92334E+01  1.084E-01  2.000E+01  2.000E+04 -1.841E-02
   1   11   25     2     6    4.4906E+04 -6.9798E+02   4.5604E+04  0.000E+00  0.000E+00  0.000E+00  3.89841E+01  1.091E-01  2.000E+01  2.000E+04 -3.490E-02
   1   12   24     2     7    4.5604E+04 -1.1175E+03   4.6722E+04  0.000E+00  0.000E+00  0.000E+00  3.87354E+01  1.104E-01  2.000E+01  2.000E+04 -5.587E-02
   1   13   23     2     8    4.6722E+04 -2.2002E+02   4.6942E+04  0.000E+00  0.000E+00  0.000E+00  3.84864E+01  1.114E-01  2.000E+01  2.000E+04 -1.100E-02
   1   14   22     2     9    4.6942E+04  1.9574E+03   4.4984E+04  0.000E+00  0.000E+00  0.000E+00  3.82352E+01  1.102E-01  2.000E+01  2.000E+04  9.787E-02
   1   14   22     3     1    1.5922E+05 -8.4112E+03   1.6763E+05  0.000E+00  0.000E+00  0.000E+00  3.77167E+01  1.612E-01  2.000E+01  2.000E+04 -4.206E-01
   1   15   23     3     2    1.6763E+05 -2.7756E+02   1.6791E+05  0.000E+00  0.000E+00  0.000E+00  3.68304E+01  1.637E-01  2.000E+01  2.000E+04 -1.388E-02
   1   15   24     3     3    1.6791E+05 -1.7425E+02   1.6808E+05  0.000E+00  0.000E+00  0.000E+00  3.59416E+01  1.639E-01  2.000E+01  2.000E+04 -8.713E-03
   1   15   25     3     4    1.6808E+05 -1.7752E+02   1.6826E+05  0.000E+00  0.000E+00  0.000E+00  3.50529E+01  1.640E-01  2.000E+01  2.000E+04 -8.876E-03
   1   15   26     3     5    1.6826E+05 -1.9822E+02   1.6846E+05  0.000E+00  0.000E+00  0.000E+00  3.41641E+01  1.641E-01  2.000E+01  2.000E+04 -9.911E-03
   1   16   27     3     6    1.6846E+05 -1.2656E+02   1.6858E+05  0.000E+00  0.000E+00  0.000E+00  3.32753E+01  1.642E-01  2.000E+01  2.000E+04 -6.328E-03
   1   17   28     3     7    1.6858E+05  4.2581E+02   1.6816E+05  0.000E+00  0.000E+00  0.000E+00  3.23863E+01  1.641E-01  2.000E+01  2.000E+04  2.129E-02
   1   18   29     3     8    1.6816E+05  3.9459E+03   1.6421E+05  0.000E+00  0.000E+00  0.000E+00  3.14961E+01  1.628E-01  2.000E+01  2.000E+04  1.973E-01
   1   18   30     3     9    1.6421E+05  2.9610E+02   1.6392E+05  0.000E+00  0.000E+00  0.000E+00  3.06060E+01  1.616E-01  2.000E+01  2.000E+04  1.481E-02



1
              HEAD IN LAYER   1 AT END OF TIME STEP   1 IN STRESS PERIOD   12
  ---------------------------------------------------------------------------

          1      2      3      4      5      6      7      8      9     10
         11     12     13     14     15     16     17     18     19     20
         21     22     23     24     25     26     27     28     29     30
 .........................................................................
   1  ****** ****** ****** ****** ****** ****** ****** ****** ****** ******
      ****** ****** ****** ****** ****** ****** ****** ****** ****** ******
      ****** ****** ****** ****** ****** ****** ****** ****** ****** ******
   2  ****** ****** ****** ****** ****** ****** ****** ****** ****** ******
      ****** ****** ****** ****** ****** ****** ****** ****** ****** ******
      ****** ****** ****** ****** ****** ****** ****** ****** ****** ******
   3  ****** ****** ****** ****** ****** ****** ****** ****** ****** ******
      ****** ****** ****** ****** ****** ****** ****** ****** ****** ******
      ****** ****** ****** ****** ****** ****** ****** ****** ****** ******
   4  ****** ****** ****** ****** ****** ****** ****** ****** ****** ******
      ****** ****** ****** ****** ****** ****** ****** ****** ****** ******
      ****** ****** ****** ****** ****** ****** ****** ****** ****** ******
   5  ****** ****** ****** ****** ****** ****** ****** ****** ****** ******
      ****** ****** ****** ****** ****** ****** ****** ****** ****** ******
      ****** ****** ****** ****** ****** ****** ****** ****** ****** ******
   6  ****** ****** ****** ****** ****** ****** ****** ****** ****** ******
      ****** ****** ****** ****** ****** ****** ****** ****** ****** ******
      ****** ****** ****** ****** ****** ****** ****** ****** ****** ******
   7  ****** ****** ****** ****** ****** ****** ****** ****** ****** ******
      ****** ****** ****** ****** ****** ****** ****** ****** ****** ******
      ****** ****** ****** ****** ****** ****** ****** ****** ****** ******
   8  ****** ****** ****** ****** ****** ****** ****** ****** ****** ******
      ****** ****** ****** ****** ****** ****** ****** ****** ****** ******
      ****** ****** ****** ****** ****** ****** ****** ****** ****** ******
   9  ****** ****** ****** ****** ****** ****** ****** ****** ****** ******
      ****** ****** ****** ****** ****** ****** ****** ****** ****** ******
      ****** ****** ****** ****** ****** ****** ****** ****** ****** ******
  10  ****** ****** ****** ****** ****** ****** ****** ****** ****** ******
      ****** ****** ****** ****** ****** ****** ****** ****** ****** ******
      ****** ****** ****** ****** ****** ****** ****** ****** ****** ******
  11  ****** ****** ****** ****** ****** ****** ****** ****** ****** ******
      ****** ****** ****** ****** ****** ****** ****** ****** ****** ******
      ****** ****** ****** ****** ****** ****** ****** ****** ****** ******
  12  ****** ****** ****** ****** ****** ****** ****** ****** ****** ******
      ****** ****** ****** ****** ****** ****** ****** ****** ****** ******
      ****** ****** ****** ****** ****** ****** ****** ****** ****** ******
  13  ****** ****** ****** ****** ****** ****** ****** ****** ****** ******
      ****** ****** ****** ****** ****** ****** ****** ****** ****** ******
      ****** ****** ****** ****** ****** ****** ****** ****** ****** ******
  14  ****** ****** ****** ****** ****** ****** ****** ****** ****** ******
      ****** ****** ****** ****** ****** ****** ****** ****** ****** ******
      ****** ****** ****** ****** ****** ****** ****** ****** ****** ******
  15  ****** ****** ****** ****** ****** ****** ****** ****** ****** ******
      ****** ****** ****** ****** ****** ****** ****** ****** ****** ******
      ****** ****** ****** ****** ****** ****** ****** ****** ****** ******
  16  ****** ****** ****** ****** ****** ****** ****** ****** ****** ******
      ****** ****** ****** ****** ****** ****** ****** ****** ****** ******
      ****** ****** ****** ****** ****** ****** ****** ****** ****** ******
  17  ****** ****** ****** ****** ****** ****** ****** ****** ****** ******
      ****** ****** ****** ****** ****** ****** ****** ****** ****** ******
      ****** ****** ****** ****** ****** ****** ****** ****** ****** ******
  18  ****** ****** ****** ****** ****** ****** ****** ****** ****** ******
      ****** ****** ****** ****** ****** ****** ****** ****** ****** ******
      ****** ****** ****** ****** ****** ****** ****** ****** ****** ******
  19  ****** ****** ****** ****** ****** ****** ****** ****** ****** ******
      ****** ****** ****** ****** ****** ****** ****** ****** ****** ******
      ****** ****** ****** ****** ****** ****** ****** ****** ****** ******
  20  ****** ****** ****** ****** ****** ****** ****** ****** ****** ******
      ****** ****** ****** ****** ****** ****** ****** ****** ****** ******
      ****** ****** ****** ****** ****** ****** ****** ****** ****** ******
  21  ****** ****** ****** ****** ****** ****** ****** ****** ****** ******
      ****** ****** ****** ****** ****** ****** ****** ****** ****** ******
      ****** ****** ****** ****** ****** ****** ****** ****** ****** ******
  22  ****** ****** ****** ****** ****** ****** ****** ****** ****** ******
      ****** ****** ****** ****** ****** ****** ****** ****** ****** ******
      ****** ****** ****** ****** ****** ****** ****** ****** ****** ******
  23  ****** ****** ****** ****** ****** ****** ****** ****** ****** ******
      ****** ****** ****** ****** ****** ****** ****** ****** ****** ******
      ****** ****** ****** ****** ****** ****** ****** ****** ****** ******
  24  ****** ****** ****** ****** ****** ****** ****** ****** ****** ******
      ****** ****** ****** ****** ****** ****** ****** ****** ****** ******
      ****** ****** ****** ****** ****** ****** ****** ****** ****** ******
  25  ****** ****** ****** ****** ****** ****** ****** ****** ****** ******
      ****** ****** ****** ****** ****** ****** ****** ****** ****** ******
      ****** ****** ****** ****** ****** ****** ****** ****** ****** ******

 HEAD WILL BE SAVED ON UNIT   51 AT END OF TIME STEP    1, STRESS PERIOD   12
1
  VOLUMETRIC BUDGET FOR ENTIRE MODEL AT END OF TIME STEP    1, STRESS PERIOD  12
  ------------------------------------------------------------------------------

     CUMULATIVE VOLUMES      L**3       RATES FOR THIS TIME STEP      L**3/T
     ------------------                 ------------------------

           IN:                                      IN:
           ---                                      ---
             STORAGE =    37623502.3089               STORAGE =          56.6099
       CONSTANT HEAD =    33687102.3469         CONSTANT HEAD =       36446.4340
               WELLS =           0.0000                 WELLS =           0.0000
            RECHARGE =    26413200.0000              RECHARGE =       27600.0000
      STREAM LEAKAGE =    17577442.9873        STREAM LEAKAGE =       18733.7988

            TOTAL IN =   115301247.6431              TOTAL IN =       82836.8428

          OUT:                                     OUT:
          ----                                     ----
             STORAGE =     2478721.6563               STORAGE =        2891.5174
       CONSTANT HEAD =           0.0000         CONSTANT HEAD =           0.0000
               WELLS =    51788823.5221                 WELLS =       47295.7292
            RECHARGE =           0.0000              RECHARGE =           0.0000
      STREAM LEAKAGE =    61033704.4916        STREAM LEAKAGE =       32649.5953

           TOTAL OUT =   115301249.6700             TOTAL OUT =       82836.8419

            IN - OUT =          -2.0269              IN - OUT =       8.6044E-04

 PERCENT DISCREPANCY =          -0.00     PERCENT DISCREPANCY =           0.00






         TIME SUMMARY AT END OF TIME STEP    1 IN STRESS PERIOD   12
                    SECONDS     MINUTES      HOURS       DAYS        YEARS
                    -----------------------------------------------------------
   TIME STEP LENGTH 7.86240E+06 1.31040E+05  2184.0      91.000     0.24914    
 STRESS PERIOD TIME 7.86240E+06 1.31040E+05  2184.0      91.000     0.24914    
         TOTAL TIME 9.46080E+07 1.57680E+06  26280.      1095.0      2.9979    
1

 Run end date and time (yyyy/mm/dd hh:mm:ss): 2018/10/10 18:31:24
 Elapsed run time:  0.061 Seconds

