                                  MODFLOW-2005     
      U.S. GEOLOGICAL SURVEY MODULAR FINITE-DIFFERENCE GROUND-WATER FLOW MODEL
                            VERSION 1.11.00 8/8/2013

 LIST FILE: supply2.lst
                         UNIT   10

 OPENING ..\data\supply.dis
 FILE TYPE:DIS   UNIT   11   STATUS:OLD    
 FORMAT:FORMATTED              ACCESS:SEQUENTIAL          

 OPENING ..\data\supply.ba6
 FILE TYPE:BAS6   UNIT   12   STATUS:OLD    
 FORMAT:FORMATTED              ACCESS:SEQUENTIAL          

 OPENING ..\data\supply_het.bc6
 FILE TYPE:BCF6   UNIT   13   STATUS:OLD    
 FORMAT:FORMATTED              ACCESS:SEQUENTIAL          

 OPENING ..\data\supply.rch
 FILE TYPE:RCH   UNIT   15   STATUS:OLD    
 FORMAT:FORMATTED              ACCESS:SEQUENTIAL          

 OPENING ..\data\supply2.sfr
 FILE TYPE:SFR   UNIT   16   STATUS:OLD    
 FORMAT:FORMATTED              ACCESS:SEQUENTIAL          

 OPENING ..\data\supply.oc
 FILE TYPE:OC   UNIT   17   STATUS:OLD    
 FORMAT:FORMATTED              ACCESS:SEQUENTIAL          

 OPENING ..\data\supply.pcg
 FILE TYPE:PCG   UNIT   18   STATUS:OLD    
 FORMAT:FORMATTED              ACCESS:SEQUENTIAL          

 OPENING supply2.wel
 FILE TYPE:WEL   UNIT   19   STATUS:OLD    
 FORMAT:FORMATTED              ACCESS:SEQUENTIAL          

 OPENING supply2sf.cbc
 FILE TYPE:DATA(BINARY)   UNIT   50   STATUS:UNKNOWN
 FORMAT:BINARY                 ACCESS:SEQUENTIAL          

 OPENING supply2hd.bhd
 FILE TYPE:DATA(BINARY)   UNIT   51   STATUS:UNKNOWN
 FORMAT:BINARY                 ACCESS:SEQUENTIAL          

 BAS -- BASIC PACKAGE, VERSION 7, 5/2/2005 INPUT READ FROM UNIT   12
 
 MODFLOW was compiled using uniform precision
 Precision of REAL and DOUBLE PRECISION variables:          15

 DISCRETIZATION INPUT DATA READ FROM UNIT   11
    1 LAYERS        25 ROWS        30 COLUMNS
   12 STRESS PERIOD(S) IN SIMULATION
 MODEL TIME UNIT IS DAYS
 MODEL LENGTH UNIT IS UNDEFINED
  Confining bed flag for each layer:
   0

                     DELR =   200.000    

                     DELC =   200.000    

 TOP ELEVATION OF LAYER 1 =  100.0000    

   MODEL LAYER BOTTOM EL. =   0.00000     FOR LAYER   1


 STRESS PERIOD     LENGTH       TIME STEPS     MULTIPLIER FOR DELT    SS FLAG
 ----------------------------------------------------------------------------
        1         92.00000          1                    1.500         TR
        2         91.00000          1                    1.500         TR
        3         91.00000          1                    1.500         TR
        4         91.00000          1                    1.500         TR
        5         92.00000          1                    1.500         TR
        6         91.00000          1                    1.500         TR
        7         91.00000          1                    1.500         TR
        8         91.00000          1                    1.500         TR
        9         92.00000          1                    1.500         TR
       10         91.00000          1                    1.500         TR
       11         91.00000          1                    1.500         TR
       12         91.00000          1                    1.500         TR

 TRANSIENT SIMULATION



 
 #MODOFC transient water supply sample problem                                   
 #                                                                               
 THE FREE FORMAT OPTION HAS BEEN SELECTED



                     BOUNDARY ARRAY FOR LAYER   1
 READING ON UNIT   12 WITH FORMAT: (20I4)              

 AQUIFER HEAD WILL BE SET TO   0.0000     AT ALL NO-FLOW NODES (IBOUND=0).



                       INITIAL HEAD FOR LAYER   1
 READING ON UNIT   12 WITH FORMAT: (10F13.0)           

 OUTPUT CONTROL IS SPECIFIED ONLY AT TIME STEPS FOR WHICH OUTPUT IS DESIRED
 COMPACT CELL-BY-CELL BUDGET FILES WILL BE WRITTEN
 HEAD PRINT FORMAT CODE IS  18    DRAWDOWN PRINT FORMAT CODE IS   0
 HEADS WILL BE SAVED ON UNIT   51    DRAWDOWNS WILL BE SAVED ON UNIT    0

 BCF -- BLOCK-CENTERED FLOW PACKAGE, VERSION 7, 5/2/2005
         INPUT READ FROM UNIT 13
 TRANSIENT SIMULATION
 HEAD AT CELLS THAT CONVERT TO DRY=   0.0000    
 WETTING CAPABILITY IS NOT ACTIVE
      LAYER  LAYER-TYPE CODE     INTERBLOCK T
      --------------------------------------------
         1            0          0 -- HARMONIC    

 COLUMN TO ROW ANISOTROPY =  1.000000    

     PRIMARY STORAGE COEF =  5.000000E-02 FOR LAYER   1



               TRANSMIS. ALONG ROWS FOR LAYER   1
 READING ON UNIT   13 WITH FORMAT: (FREE)              

 WEL -- WELL PACKAGE, VERSION 7, 5/2/2005 INPUT READ FROM UNIT   19
 # Well package input file written by MMProc
 No named parameters
 MAXIMUM OF      4 ACTIVE WELLS AT ONE TIME


     0 Well parameters

 RCH -- RECHARGE PACKAGE, VERSION 7, 5/2/2005 INPUT READ FROM UNIT   15
 No named parameters
 OPTION 1 -- RECHARGE TO TOP LAYER


     0 Recharge parameters

 SFR7 -- STREAMFLOW ROUTING PACKAGE, VERSION 1.0.7, 2013-01-15
         INPUT READ FROM UNIT  16
 #  Supply2 test problem for GWM-VI
 #  The eighth entry in the first data line is ISTCB2 -
 #    Setting this to a negative number indicates that
 #    streamflows out of the reach will be saved to a
 #    binary file.  The absolute value of ISTCB2 is the
 #    unit to which unformatted flows will be written.
 #
 No named parameters
 Segment information will not be 
 read by reach
 No named parameters
 No specifed inflow files


 NUMBER OF STREAM REACHES IS   40

 NUMBER OF STREAM SEGMENTS IS    3

 NUMBER OF STREAM PARAMETERS IS    0

 NUMBER OF STREAM SEGMENTS DEFINED USING PARAMETERS IS              0

 MAXIMUM ERROR FOR STREAM LEAKAGE RATES IS  1.00E-04

 CONSTANT FOR MANNINGS EQUATION IS  1.2839E+05





   STREAM NETWORK DESCRIPTION: 

   LAYER    ROW    COL   SEGMENT   REACH     LENGTH
                          NUMBER   NUMBER    IN CELL        
   --------------------------------------------------
      1     13      1       1        1    2.0000E+02
      1     13      2       1        2    2.0000E+02
      1     14      3       1        3    2.0000E+02
      1     15      4       1        4    2.0000E+02
      1     16      5       1        5    2.0000E+02
      1     16      6       1        6    2.0000E+02
      1     16      7       1        7    2.0000E+02
      1     16      8       1        8    2.0000E+02
      1     16      9       1        9    2.0000E+02
      1     16     10       1       10    2.0000E+02
      1     16     11       1       11    2.0000E+02
      1     16     12       1       12    2.0000E+02
      1     15     13       1       13    2.0000E+02
      1     14     14       1       14    2.0000E+02
      1     13     15       1       15    2.0000E+02
      1     12     16       1       16    2.0000E+02
      1     12     17       1       17    2.0000E+02
      1     12     18       1       18    2.0000E+02
      1     12     19       1       19    2.0000E+02
      1     13     20       1       20    2.0000E+02
      1     14     21       1       21    2.0000E+02
      1     14     22       1       22    2.0000E+02
      1      9     30       2        1    2.0000E+02
      1      9     29       2        2    2.0000E+02
      1      9     28       2        3    2.0000E+02
      1      9     27       2        4    2.0000E+02
      1     10     26       2        5    2.0000E+02
      1     11     25       2        6    2.0000E+02
      1     12     24       2        7    2.0000E+02
      1     13     23       2        8    2.0000E+02
      1     14     22       2        9    2.0000E+02
      1     14     22       3        1    2.0000E+02
      1     15     23       3        2    2.0000E+02
      1     15     24       3        3    2.0000E+02
      1     15     25       3        4    2.0000E+02
      1     15     26       3        5    2.0000E+02
      1     16     27       3        6    2.0000E+02
      1     17     28       3        7    2.0000E+02
      1     18     29       3        8    2.0000E+02
      1     18     30       3        9    2.0000E+02




 PCG -- CONJUGATE-GRADIENT SOLUTION PACKAGE, VERSION 7, 5/2/2005
 MAXIMUM OF    500 CALLS OF SOLUTION ROUTINE
 MAXIMUM OF      5 INTERNAL ITERATIONS PER CALL TO SOLUTION ROUTINE
 MATRIX PRECONDITIONING TYPE :    1



                                    SOLUTION BY THE CONJUGATE-GRADIENT METHOD
                                   -------------------------------------------
                    MAXIMUM NUMBER OF CALLS TO PCG ROUTINE =      500
                        MAXIMUM ITERATIONS PER CALL TO PCG =        5
                               MATRIX PRECONDITIONING TYPE =        1
        RELAXATION FACTOR (ONLY USED WITH PRECOND. TYPE 1) =    0.10000E+01
 PARAMETER OF POLYNOMIAL PRECOND. = 2 (2) OR IS CALCULATED :        0
                         HEAD CHANGE CRITERION FOR CLOSURE =    0.10000E-05
                     RESIDUAL CHANGE CRITERION FOR CLOSURE =    0.10000E+01
            PCG HEAD AND RESIDUAL CHANGE PRINTOUT INTERVAL =        1
     PRINTING FROM SOLVER IS LIMITED(1) OR SUPPRESSED (>1) =        1
                            STEADY-STATE DAMPING PARAMETER =    0.10000E+01
                               TRANSIENT DAMPING PARAMETER =    0.10000E+01
1
                            STRESS PERIOD NO.    1, LENGTH =   92.00000    
                            -----------------------------------------------

                              NUMBER OF TIME STEPS =     1

                               MULTIPLIER FOR DELT =     1.500

                            INITIAL TIME STEP SIZE =   92.00000    

 WELL NO.  LAYER   ROW   COL   STRESS RATE         
 --------------------------------------------------
      1      1      5     14      -8335.    
      2      1     14     19     -0.1115E+05
      3      1     20     20      -8343.    
      4      1      5     29     -0.1225E+05

      4 WELLS

                 RECHARGE =  5.000000E-04



 CLASSIFICATION & COUNT OF STREAM SEGMENTS BASED ON SOURCE OF INFLOW:

                HEADWATER     DIVERSION     RECEIVES TRIBUTARY FLOW
                ---------     ---------     -----------------------
                     2              0               1



                    INPUT DATA FOR EACH STREAM SEGMENT
 ---------------------------------------------------------------------------------------------

 SEGMENT    SEG.     INFLOW   OVERLAND   STREAM    STREAM   ICALC  OUTFLOW  DIVERSION PRIORITY
    NO.    LENGTH     RATE     RUNOFF      ET       PPT.    METH.  TO SEG.  FROM SEG.    NO.

      1  4.400E+03 1.000E+05 0.000E+00 0.000E+00 0.000E+00    1        3        0        0
      2  1.800E+03 5.000E+04 0.000E+00 0.000E+00 0.000E+00    1        3        0        0
      3  1.800E+03 0.000E+00 0.000E+00 0.000E+00 0.000E+00    1        0        0        0


         STREAMBED PROPERTIES AND STREAM DIMENSIONS

 SEGMENT     BED HYD. COND.      BED THICKNESS     ELEV.-TOP OF BED     WIDTH OF STREAM     DEPTH OF STREAM    STREAM ROUGHNESS
    No.     UPPER     LOWER     UPPER     LOWER     UPPER     LOWER     UPPER     LOWER     UPPER     LOWER   CHANNEL      BANK

     1  5.000E+00 5.000E+00 1.000E+00 1.000E+00 4.850E+01 3.800E+01 2.000E+01 2.000E+01                     5.000E-02
     2  5.000E+00 5.000E+00 1.000E+00 1.000E+00 4.025E+01 3.800E+01 2.000E+01 2.000E+01                     5.000E-02
     3  5.000E+00 5.000E+00 1.000E+00 1.000E+00 3.800E+01 3.000E+01 2.000E+01 2.000E+01                     5.000E-02



 
 SOLVING FOR HEAD 


     9 CALLS TO PCG ROUTINE FOR TIME STEP   1 IN STRESS PERIOD    1
    36 TOTAL ITERATIONS

 OUTPUT CONTROL FOR STRESS PERIOD    1   TIME STEP    1
    SAVE BUDGET
    SAVE HEAD FOR ALL LAYERS
    PRINT HEAD FOR ALL LAYERS
 UBDSV2 SAVING "STREAMFLOW OUT  " ON UNIT  50 AT TIME STEP  1, STRESS PERIOD   1



 STREAM LISTING     PERIOD      1   STEP        1

 LAYER ROW COL. STREAM  RCH.  FLOW INTO     FLOW TO   FLOW OUT OF   OVRLND.     DIRECT     STREAM       STREAM     STREAM     STREAM   STREAMBED  STREAMBED
                SEG.NO.  NO.  STRM. RCH.    AQUIFER    STRM. RCH.    RUNOFF     PRECIP       ET          HEAD       DEPTH      WIDTH   CONDCTNC.   GRADIENT

   1   13    1     1     1    1.0000E+05 -6.1014E+03   1.0610E+05  0.000E+00  0.000E+00  0.000E+00  4.84086E+01  1.473E-01  2.000E+01  2.000E+04 -3.051E-01
   1   13    2     1     2    1.0610E+05 -7.5703E+03   1.1367E+05  0.000E+00  0.000E+00  0.000E+00  4.79372E+01  1.531E-01  2.000E+01  2.000E+04 -3.785E-01
   1   14    3     1     3    1.1367E+05 -2.1974E+03   1.1587E+05  0.000E+00  0.000E+00  0.000E+00  4.74639E+01  1.571E-01  2.000E+01  2.000E+04 -1.099E-01
   1   15    4     1     4    1.1587E+05 -2.2686E+03   1.1814E+05  0.000E+00  0.000E+00  0.000E+00  4.69885E+01  1.589E-01  2.000E+01  2.000E+04 -1.134E-01
   1   16    5     1     5    1.1814E+05 -7.1712E+03   1.2531E+05  0.000E+00  0.000E+00  0.000E+00  4.65150E+01  1.628E-01  2.000E+01  2.000E+04 -3.586E-01
   1   16    6     1     6    1.2531E+05 -4.2912E+03   1.2960E+05  0.000E+00  0.000E+00  0.000E+00  4.60423E+01  1.673E-01  2.000E+01  2.000E+04 -2.146E-01
   1   16    7     1     7    1.2960E+05 -4.1215E+03   1.3372E+05  0.000E+00  0.000E+00  0.000E+00  4.55683E+01  1.706E-01  2.000E+01  2.000E+04 -2.061E-01
   1   16    8     1     8    1.3372E+05 -4.0733E+03   1.3779E+05  0.000E+00  0.000E+00  0.000E+00  4.50942E+01  1.738E-01  2.000E+01  2.000E+04 -2.037E-01
   1   16    9     1     9    1.3779E+05 -4.0515E+03   1.4185E+05  0.000E+00  0.000E+00  0.000E+00  4.46201E+01  1.769E-01  2.000E+01  2.000E+04 -2.026E-01
   1   16   10     1    10    1.4185E+05 -4.0309E+03   1.4588E+05  0.000E+00  0.000E+00  0.000E+00  4.41458E+01  1.799E-01  2.000E+01  2.000E+04 -2.015E-01
   1   16   11     1    11    1.4588E+05 -4.0330E+03   1.4991E+05  0.000E+00  0.000E+00  0.000E+00  4.36716E+01  1.829E-01  2.000E+01  2.000E+04 -2.016E-01
   1   16   12     1    12    1.4991E+05 -6.7178E+03   1.5663E+05  0.000E+00  0.000E+00  0.000E+00  4.31983E+01  1.869E-01  2.000E+01  2.000E+04 -3.359E-01
   1   15   13     1    13    1.5663E+05 -6.9435E+03   1.6357E+05  0.000E+00  0.000E+00  0.000E+00  4.27259E+01  1.918E-01  2.000E+01  2.000E+04 -3.472E-01
   1   14   14     1    14    1.6357E+05 -7.2844E+03   1.7086E+05  0.000E+00  0.000E+00  0.000E+00  4.22537E+01  1.969E-01  2.000E+01  2.000E+04 -3.642E-01
   1   13   15     1    15    1.7086E+05 -7.4617E+03   1.7832E+05  0.000E+00  0.000E+00  0.000E+00  4.17816E+01  2.021E-01  2.000E+01  2.000E+04 -3.731E-01
   1   12   16     1    16    1.7832E+05 -8.2217E+03   1.8654E+05  0.000E+00  0.000E+00  0.000E+00  4.13098E+01  2.075E-01  2.000E+01  2.000E+04 -4.111E-01
   1   12   17     1    17    1.8654E+05 -5.5238E+03   1.9206E+05  0.000E+00  0.000E+00  0.000E+00  4.08371E+01  2.121E-01  2.000E+01  2.000E+04 -2.762E-01
   1   12   18     1    18    1.9206E+05 -4.9966E+03   1.9706E+05  0.000E+00  0.000E+00  0.000E+00  4.03634E+01  2.157E-01  2.000E+01  2.000E+04 -2.498E-01
   1   12   19     1    19    1.9706E+05 -6.1851E+03   2.0324E+05  0.000E+00  0.000E+00  0.000E+00  3.98898E+01  2.194E-01  2.000E+01  2.000E+04 -3.093E-01
   1   13   20     1    20    2.0324E+05 -3.9876E+03   2.0723E+05  0.000E+00  0.000E+00  0.000E+00  3.94159E+01  2.227E-01  2.000E+01  2.000E+04 -1.994E-01
   1   14   21     1    21    2.0723E+05 -4.1740E+03   2.1141E+05  0.000E+00  0.000E+00  0.000E+00  3.89412E+01  2.253E-01  2.000E+01  2.000E+04 -2.087E-01
   1   14   22     1    22    2.1141E+05  3.8610E+03   2.0755E+05  0.000E+00  0.000E+00  0.000E+00  3.84641E+01  2.254E-01  2.000E+01  2.000E+04  1.931E-01
   1    9   30     2     1    5.0000E+04 -3.5199E+03   5.3520E+04  0.000E+00  0.000E+00  0.000E+00  4.02433E+01  1.183E-01  2.000E+01  2.000E+04 -1.760E-01
   1    9   29     2     2    5.3520E+04 -3.8821E+03   5.7402E+04  0.000E+00  0.000E+00  0.000E+00  3.99983E+01  1.233E-01  2.000E+01  2.000E+04 -1.941E-01
   1    9   28     2     3    5.7402E+04 -4.3416E+03   6.1744E+04  0.000E+00  0.000E+00  0.000E+00  3.97537E+01  1.287E-01  2.000E+01  2.000E+04 -2.171E-01
   1    9   27     2     4    6.1744E+04 -7.1395E+03   6.8883E+04  0.000E+00  0.000E+00  0.000E+00  3.95110E+01  1.360E-01  2.000E+01  2.000E+04 -3.570E-01
   1   10   26     2     5    6.8883E+04 -6.8938E+03   7.5777E+04  0.000E+00  0.000E+00  0.000E+00  3.92696E+01  1.446E-01  2.000E+01  2.000E+04 -3.447E-01
   1   11   25     2     6    7.5777E+04 -6.5569E+03   8.2334E+04  0.000E+00  0.000E+00  0.000E+00  3.90275E+01  1.525E-01  2.000E+01  2.000E+04 -3.278E-01
   1   12   24     2     7    8.2334E+04 -6.1472E+03   8.8481E+04  0.000E+00  0.000E+00  0.000E+00  3.87848E+01  1.598E-01  2.000E+01  2.000E+04 -3.074E-01
   1   13   23     2     8    8.8481E+04 -1.6307E+03   9.0112E+04  0.000E+00  0.000E+00  0.000E+00  3.85391E+01  1.641E-01  2.000E+01  2.000E+04 -8.153E-02
   1   14   22     2     9    9.0112E+04  3.7532E+02   8.9736E+04  0.000E+00  0.000E+00  0.000E+00  3.82898E+01  1.648E-01  2.000E+01  2.000E+04  1.877E-02
   1   14   22     3     1    2.9728E+05 -9.6487E+03   3.0693E+05  0.000E+00  0.000E+00  0.000E+00  3.77886E+01  2.330E-01  2.000E+01  2.000E+04 -4.824E-01
   1   15   23     3     2    3.0693E+05 -1.8268E+03   3.0876E+05  0.000E+00  0.000E+00  0.000E+00  3.69023E+01  2.357E-01  2.000E+01  2.000E+04 -9.134E-02
   1   15   24     3     3    3.0876E+05 -1.5035E+03   3.1026E+05  0.000E+00  0.000E+00  0.000E+00  3.60142E+01  2.364E-01  2.000E+01  2.000E+04 -7.518E-02
   1   15   25     3     4    3.1026E+05 -1.5667E+03   3.1183E+05  0.000E+00  0.000E+00  0.000E+00  3.51260E+01  2.371E-01  2.000E+01  2.000E+04 -7.833E-02
   1   15   26     3     5    3.1183E+05 -1.8767E+03   3.1370E+05  0.000E+00  0.000E+00  0.000E+00  3.42379E+01  2.379E-01  2.000E+01  2.000E+04 -9.384E-02
   1   16   27     3     6    3.1370E+05 -2.1533E+03   3.1586E+05  0.000E+00  0.000E+00  0.000E+00  3.33500E+01  2.388E-01  2.000E+01  2.000E+04 -1.077E-01
   1   17   28     3     7    3.1586E+05 -6.5193E+03   3.2238E+05  0.000E+00  0.000E+00  0.000E+00  3.24630E+01  2.408E-01  2.000E+01  2.000E+04 -3.260E-01
   1   18   29     3     8    3.2238E+05 -7.8529E+03   3.3023E+05  0.000E+00  0.000E+00  0.000E+00  3.15774E+01  2.440E-01  2.000E+01  2.000E+04 -3.926E-01
   1   18   30     3     9    3.3023E+05 -7.0930E+03   3.3732E+05  0.000E+00  0.000E+00  0.000E+00  3.06918E+01  2.474E-01  2.000E+01  2.000E+04 -3.547E-01



1
              HEAD IN LAYER   1 AT END OF TIME STEP   1 IN STRESS PERIOD    1
  ---------------------------------------------------------------------------

          1      2      3      4      5      6      7      8      9     10
         11     12     13     14     15     16     17     18     19     20
         21     22     23     24     25     26     27     28     29     30
 .........................................................................
   1  ****** ****** ****** ****** ****** ****** ****** ****** ****** ******
      ****** ****** ****** ****** ****** ****** ****** ****** ****** ******
      ****** ****** ****** ****** ****** ****** ****** ****** ****** ******
   2  ****** ****** ****** ****** ****** ****** ****** ****** ****** ******
      ****** ****** ****** ****** ****** ****** ****** ****** ****** ******
      ****** ****** ****** ****** ****** ****** ****** ****** ****** ******
   3  ****** ****** ****** ****** ****** ****** ****** ****** ****** ******
      ****** ****** ****** ****** ****** ****** ****** ****** ****** ******
      ****** ****** ****** ****** ****** ****** ****** ****** ****** ******
   4  ****** ****** ****** ****** ****** ****** ****** ****** ****** ******
      ****** ****** ****** ****** ****** ****** ****** ****** ****** ******
      ****** ****** ****** ****** ****** ****** ****** ****** ****** ******
   5  ****** ****** ****** ****** ****** ****** ****** ****** ****** ******
      ****** ****** ****** ****** ****** ****** ****** ****** ****** ******
      ****** ****** ****** ****** ****** ****** ****** ****** ****** ******
   6  ****** ****** ****** ****** ****** ****** ****** ****** ****** ******
      ****** ****** ****** ****** ****** ****** ****** ****** ****** ******
      ****** ****** ****** ****** ****** ****** ****** ****** ****** ******
   7  ****** ****** ****** ****** ****** ****** ****** ****** ****** ******
      ****** ****** ****** ****** ****** ****** ****** ****** ****** ******
      ****** ****** ****** ****** ****** ****** ****** ****** ****** ******
   8  ****** ****** ****** ****** ****** ****** ****** ****** ****** ******
      ****** ****** ****** ****** ****** ****** ****** ****** ****** ******
      ****** ****** ****** ****** ****** ****** ****** ****** ****** ******
   9  ****** ****** ****** ****** ****** ****** ****** ****** ****** ******
      ****** ****** ****** ****** ****** ****** ****** ****** ****** ******
      ****** ****** ****** ****** ****** ****** ****** ****** ****** ******
  10  ****** ****** ****** ****** ****** ****** ****** ****** ****** ******
      ****** ****** ****** ****** ****** ****** ****** ****** ****** ******
      ****** ****** ****** ****** ****** ****** ****** ****** ****** ******
  11  ****** ****** ****** ****** ****** ****** ****** ****** ****** ******
      ****** ****** ****** ****** ****** ****** ****** ****** ****** ******
      ****** ****** ****** ****** ****** ****** ****** ****** ****** ******
  12  ****** ****** ****** ****** ****** ****** ****** ****** ****** ******
      ****** ****** ****** ****** ****** ****** ****** ****** ****** ******
      ****** ****** ****** ****** ****** ****** ****** ****** ****** ******
  13  ****** ****** ****** ****** ****** ****** ****** ****** ****** ******
      ****** ****** ****** ****** ****** ****** ****** ****** ****** ******
      ****** ****** ****** ****** ****** ****** ****** ****** ****** ******
  14  ****** ****** ****** ****** ****** ****** ****** ****** ****** ******
      ****** ****** ****** ****** ****** ****** ****** ****** ****** ******
      ****** ****** ****** ****** ****** ****** ****** ****** ****** ******
  15  ****** ****** ****** ****** ****** ****** ****** ****** ****** ******
      ****** ****** ****** ****** ****** ****** ****** ****** ****** ******
      ****** ****** ****** ****** ****** ****** ****** ****** ****** ******
  16  ****** ****** ****** ****** ****** ****** ****** ****** ****** ******
      ****** ****** ****** ****** ****** ****** ****** ****** ****** ******
      ****** ****** ****** ****** ****** ****** ****** ****** ****** ******
  17  ****** ****** ****** ****** ****** ****** ****** ****** ****** ******
      ****** ****** ****** ****** ****** ****** ****** ****** ****** ******
      ****** ****** ****** ****** ****** ****** ****** ****** ****** ******
  18  ****** ****** ****** ****** ****** ****** ****** ****** ****** ******
      ****** ****** ****** ****** ****** ****** ****** ****** ****** ******
      ****** ****** ****** ****** ****** ****** ****** ****** ****** ******
  19  ****** ****** ****** ****** ****** ****** ****** ****** ****** ******
      ****** ****** ****** ****** ****** ****** ****** ****** ****** ******
      ****** ****** ****** ****** ****** ****** ****** ****** ****** ******
  20  ****** ****** ****** ****** ****** ****** ****** ****** ****** ******
      ****** ****** ****** ****** ****** ****** ****** ****** ****** ******
      ****** ****** ****** ****** ****** ****** ****** ****** ****** ******
  21  ****** ****** ****** ****** ****** ****** ****** ****** ****** ******
      ****** ****** ****** ****** ****** ****** ****** ****** ****** ******
      ****** ****** ****** ****** ****** ****** ****** ****** ****** ******
  22  ****** ****** ****** ****** ****** ****** ****** ****** ****** ******
      ****** ****** ****** ****** ****** ****** ****** ****** ****** ******
      ****** ****** ****** ****** ****** ****** ****** ****** ****** ******
  23  ****** ****** ****** ****** ****** ****** ****** ****** ****** ******
      ****** ****** ****** ****** ****** ****** ****** ****** ****** ******
      ****** ****** ****** ****** ****** ****** ****** ****** ****** ******
  24  ****** ****** ****** ****** ****** ****** ****** ****** ****** ******
      ****** ****** ****** ****** ****** ****** ****** ****** ****** ******
      ****** ****** ****** ****** ****** ****** ****** ****** ****** ******
  25  ****** ****** ****** ****** ****** ****** ****** ****** ****** ******
      ****** ****** ****** ****** ****** ****** ****** ****** ****** ******
      ****** ****** ****** ****** ****** ****** ****** ****** ****** ******

 HEAD WILL BE SAVED ON UNIT   51 AT END OF TIME STEP    1, STRESS PERIOD    1
1
  VOLUMETRIC BUDGET FOR ENTIRE MODEL AT END OF TIME STEP    1, STRESS PERIOD   1
  ------------------------------------------------------------------------------

     CUMULATIVE VOLUMES      L**3       RATES FOR THIS TIME STEP      L**3/T
     ------------------                 ------------------------

           IN:                                      IN:
           ---                                      ---
             STORAGE =    18396207.3492               STORAGE =      199958.7755
       CONSTANT HEAD =     1255038.1994         CONSTANT HEAD =       13641.7196
               WELLS =           0.0000                 WELLS =           0.0000
            RECHARGE =     1269600.0000              RECHARGE =       13800.0000
      STREAM LEAKAGE =      389744.3567        STREAM LEAKAGE =        4236.3517

            TOTAL IN =    21310589.9053              TOTAL IN =      231636.8468

          OUT:                                     OUT:
          ----                                     ----
             STORAGE =           0.0000               STORAGE =           0.0000
       CONSTANT HEAD =           0.0000         CONSTANT HEAD =           0.0000
               WELLS =     3687133.8335                 WELLS =       40077.5417
            RECHARGE =           0.0000              RECHARGE =           0.0000
      STREAM LEAKAGE =    17623456.3623        STREAM LEAKAGE =      191559.3083

           TOTAL OUT =    21310590.1958             TOTAL OUT =      231636.8500

            IN - OUT =          -0.2905              IN - OUT =      -3.1571E-03

 PERCENT DISCREPANCY =          -0.00     PERCENT DISCREPANCY =          -0.00






         TIME SUMMARY AT END OF TIME STEP    1 IN STRESS PERIOD    1
                    SECONDS     MINUTES      HOURS       DAYS        YEARS
                    -----------------------------------------------------------
   TIME STEP LENGTH 7.94880E+06 1.32480E+05  2208.0      92.000     0.25188    
 STRESS PERIOD TIME 7.94880E+06 1.32480E+05  2208.0      92.000     0.25188    
         TOTAL TIME 7.94880E+06 1.32480E+05  2208.0      92.000     0.25188    
1
1
                            STRESS PERIOD NO.    2, LENGTH =   91.00000    
                            -----------------------------------------------

                              NUMBER OF TIME STEPS =     1

                               MULTIPLIER FOR DELT =     1.500

                            INITIAL TIME STEP SIZE =   91.00000    

 WELL NO.  LAYER   ROW   COL   STRESS RATE         
 --------------------------------------------------
      1      1      5     14      -8335.    
      2      1     14     19     -0.1115E+05
      3      1     20     20      -8343.    
      4      1      5     29     -0.1225E+05

      4 WELLS

                 RECHARGE =  2.000000E-03

 REUSING STREAM SEGMENT DATA FROM LAST STRESS PERIOD
 
 SOLVING FOR HEAD 


     7 CALLS TO PCG ROUTINE FOR TIME STEP   1 IN STRESS PERIOD    2
    27 TOTAL ITERATIONS

 OUTPUT CONTROL FOR STRESS PERIOD    2   TIME STEP    1
    SAVE BUDGET
    SAVE HEAD FOR ALL LAYERS
    PRINT HEAD FOR ALL LAYERS
 UBDSV2 SAVING "STREAMFLOW OUT  " ON UNIT  50 AT TIME STEP  1, STRESS PERIOD   2



 STREAM LISTING     PERIOD      2   STEP        1

 LAYER ROW COL. STREAM  RCH.  FLOW INTO     FLOW TO   FLOW OUT OF   OVRLND.     DIRECT     STREAM       STREAM     STREAM     STREAM   STREAMBED  STREAMBED
                SEG.NO.  NO.  STRM. RCH.    AQUIFER    STRM. RCH.    RUNOFF     PRECIP       ET          HEAD       DEPTH      WIDTH   CONDCTNC.   GRADIENT

   1   13    1     1     1    1.0000E+05 -3.9523E+03   1.0395E+05  0.000E+00  0.000E+00  0.000E+00  4.84077E+01  1.464E-01  2.000E+01  2.000E+04 -1.976E-01
   1   13    2     1     2    1.0395E+05 -5.2117E+03   1.0916E+05  0.000E+00  0.000E+00  0.000E+00  4.79344E+01  1.503E-01  2.000E+01  2.000E+04 -2.606E-01
   1   14    3     1     3    1.0916E+05 -1.1116E+03   1.1028E+05  0.000E+00  0.000E+00  0.000E+00  4.74597E+01  1.529E-01  2.000E+01  2.000E+04 -5.558E-02
   1   15    4     1     4    1.1028E+05 -1.1394E+03   1.1141E+05  0.000E+00  0.000E+00  0.000E+00  4.69834E+01  1.539E-01  2.000E+01  2.000E+04 -5.697E-02
   1   16    5     1     5    1.1141E+05 -4.2208E+03   1.1564E+05  0.000E+00  0.000E+00  0.000E+00  4.65084E+01  1.561E-01  2.000E+01  2.000E+04 -2.110E-01
   1   16    6     1     6    1.1564E+05 -2.4796E+03   1.1812E+05  0.000E+00  0.000E+00  0.000E+00  4.60338E+01  1.588E-01  2.000E+01  2.000E+04 -1.240E-01
   1   16    7     1     7    1.1812E+05 -2.3765E+03   1.2049E+05  0.000E+00  0.000E+00  0.000E+00  4.55585E+01  1.608E-01  2.000E+01  2.000E+04 -1.188E-01
   1   16    8     1     8    1.2049E+05 -2.3337E+03   1.2283E+05  0.000E+00  0.000E+00  0.000E+00  4.50832E+01  1.627E-01  2.000E+01  2.000E+04 -1.167E-01
   1   16    9     1     9    1.2283E+05 -2.2925E+03   1.2512E+05  0.000E+00  0.000E+00  0.000E+00  4.46077E+01  1.646E-01  2.000E+01  2.000E+04 -1.146E-01
   1   16   10     1    10    1.2512E+05 -2.2369E+03   1.2735E+05  0.000E+00  0.000E+00  0.000E+00  4.41323E+01  1.664E-01  2.000E+01  2.000E+04 -1.118E-01
   1   16   11     1    11    1.2735E+05 -2.1869E+03   1.2954E+05  0.000E+00  0.000E+00  0.000E+00  4.36567E+01  1.681E-01  2.000E+01  2.000E+04 -1.093E-01
   1   16   12     1    12    1.2954E+05 -3.6461E+03   1.3319E+05  0.000E+00  0.000E+00  0.000E+00  4.31817E+01  1.704E-01  2.000E+01  2.000E+04 -1.823E-01
   1   15   13     1    13    1.3319E+05 -3.5047E+03   1.3669E+05  0.000E+00  0.000E+00  0.000E+00  4.27072E+01  1.731E-01  2.000E+01  2.000E+04 -1.752E-01
   1   14   14     1    14    1.3669E+05 -3.6937E+03   1.4039E+05  0.000E+00  0.000E+00  0.000E+00  4.22327E+01  1.759E-01  2.000E+01  2.000E+04 -1.847E-01
   1   13   15     1    15    1.4039E+05 -3.8532E+03   1.4424E+05  0.000E+00  0.000E+00  0.000E+00  4.17583E+01  1.788E-01  2.000E+01  2.000E+04 -1.927E-01
   1   12   16     1    16    1.4424E+05 -4.8156E+03   1.4906E+05  0.000E+00  0.000E+00  0.000E+00  4.12843E+01  1.820E-01  2.000E+01  2.000E+04 -2.408E-01
   1   12   17     1    17    1.4906E+05 -2.8098E+03   1.5187E+05  0.000E+00  0.000E+00  0.000E+00  4.08098E+01  1.848E-01  2.000E+01  2.000E+04 -1.405E-01
   1   12   18     1    18    1.5187E+05 -2.2682E+03   1.5413E+05  0.000E+00  0.000E+00  0.000E+00  4.03344E+01  1.867E-01  2.000E+01  2.000E+04 -1.134E-01
   1   12   19     1    19    1.5413E+05 -2.8256E+03   1.5696E+05  0.000E+00  0.000E+00  0.000E+00  3.98590E+01  1.886E-01  2.000E+01  2.000E+04 -1.413E-01
   1   13   20     1    20    1.5696E+05 -5.4317E+02   1.5750E+05  0.000E+00  0.000E+00  0.000E+00  3.93830E+01  1.898E-01  2.000E+01  2.000E+04 -2.716E-02
   1   14   21     1    21    1.5750E+05 -1.0231E+03   1.5853E+05  0.000E+00  0.000E+00  0.000E+00  3.89063E+01  1.903E-01  2.000E+01  2.000E+04 -5.116E-02
   1   14   22     1    22    1.5853E+05  4.7079E+03   1.5382E+05  0.000E+00  0.000E+00  0.000E+00  3.84276E+01  1.890E-01  2.000E+01  2.000E+04  2.354E-01
   1    9   30     2     1    5.0000E+04 -3.6397E+02   5.0364E+04  0.000E+00  0.000E+00  0.000E+00  4.02411E+01  1.161E-01  2.000E+01  2.000E+04 -1.820E-02
   1    9   29     2     2    5.0364E+04 -7.5651E+02   5.1120E+04  0.000E+00  0.000E+00  0.000E+00  3.99919E+01  1.169E-01  2.000E+01  2.000E+04 -3.783E-02
   1    9   28     2     3    5.1120E+04 -1.2602E+03   5.2381E+04  0.000E+00  0.000E+00  0.000E+00  3.97433E+01  1.183E-01  2.000E+01  2.000E+04 -6.301E-02
   1    9   27     2     4    5.2381E+04 -3.1833E+03   5.5564E+04  0.000E+00  0.000E+00  0.000E+00  3.94963E+01  1.213E-01  2.000E+01  2.000E+04 -1.592E-01
   1   10   26     2     5    5.5564E+04 -3.0643E+03   5.8628E+04  0.000E+00  0.000E+00  0.000E+00  3.92505E+01  1.255E-01  2.000E+01  2.000E+04 -1.532E-01
   1   11   25     2     6    5.8628E+04 -2.9776E+03   6.1606E+04  0.000E+00  0.000E+00  0.000E+00  3.90044E+01  1.294E-01  2.000E+01  2.000E+04 -1.489E-01
   1   12   24     2     7    6.1606E+04 -2.9649E+03   6.4571E+04  0.000E+00  0.000E+00  0.000E+00  3.87582E+01  1.332E-01  2.000E+01  2.000E+04 -1.482E-01
   1   13   23     2     8    6.4571E+04 -5.7597E+02   6.5147E+04  0.000E+00  0.000E+00  0.000E+00  3.85104E+01  1.354E-01  2.000E+01  2.000E+04 -2.880E-02
   1   14   22     2     9    6.5147E+04  1.3541E+03   6.3793E+04  0.000E+00  0.000E+00  0.000E+00  3.82600E+01  1.350E-01  2.000E+01  2.000E+04  6.770E-02
   1   14   22     3     1    2.1761E+05 -8.8596E+03   2.2647E+05  0.000E+00  0.000E+00  0.000E+00  3.77493E+01  1.937E-01  2.000E+01  2.000E+04 -4.430E-01
   1   15   23     3     2    2.2647E+05 -8.1205E+02   2.2728E+05  0.000E+00  0.000E+00  0.000E+00  3.68629E+01  1.962E-01  2.000E+01  2.000E+04 -4.060E-02
   1   15   24     3     3    2.2728E+05 -6.1483E+02   2.2790E+05  0.000E+00  0.000E+00  0.000E+00  3.59744E+01  1.966E-01  2.000E+01  2.000E+04 -3.074E-02
   1   15   25     3     4    2.2790E+05 -6.4353E+02   2.2854E+05  0.000E+00  0.000E+00  0.000E+00  3.50858E+01  1.969E-01  2.000E+01  2.000E+04 -3.218E-02
   1   15   26     3     5    2.2854E+05 -7.5863E+02   2.2930E+05  0.000E+00  0.000E+00  0.000E+00  3.41973E+01  1.973E-01  2.000E+01  2.000E+04 -3.793E-02
   1   16   27     3     6    2.2930E+05 -8.7248E+02   2.3017E+05  0.000E+00  0.000E+00  0.000E+00  3.33088E+01  1.977E-01  2.000E+01  2.000E+04 -4.362E-02
   1   17   28     3     7    2.3017E+05 -3.1315E+03   2.3330E+05  0.000E+00  0.000E+00  0.000E+00  3.24210E+01  1.987E-01  2.000E+01  2.000E+04 -1.566E-01
   1   18   29     3     8    2.3330E+05 -4.7657E+03   2.3807E+05  0.000E+00  0.000E+00  0.000E+00  3.15341E+01  2.008E-01  2.000E+01  2.000E+04 -2.383E-01
   1   18   30     3     9    2.3807E+05 -4.5150E+03   2.4258E+05  0.000E+00  0.000E+00  0.000E+00  3.06476E+01  2.031E-01  2.000E+01  2.000E+04 -2.258E-01



1
              HEAD IN LAYER   1 AT END OF TIME STEP   1 IN STRESS PERIOD    2
  ---------------------------------------------------------------------------

          1      2      3      4      5      6      7      8      9     10
         11     12     13     14     15     16     17     18     19     20
         21     22     23     24     25     26     27     28     29     30
 .........................................................................
   1  ****** ****** ****** ****** ****** ****** ****** ****** ****** ******
      ****** ****** ****** ****** ****** ****** ****** ****** ****** ******
      ****** ****** ****** ****** ****** ****** ****** ****** ****** ******
   2  ****** ****** ****** ****** ****** ****** ****** ****** ****** ******
      ****** ****** ****** ****** ****** ****** ****** ****** ****** ******
      ****** ****** ****** ****** ****** ****** ****** ****** ****** ******
   3  ****** ****** ****** ****** ****** ****** ****** ****** ****** ******
      ****** ****** ****** ****** ****** ****** ****** ****** ****** ******
      ****** ****** ****** ****** ****** ****** ****** ****** ****** ******
   4  ****** ****** ****** ****** ****** ****** ****** ****** ****** ******
      ****** ****** ****** ****** ****** ****** ****** ****** ****** ******
      ****** ****** ****** ****** ****** ****** ****** ****** ****** ******
   5  ****** ****** ****** ****** ****** ****** ****** ****** ****** ******
      ****** ****** ****** ****** ****** ****** ****** ****** ****** ******
      ****** ****** ****** ****** ****** ****** ****** ****** ****** ******
   6  ****** ****** ****** ****** ****** ****** ****** ****** ****** ******
      ****** ****** ****** ****** ****** ****** ****** ****** ****** ******
      ****** ****** ****** ****** ****** ****** ****** ****** ****** ******
   7  ****** ****** ****** ****** ****** ****** ****** ****** ****** ******
      ****** ****** ****** ****** ****** ****** ****** ****** ****** ******
      ****** ****** ****** ****** ****** ****** ****** ****** ****** ******
   8  ****** ****** ****** ****** ****** ****** ****** ****** ****** ******
      ****** ****** ****** ****** ****** ****** ****** ****** ****** ******
      ****** ****** ****** ****** ****** ****** ****** ****** ****** ******
   9  ****** ****** ****** ****** ****** ****** ****** ****** ****** ******
      ****** ****** ****** ****** ****** ****** ****** ****** ****** ******
      ****** ****** ****** ****** ****** ****** ****** ****** ****** ******
  10  ****** ****** ****** ****** ****** ****** ****** ****** ****** ******
      ****** ****** ****** ****** ****** ****** ****** ****** ****** ******
      ****** ****** ****** ****** ****** ****** ****** ****** ****** ******
  11  ****** ****** ****** ****** ****** ****** ****** ****** ****** ******
      ****** ****** ****** ****** ****** ****** ****** ****** ****** ******
      ****** ****** ****** ****** ****** ****** ****** ****** ****** ******
  12  ****** ****** ****** ****** ****** ****** ****** ****** ****** ******
      ****** ****** ****** ****** ****** ****** ****** ****** ****** ******
      ****** ****** ****** ****** ****** ****** ****** ****** ****** ******
  13  ****** ****** ****** ****** ****** ****** ****** ****** ****** ******
      ****** ****** ****** ****** ****** ****** ****** ****** ****** ******
      ****** ****** ****** ****** ****** ****** ****** ****** ****** ******
  14  ****** ****** ****** ****** ****** ****** ****** ****** ****** ******
      ****** ****** ****** ****** ****** ****** ****** ****** ****** ******
      ****** ****** ****** ****** ****** ****** ****** ****** ****** ******
  15  ****** ****** ****** ****** ****** ****** ****** ****** ****** ******
      ****** ****** ****** ****** ****** ****** ****** ****** ****** ******
      ****** ****** ****** ****** ****** ****** ****** ****** ****** ******
  16  ****** ****** ****** ****** ****** ****** ****** ****** ****** ******
      ****** ****** ****** ****** ****** ****** ****** ****** ****** ******
      ****** ****** ****** ****** ****** ****** ****** ****** ****** ******
  17  ****** ****** ****** ****** ****** ****** ****** ****** ****** ******
      ****** ****** ****** ****** ****** ****** ****** ****** ****** ******
      ****** ****** ****** ****** ****** ****** ****** ****** ****** ******
  18  ****** ****** ****** ****** ****** ****** ****** ****** ****** ******
      ****** ****** ****** ****** ****** ****** ****** ****** ****** ******
      ****** ****** ****** ****** ****** ****** ****** ****** ****** ******
  19  ****** ****** ****** ****** ****** ****** ****** ****** ****** ******
      ****** ****** ****** ****** ****** ****** ****** ****** ****** ******
      ****** ****** ****** ****** ****** ****** ****** ****** ****** ******
  20  ****** ****** ****** ****** ****** ****** ****** ****** ****** ******
      ****** ****** ****** ****** ****** ****** ****** ****** ****** ******
      ****** ****** ****** ****** ****** ****** ****** ****** ****** ******
  21  ****** ****** ****** ****** ****** ****** ****** ****** ****** ******
      ****** ****** ****** ****** ****** ****** ****** ****** ****** ******
      ****** ****** ****** ****** ****** ****** ****** ****** ****** ******
  22  ****** ****** ****** ****** ****** ****** ****** ****** ****** ******
      ****** ****** ****** ****** ****** ****** ****** ****** ****** ******
      ****** ****** ****** ****** ****** ****** ****** ****** ****** ******
  23  ****** ****** ****** ****** ****** ****** ****** ****** ****** ******
      ****** ****** ****** ****** ****** ****** ****** ****** ****** ******
      ****** ****** ****** ****** ****** ****** ****** ****** ****** ******
  24  ****** ****** ****** ****** ****** ****** ****** ****** ****** ******
      ****** ****** ****** ****** ****** ****** ****** ****** ****** ******
      ****** ****** ****** ****** ****** ****** ****** ****** ****** ******
  25  ****** ****** ****** ****** ****** ****** ****** ****** ****** ******
      ****** ****** ****** ****** ****** ****** ****** ****** ****** ******
      ****** ****** ****** ****** ****** ****** ****** ****** ****** ******

 HEAD WILL BE SAVED ON UNIT   51 AT END OF TIME STEP    1, STRESS PERIOD    2
1
  VOLUMETRIC BUDGET FOR ENTIRE MODEL AT END OF TIME STEP    1, STRESS PERIOD   2
  ------------------------------------------------------------------------------

     CUMULATIVE VOLUMES      L**3       RATES FOR THIS TIME STEP      L**3/T
     ------------------                 ------------------------

           IN:                                      IN:
           ---                                      ---
             STORAGE =    23712967.6246               STORAGE =       58425.9371
       CONSTANT HEAD =     2987210.3434         CONSTANT HEAD =       19034.8587
               WELLS =           0.0000                 WELLS =           0.0000
            RECHARGE =     6292800.0000              RECHARGE =       55200.0000
      STREAM LEAKAGE =      941385.1132        STREAM LEAKAGE =        6061.9863

            TOTAL IN =    33934363.0812              TOTAL IN =      138722.7822

          OUT:                                     OUT:
          ----                                     ----
             STORAGE =           0.0000               STORAGE =           0.0000
       CONSTANT HEAD =           0.0000         CONSTANT HEAD =           0.0000
               WELLS =     7334190.1253                 WELLS =       40077.5417
            RECHARGE =           0.0000              RECHARGE =           0.0000
      STREAM LEAKAGE =    26600174.2315        STREAM LEAKAGE =       98645.2513

           TOTAL OUT =    33934364.3568             TOTAL OUT =      138722.7930

            IN - OUT =          -1.2756              IN - OUT =      -1.0826E-02

 PERCENT DISCREPANCY =          -0.00     PERCENT DISCREPANCY =          -0.00






         TIME SUMMARY AT END OF TIME STEP    1 IN STRESS PERIOD    2
                    SECONDS     MINUTES      HOURS       DAYS        YEARS
                    -----------------------------------------------------------
   TIME STEP LENGTH 7.86240E+06 1.31040E+05  2184.0      91.000     0.24914    
 STRESS PERIOD TIME 7.86240E+06 1.31040E+05  2184.0      91.000     0.24914    
         TOTAL TIME 1.58112E+07 2.63520E+05  4392.0      183.00     0.50103    
1
1
                            STRESS PERIOD NO.    3, LENGTH =   91.00000    
                            -----------------------------------------------

                              NUMBER OF TIME STEPS =     1

                               MULTIPLIER FOR DELT =     1.500

                            INITIAL TIME STEP SIZE =   91.00000    

 WELL NO.  LAYER   ROW   COL   STRESS RATE         
 --------------------------------------------------
      1      1      5     14      -8335.    
      2      1     14     19     -0.1115E+05
      3      1     20     20      -8343.    
      4      1      5     29     -0.1225E+05

      4 WELLS

                 RECHARGE =   0.00000    

 REUSING STREAM SEGMENT DATA FROM LAST STRESS PERIOD
 
 SOLVING FOR HEAD 


     7 CALLS TO PCG ROUTINE FOR TIME STEP   1 IN STRESS PERIOD    3
    27 TOTAL ITERATIONS

 OUTPUT CONTROL FOR STRESS PERIOD    3   TIME STEP    1
    SAVE BUDGET
    SAVE HEAD FOR ALL LAYERS
    PRINT HEAD FOR ALL LAYERS
 UBDSV2 SAVING "STREAMFLOW OUT  " ON UNIT  50 AT TIME STEP  1, STRESS PERIOD   3



 STREAM LISTING     PERIOD      3   STEP        1

 LAYER ROW COL. STREAM  RCH.  FLOW INTO     FLOW TO   FLOW OUT OF   OVRLND.     DIRECT     STREAM       STREAM     STREAM     STREAM   STREAMBED  STREAMBED
                SEG.NO.  NO.  STRM. RCH.    AQUIFER    STRM. RCH.    RUNOFF     PRECIP       ET          HEAD       DEPTH      WIDTH   CONDCTNC.   GRADIENT

   1   13    1     1     1    1.0000E+05 -2.6694E+03   1.0267E+05  0.000E+00  0.000E+00  0.000E+00  4.84072E+01  1.458E-01  2.000E+01  2.000E+04 -1.335E-01
   1   13    2     1     2    1.0267E+05 -3.7728E+03   1.0644E+05  0.000E+00  0.000E+00  0.000E+00  4.79327E+01  1.486E-01  2.000E+01  2.000E+04 -1.886E-01
   1   14    3     1     3    1.0644E+05 -6.4737E+02   1.0709E+05  0.000E+00  0.000E+00  0.000E+00  4.74573E+01  1.504E-01  2.000E+01  2.000E+04 -3.237E-02
   1   15    4     1     4    1.0709E+05 -6.3116E+02   1.0772E+05  0.000E+00  0.000E+00  0.000E+00  4.69805E+01  1.510E-01  2.000E+01  2.000E+04 -3.156E-02
   1   16    5     1     5    1.0772E+05 -2.4100E+03   1.1013E+05  0.000E+00  0.000E+00  0.000E+00  4.65045E+01  1.523E-01  2.000E+01  2.000E+04 -1.205E-01
   1   16    6     1     6    1.1013E+05 -1.4643E+03   1.1160E+05  0.000E+00  0.000E+00  0.000E+00  4.60289E+01  1.539E-01  2.000E+01  2.000E+04 -7.322E-02
   1   16    7     1     7    1.1160E+05 -1.4167E+03   1.1301E+05  0.000E+00  0.000E+00  0.000E+00  4.55528E+01  1.551E-01  2.000E+01  2.000E+04 -7.083E-02
   1   16    8     1     8    1.1301E+05 -1.3879E+03   1.1440E+05  0.000E+00  0.000E+00  0.000E+00  4.50767E+01  1.562E-01  2.000E+01  2.000E+04 -6.939E-02
   1   16    9     1     9    1.1440E+05 -1.3460E+03   1.1575E+05  0.000E+00  0.000E+00  0.000E+00  4.46005E+01  1.574E-01  2.000E+01  2.000E+04 -6.730E-02
   1   16   10     1    10    1.1575E+05 -1.2836E+03   1.1703E+05  0.000E+00  0.000E+00  0.000E+00  4.41244E+01  1.584E-01  2.000E+01  2.000E+04 -6.418E-02
   1   16   11     1    11    1.1703E+05 -1.2168E+03   1.1825E+05  0.000E+00  0.000E+00  0.000E+00  4.36481E+01  1.595E-01  2.000E+01  2.000E+04 -6.084E-02
   1   16   12     1    12    1.1825E+05 -1.9304E+03   1.2018E+05  0.000E+00  0.000E+00  0.000E+00  4.31721E+01  1.607E-01  2.000E+01  2.000E+04 -9.652E-02
   1   15   13     1    13    1.2018E+05 -1.7436E+03   1.2192E+05  0.000E+00  0.000E+00  0.000E+00  4.26963E+01  1.622E-01  2.000E+01  2.000E+04 -8.718E-02
   1   14   14     1    14    1.2192E+05 -1.8742E+03   1.2379E+05  0.000E+00  0.000E+00  0.000E+00  4.22205E+01  1.637E-01  2.000E+01  2.000E+04 -9.371E-02
   1   13   15     1    15    1.2379E+05 -2.0216E+03   1.2582E+05  0.000E+00  0.000E+00  0.000E+00  4.17448E+01  1.652E-01  2.000E+01  2.000E+04 -1.011E-01
   1   12   16     1    16    1.2582E+05 -2.9125E+03   1.2873E+05  0.000E+00  0.000E+00  0.000E+00  4.12694E+01  1.672E-01  2.000E+01  2.000E+04 -1.456E-01
   1   12   17     1    17    1.2873E+05 -1.4330E+03   1.3016E+05  0.000E+00  0.000E+00  0.000E+00  4.07939E+01  1.689E-01  2.000E+01  2.000E+04 -7.165E-02
   1   12   18     1    18    1.3016E+05 -9.1292E+02   1.3107E+05  0.000E+00  0.000E+00  0.000E+00  4.03175E+01  1.698E-01  2.000E+01  2.000E+04 -4.565E-02
   1   12   19     1    19    1.3107E+05 -1.1326E+03   1.3221E+05  0.000E+00  0.000E+00  0.000E+00  3.98410E+01  1.706E-01  2.000E+01  2.000E+04 -5.663E-02
   1   13   20     1    20    1.3221E+05  1.0214E+03   1.3119E+05  0.000E+00  0.000E+00  0.000E+00  3.93638E+01  1.706E-01  2.000E+01  2.000E+04  5.107E-02
   1   14   21     1    21    1.3119E+05  6.0249E+02   1.3058E+05  0.000E+00  0.000E+00  0.000E+00  3.88859E+01  1.700E-01  2.000E+01  2.000E+04  3.012E-02
   1   14   22     1    22    1.3058E+05  5.1001E+03   1.2548E+05  0.000E+00  0.000E+00  0.000E+00  3.84064E+01  1.678E-01  2.000E+01  2.000E+04  2.550E-01
   1    9   30     2     1    5.0000E+04  9.7827E+02   4.9022E+04  0.000E+00  0.000E+00  0.000E+00  4.02402E+01  1.152E-01  2.000E+01  2.000E+04  4.891E-02
   1    9   29     2     2    4.9022E+04  5.8193E+02   4.8440E+04  0.000E+00  0.000E+00  0.000E+00  3.99891E+01  1.141E-01  2.000E+01  2.000E+04  2.910E-02
   1    9   28     2     3    4.8440E+04  9.0598E+01   4.8349E+04  0.000E+00  0.000E+00  0.000E+00  3.97386E+01  1.136E-01  2.000E+01  2.000E+04  4.530E-03
   1    9   27     2     4    4.8349E+04 -1.2389E+03   4.9588E+04  0.000E+00  0.000E+00  0.000E+00  3.94894E+01  1.144E-01  2.000E+01  2.000E+04 -6.194E-02
   1   10   26     2     5    4.9588E+04 -1.3251E+03   5.0913E+04  0.000E+00  0.000E+00  0.000E+00  3.92412E+01  1.162E-01  2.000E+01  2.000E+04 -6.626E-02
   1   11   25     2     6    5.0913E+04 -1.3840E+03   5.2297E+04  0.000E+00  0.000E+00  0.000E+00  3.89931E+01  1.181E-01  2.000E+01  2.000E+04 -6.920E-02
   1   12   24     2     7    5.2297E+04 -1.5478E+03   5.3845E+04  0.000E+00  0.000E+00  0.000E+00  3.87451E+01  1.201E-01  2.000E+01  2.000E+04 -7.739E-02
   1   13   23     2     8    5.3845E+04 -2.3142E+02   5.4076E+04  0.000E+00  0.000E+00  0.000E+00  3.84963E+01  1.213E-01  2.000E+01  2.000E+04 -1.157E-02
   1   14   22     2     9    5.4076E+04  1.8754E+03   5.2201E+04  0.000E+00  0.000E+00  0.000E+00  3.82452E+01  1.202E-01  2.000E+01  2.000E+04  9.377E-02
   1   14   22     3     1    1.7768E+05 -8.4793E+03   1.8616E+05  0.000E+00  0.000E+00  0.000E+00  3.77274E+01  1.719E-01  2.000E+01  2.000E+04 -4.240E-01
   1   15   23     3     2    1.8616E+05 -3.8767E+02   1.8655E+05  0.000E+00  0.000E+00  0.000E+00  3.68411E+01  1.744E-01  2.000E+01  2.000E+04 -1.938E-02
   1   15   24     3     3    1.8655E+05 -2.7893E+02   1.8683E+05  0.000E+00  0.000E+00  0.000E+00  3.59523E+01  1.746E-01  2.000E+01  2.000E+04 -1.395E-02
   1   15   25     3     4    1.8683E+05 -2.9482E+02   1.8712E+05  0.000E+00  0.000E+00  0.000E+00  3.50636E+01  1.747E-01  2.000E+01  2.000E+04 -1.474E-02
   1   15   26     3     5    1.8712E+05 -3.4914E+02   1.8747E+05  0.000E+00  0.000E+00  0.000E+00  3.41749E+01  1.749E-01  2.000E+01  2.000E+04 -1.746E-02
   1   16   27     3     6    1.8747E+05 -3.9646E+02   1.8787E+05  0.000E+00  0.000E+00  0.000E+00  3.32862E+01  1.751E-01  2.000E+01  2.000E+04 -1.982E-02
   1   17   28     3     7    1.8787E+05 -1.6767E+03   1.8955E+05  0.000E+00  0.000E+00  0.000E+00  3.23979E+01  1.757E-01  2.000E+01  2.000E+04 -8.384E-02
   1   18   29     3     8    1.8955E+05 -3.1534E+03   1.9270E+05  0.000E+00  0.000E+00  0.000E+00  3.15104E+01  1.770E-01  2.000E+01  2.000E+04 -1.577E-01
   1   18   30     3     9    1.9270E+05 -3.3215E+03   1.9602E+05  0.000E+00  0.000E+00  0.000E+00  3.06233E+01  1.788E-01  2.000E+01  2.000E+04 -1.661E-01



1
              HEAD IN LAYER   1 AT END OF TIME STEP   1 IN STRESS PERIOD    3
  ---------------------------------------------------------------------------

          1      2      3      4      5      6      7      8      9     10
         11     12     13     14     15     16     17     18     19     20
         21     22     23     24     25     26     27     28     29     30
 .........................................................................
   1  ****** ****** ****** ****** ****** ****** ****** ****** ****** ******
      ****** ****** ****** ****** ****** ****** ****** ****** ****** ******
      ****** ****** ****** ****** ****** ****** ****** ****** ****** ******
   2  ****** ****** ****** ****** ****** ****** ****** ****** ****** ******
      ****** ****** ****** ****** ****** ****** ****** ****** ****** ******
      ****** ****** ****** ****** ****** ****** ****** ****** ****** ******
   3  ****** ****** ****** ****** ****** ****** ****** ****** ****** ******
      ****** ****** ****** ****** ****** ****** ****** ****** ****** ******
      ****** ****** ****** ****** ****** ****** ****** ****** ****** ******
   4  ****** ****** ****** ****** ****** ****** ****** ****** ****** ******
      ****** ****** ****** ****** ****** ****** ****** ****** ****** ******
      ****** ****** ****** ****** ****** ****** ****** ****** ****** ******
   5  ****** ****** ****** ****** ****** ****** ****** ****** ****** ******
      ****** ****** ****** ****** ****** ****** ****** ****** ****** ******
      ****** ****** ****** ****** ****** ****** ****** ****** ****** ******
   6  ****** ****** ****** ****** ****** ****** ****** ****** ****** ******
      ****** ****** ****** ****** ****** ****** ****** ****** ****** ******
      ****** ****** ****** ****** ****** ****** ****** ****** ****** ******
   7  ****** ****** ****** ****** ****** ****** ****** ****** ****** ******
      ****** ****** ****** ****** ****** ****** ****** ****** ****** ******
      ****** ****** ****** ****** ****** ****** ****** ****** ****** ******
   8  ****** ****** ****** ****** ****** ****** ****** ****** ****** ******
      ****** ****** ****** ****** ****** ****** ****** ****** ****** ******
      ****** ****** ****** ****** ****** ****** ****** ****** ****** ******
   9  ****** ****** ****** ****** ****** ****** ****** ****** ****** ******
      ****** ****** ****** ****** ****** ****** ****** ****** ****** ******
      ****** ****** ****** ****** ****** ****** ****** ****** ****** ******
  10  ****** ****** ****** ****** ****** ****** ****** ****** ****** ******
      ****** ****** ****** ****** ****** ****** ****** ****** ****** ******
      ****** ****** ****** ****** ****** ****** ****** ****** ****** ******
  11  ****** ****** ****** ****** ****** ****** ****** ****** ****** ******
      ****** ****** ****** ****** ****** ****** ****** ****** ****** ******
      ****** ****** ****** ****** ****** ****** ****** ****** ****** ******
  12  ****** ****** ****** ****** ****** ****** ****** ****** ****** ******
      ****** ****** ****** ****** ****** ****** ****** ****** ****** ******
      ****** ****** ****** ****** ****** ****** ****** ****** ****** ******
  13  ****** ****** ****** ****** ****** ****** ****** ****** ****** ******
      ****** ****** ****** ****** ****** ****** ****** ****** ****** ******
      ****** ****** ****** ****** ****** ****** ****** ****** ****** ******
  14  ****** ****** ****** ****** ****** ****** ****** ****** ****** ******
      ****** ****** ****** ****** ****** ****** ****** ****** ****** ******
      ****** ****** ****** ****** ****** ****** ****** ****** ****** ******
  15  ****** ****** ****** ****** ****** ****** ****** ****** ****** ******
      ****** ****** ****** ****** ****** ****** ****** ****** ****** ******
      ****** ****** ****** ****** ****** ****** ****** ****** ****** ******
  16  ****** ****** ****** ****** ****** ****** ****** ****** ****** ******
      ****** ****** ****** ****** ****** ****** ****** ****** ****** ******
      ****** ****** ****** ****** ****** ****** ****** ****** ****** ******
  17  ****** ****** ****** ****** ****** ****** ****** ****** ****** ******
      ****** ****** ****** ****** ****** ****** ****** ****** ****** ******
      ****** ****** ****** ****** ****** ****** ****** ****** ****** ******
  18  ****** ****** ****** ****** ****** ****** ****** ****** ****** ******
      ****** ****** ****** ****** ****** ****** ****** ****** ****** ******
      ****** ****** ****** ****** ****** ****** ****** ****** ****** ******
  19  ****** ****** ****** ****** ****** ****** ****** ****** ****** ******
      ****** ****** ****** ****** ****** ****** ****** ****** ****** ******
      ****** ****** ****** ****** ****** ****** ****** ****** ****** ******
  20  ****** ****** ****** ****** ****** ****** ****** ****** ****** ******
      ****** ****** ****** ****** ****** ****** ****** ****** ****** ******
      ****** ****** ****** ****** ****** ****** ****** ****** ****** ******
  21  ****** ****** ****** ****** ****** ****** ****** ****** ****** ******
      ****** ****** ****** ****** ****** ****** ****** ****** ****** ******
      ****** ****** ****** ****** ****** ****** ****** ****** ****** ******
  22  ****** ****** ****** ****** ****** ****** ****** ****** ****** ******
      ****** ****** ****** ****** ****** ****** ****** ****** ****** ******
      ****** ****** ****** ****** ****** ****** ****** ****** ****** ******
  23  ****** ****** ****** ****** ****** ****** ****** ****** ****** ******
      ****** ****** ****** ****** ****** ****** ****** ****** ****** ******
      ****** ****** ****** ****** ****** ****** ****** ****** ****** ******
  24  ****** ****** ****** ****** ****** ****** ****** ****** ****** ******
      ****** ****** ****** ****** ****** ****** ****** ****** ****** ******
      ****** ****** ****** ****** ****** ****** ****** ****** ****** ******
  25  ****** ****** ****** ****** ****** ****** ****** ****** ****** ******
      ****** ****** ****** ****** ****** ****** ****** ****** ****** ******
      ****** ****** ****** ****** ****** ****** ****** ****** ****** ******

 HEAD WILL BE SAVED ON UNIT   51 AT END OF TIME STEP    1, STRESS PERIOD    3
1
  VOLUMETRIC BUDGET FOR ENTIRE MODEL AT END OF TIME STEP    1, STRESS PERIOD   3
  ------------------------------------------------------------------------------

     CUMULATIVE VOLUMES      L**3       RATES FOR THIS TIME STEP      L**3/T
     ------------------                 ------------------------

           IN:                                      IN:
           ---                                      ---
             STORAGE =    28987520.3038               STORAGE =       57962.1174
       CONSTANT HEAD =     5547707.7291         CONSTANT HEAD =       28137.3339
               WELLS =           0.0000                 WELLS =           0.0000
            RECHARGE =     6292800.0000              RECHARGE =           0.0000
      STREAM LEAKAGE =     1874155.1493        STREAM LEAKAGE =       10250.2202

            TOTAL IN =    42702183.1822              TOTAL IN =       96349.6714

          OUT:                                     OUT:
          ----                                     ----
             STORAGE =           0.0000               STORAGE =           0.0000
       CONSTANT HEAD =           0.0000         CONSTANT HEAD =           0.0000
               WELLS =    10981246.4171                 WELLS =       40077.5417
            RECHARGE =           0.0000              RECHARGE =           0.0000
      STREAM LEAKAGE =    31720938.7473        STREAM LEAKAGE =       56272.1375

           TOTAL OUT =    42702185.1644             TOTAL OUT =       96349.6792

            IN - OUT =          -1.9822              IN - OUT =      -7.7646E-03

 PERCENT DISCREPANCY =          -0.00     PERCENT DISCREPANCY =          -0.00






         TIME SUMMARY AT END OF TIME STEP    1 IN STRESS PERIOD    3
                    SECONDS     MINUTES      HOURS       DAYS        YEARS
                    -----------------------------------------------------------
   TIME STEP LENGTH 7.86240E+06 1.31040E+05  2184.0      91.000     0.24914    
 STRESS PERIOD TIME 7.86240E+06 1.31040E+05  2184.0      91.000     0.24914    
         TOTAL TIME 2.36736E+07 3.94560E+05  6576.0      274.00     0.75017    
1
1
                            STRESS PERIOD NO.    4, LENGTH =   91.00000    
                            -----------------------------------------------

                              NUMBER OF TIME STEPS =     1

                               MULTIPLIER FOR DELT =     1.500

                            INITIAL TIME STEP SIZE =   91.00000    

 WELL NO.  LAYER   ROW   COL   STRESS RATE         
 --------------------------------------------------
      1      1      5     14      -8335.    
      2      1     14     19     -0.1115E+05
      3      1     20     20      -8343.    
      4      1      5     29     -0.1225E+05

      4 WELLS

                 RECHARGE =  1.000000E-03

 REUSING STREAM SEGMENT DATA FROM LAST STRESS PERIOD
 
 SOLVING FOR HEAD 


     6 CALLS TO PCG ROUTINE FOR TIME STEP   1 IN STRESS PERIOD    4
    23 TOTAL ITERATIONS

 OUTPUT CONTROL FOR STRESS PERIOD    4   TIME STEP    1
    SAVE BUDGET
    SAVE HEAD FOR ALL LAYERS
    PRINT HEAD FOR ALL LAYERS
 UBDSV2 SAVING "STREAMFLOW OUT  " ON UNIT  50 AT TIME STEP  1, STRESS PERIOD   4



 STREAM LISTING     PERIOD      4   STEP        1

 LAYER ROW COL. STREAM  RCH.  FLOW INTO     FLOW TO   FLOW OUT OF   OVRLND.     DIRECT     STREAM       STREAM     STREAM     STREAM   STREAMBED  STREAMBED
                SEG.NO.  NO.  STRM. RCH.    AQUIFER    STRM. RCH.    RUNOFF     PRECIP       ET          HEAD       DEPTH      WIDTH   CONDCTNC.   GRADIENT

   1   13    1     1     1    1.0000E+05 -2.4064E+03   1.0241E+05  0.000E+00  0.000E+00  0.000E+00  4.84071E+01  1.457E-01  2.000E+01  2.000E+04 -1.203E-01
   1   13    2     1     2    1.0241E+05 -3.4689E+03   1.0588E+05  0.000E+00  0.000E+00  0.000E+00  4.79323E+01  1.482E-01  2.000E+01  2.000E+04 -1.734E-01
   1   14    3     1     3    1.0588E+05 -6.1565E+02   1.0649E+05  0.000E+00  0.000E+00  0.000E+00  4.74568E+01  1.500E-01  2.000E+01  2.000E+04 -3.078E-02
   1   15    4     1     4    1.0649E+05 -5.9007E+02   1.0708E+05  0.000E+00  0.000E+00  0.000E+00  4.69800E+01  1.505E-01  2.000E+01  2.000E+04 -2.950E-02
   1   16    5     1     5    1.0708E+05 -2.0978E+03   1.0918E+05  0.000E+00  0.000E+00  0.000E+00  4.65039E+01  1.516E-01  2.000E+01  2.000E+04 -1.049E-01
   1   16    6     1     6    1.0918E+05 -1.3080E+03   1.1049E+05  0.000E+00  0.000E+00  0.000E+00  4.60280E+01  1.530E-01  2.000E+01  2.000E+04 -6.540E-02
   1   16    7     1     7    1.1049E+05 -1.2704E+03   1.1176E+05  0.000E+00  0.000E+00  0.000E+00  4.55518E+01  1.541E-01  2.000E+01  2.000E+04 -6.352E-02
   1   16    8     1     8    1.1176E+05 -1.2441E+03   1.1300E+05  0.000E+00  0.000E+00  0.000E+00  4.50756E+01  1.551E-01  2.000E+01  2.000E+04 -6.220E-02
   1   16    9     1     9    1.1300E+05 -1.2027E+03   1.1420E+05  0.000E+00  0.000E+00  0.000E+00  4.45993E+01  1.562E-01  2.000E+01  2.000E+04 -6.014E-02
   1   16   10     1    10    1.1420E+05 -1.1410E+03   1.1535E+05  0.000E+00  0.000E+00  0.000E+00  4.41230E+01  1.571E-01  2.000E+01  2.000E+04 -5.705E-02
   1   16   11     1    11    1.1535E+05 -1.0698E+03   1.1641E+05  0.000E+00  0.000E+00  0.000E+00  4.36467E+01  1.580E-01  2.000E+01  2.000E+04 -5.349E-02
   1   16   12     1    12    1.1641E+05 -1.6165E+03   1.1803E+05  0.000E+00  0.000E+00  0.000E+00  4.31705E+01  1.591E-01  2.000E+01  2.000E+04 -8.083E-02
   1   15   13     1    13    1.1803E+05 -1.4452E+03   1.1948E+05  0.000E+00  0.000E+00  0.000E+00  4.26945E+01  1.604E-01  2.000E+01  2.000E+04 -7.226E-02
   1   14   14     1    14    1.1948E+05 -1.5480E+03   1.2102E+05  0.000E+00  0.000E+00  0.000E+00  4.22184E+01  1.616E-01  2.000E+01  2.000E+04 -7.740E-02
   1   13   15     1    15    1.2102E+05 -1.6662E+03   1.2269E+05  0.000E+00  0.000E+00  0.000E+00  4.17424E+01  1.629E-01  2.000E+01  2.000E+04 -8.331E-02
   1   12   16     1    16    1.2269E+05 -2.4522E+03   1.2514E+05  0.000E+00  0.000E+00  0.000E+00  4.12668E+01  1.645E-01  2.000E+01  2.000E+04 -1.226E-01
   1   12   17     1    17    1.2514E+05 -1.1520E+03   1.2630E+05  0.000E+00  0.000E+00  0.000E+00  4.07909E+01  1.659E-01  2.000E+01  2.000E+04 -5.760E-02
   1   12   18     1    18    1.2630E+05 -6.5040E+02   1.2695E+05  0.000E+00  0.000E+00  0.000E+00  4.03144E+01  1.667E-01  2.000E+01  2.000E+04 -3.252E-02
   1   12   19     1    19    1.2695E+05 -8.0804E+02   1.2775E+05  0.000E+00  0.000E+00  0.000E+00  3.98377E+01  1.672E-01  2.000E+01  2.000E+04 -4.040E-02
   1   13   20     1    20    1.2775E+05  1.2432E+03   1.2651E+05  0.000E+00  0.000E+00  0.000E+00  3.93602E+01  1.671E-01  2.000E+01  2.000E+04  6.216E-02
   1   14   21     1    21    1.2651E+05  8.9675E+02   1.2561E+05  0.000E+00  0.000E+00  0.000E+00  3.88821E+01  1.662E-01  2.000E+01  2.000E+04  4.484E-02
   1   14   22     1    22    1.2561E+05  5.1503E+03   1.2046E+05  0.000E+00  0.000E+00  0.000E+00  3.84024E+01  1.638E-01  2.000E+01  2.000E+04  2.575E-01
   1    9   30     2     1    5.0000E+04  1.1187E+03   4.8881E+04  0.000E+00  0.000E+00  0.000E+00  4.02401E+01  1.151E-01  2.000E+01  2.000E+04  5.593E-02
   1    9   29     2     2    4.8881E+04  7.2958E+02   4.8152E+04  0.000E+00  0.000E+00  0.000E+00  3.99888E+01  1.138E-01  2.000E+01  2.000E+04  3.648E-02
   1    9   28     2     3    4.8152E+04  2.6042E+02   4.7891E+04  0.000E+00  0.000E+00  0.000E+00  3.97381E+01  1.131E-01  2.000E+01  2.000E+04  1.302E-02
   1    9   27     2     4    4.7891E+04 -8.8687E+02   4.8778E+04  0.000E+00  0.000E+00  0.000E+00  3.94885E+01  1.135E-01  2.000E+01  2.000E+04 -4.434E-02
   1   10   26     2     5    4.8778E+04 -1.1165E+03   4.9895E+04  0.000E+00  0.000E+00  0.000E+00  3.92399E+01  1.149E-01  2.000E+01  2.000E+04 -5.582E-02
   1   11   25     2     6    4.9895E+04 -1.2281E+03   5.1123E+04  0.000E+00  0.000E+00  0.000E+00  3.89916E+01  1.166E-01  2.000E+01  2.000E+04 -6.141E-02
   1   12   24     2     7    5.1123E+04 -1.4149E+03   5.2538E+04  0.000E+00  0.000E+00  0.000E+00  3.87434E+01  1.184E-01  2.000E+01  2.000E+04 -7.075E-02
   1   13   23     2     8    5.2538E+04 -2.5192E+02   5.2790E+04  0.000E+00  0.000E+00  0.000E+00  3.84945E+01  1.195E-01  2.000E+01  2.000E+04 -1.260E-02
   1   14   22     2     9    5.2790E+04  1.9684E+03   5.0821E+04  0.000E+00  0.000E+00  0.000E+00  3.82434E+01  1.184E-01  2.000E+01  2.000E+04  9.842E-02
   1   14   22     3     1    1.7128E+05 -8.4234E+03   1.7971E+05  0.000E+00  0.000E+00  0.000E+00  3.77238E+01  1.682E-01  2.000E+01  2.000E+04 -4.212E-01
   1   15   23     3     2    1.7971E+05 -3.4961E+02   1.8006E+05  0.000E+00  0.000E+00  0.000E+00  3.68374E+01  1.707E-01  2.000E+01  2.000E+04 -1.748E-02
   1   15   24     3     3    1.8006E+05 -2.7106E+02   1.8033E+05  0.000E+00  0.000E+00  0.000E+00  3.59487E+01  1.709E-01  2.000E+01  2.000E+04 -1.355E-02
   1   15   25     3     4    1.8033E+05 -2.8829E+02   1.8062E+05  0.000E+00  0.000E+00  0.000E+00  3.50599E+01  1.711E-01  2.000E+01  2.000E+04 -1.441E-02
   1   15   26     3     5    1.8062E+05 -3.5466E+02   1.8097E+05  0.000E+00  0.000E+00  0.000E+00  3.41712E+01  1.712E-01  2.000E+01  2.000E+04 -1.773E-02
   1   16   27     3     6    1.8097E+05 -3.9027E+02   1.8136E+05  0.000E+00  0.000E+00  0.000E+00  3.32826E+01  1.715E-01  2.000E+01  2.000E+04 -1.951E-02
   1   17   28     3     7    1.8136E+05 -1.5886E+03   1.8295E+05  0.000E+00  0.000E+00  0.000E+00  3.23942E+01  1.720E-01  2.000E+01  2.000E+04 -7.943E-02
   1   18   29     3     8    1.8295E+05 -2.8827E+03   1.8583E+05  0.000E+00  0.000E+00  0.000E+00  3.15066E+01  1.733E-01  2.000E+01  2.000E+04 -1.441E-01
   1   18   30     3     9    1.8583E+05 -3.1815E+03   1.8901E+05  0.000E+00  0.000E+00  0.000E+00  3.06194E+01  1.750E-01  2.000E+01  2.000E+04 -1.591E-01



1
              HEAD IN LAYER   1 AT END OF TIME STEP   1 IN STRESS PERIOD    4
  ---------------------------------------------------------------------------

          1      2      3      4      5      6      7      8      9     10
         11     12     13     14     15     16     17     18     19     20
         21     22     23     24     25     26     27     28     29     30
 .........................................................................
   1  ****** ****** ****** ****** ****** ****** ****** ****** ****** ******
      ****** ****** ****** ****** ****** ****** ****** ****** ****** ******
      ****** ****** ****** ****** ****** ****** ****** ****** ****** ******
   2  ****** ****** ****** ****** ****** ****** ****** ****** ****** ******
      ****** ****** ****** ****** ****** ****** ****** ****** ****** ******
      ****** ****** ****** ****** ****** ****** ****** ****** ****** ******
   3  ****** ****** ****** ****** ****** ****** ****** ****** ****** ******
      ****** ****** ****** ****** ****** ****** ****** ****** ****** ******
      ****** ****** ****** ****** ****** ****** ****** ****** ****** ******
   4  ****** ****** ****** ****** ****** ****** ****** ****** ****** ******
      ****** ****** ****** ****** ****** ****** ****** ****** ****** ******
      ****** ****** ****** ****** ****** ****** ****** ****** ****** ******
   5  ****** ****** ****** ****** ****** ****** ****** ****** ****** ******
      ****** ****** ****** ****** ****** ****** ****** ****** ****** ******
      ****** ****** ****** ****** ****** ****** ****** ****** ****** ******
   6  ****** ****** ****** ****** ****** ****** ****** ****** ****** ******
      ****** ****** ****** ****** ****** ****** ****** ****** ****** ******
      ****** ****** ****** ****** ****** ****** ****** ****** ****** ******
   7  ****** ****** ****** ****** ****** ****** ****** ****** ****** ******
      ****** ****** ****** ****** ****** ****** ****** ****** ****** ******
      ****** ****** ****** ****** ****** ****** ****** ****** ****** ******
   8  ****** ****** ****** ****** ****** ****** ****** ****** ****** ******
      ****** ****** ****** ****** ****** ****** ****** ****** ****** ******
      ****** ****** ****** ****** ****** ****** ****** ****** ****** ******
   9  ****** ****** ****** ****** ****** ****** ****** ****** ****** ******
      ****** ****** ****** ****** ****** ****** ****** ****** ****** ******
      ****** ****** ****** ****** ****** ****** ****** ****** ****** ******
  10  ****** ****** ****** ****** ****** ****** ****** ****** ****** ******
      ****** ****** ****** ****** ****** ****** ****** ****** ****** ******
      ****** ****** ****** ****** ****** ****** ****** ****** ****** ******
  11  ****** ****** ****** ****** ****** ****** ****** ****** ****** ******
      ****** ****** ****** ****** ****** ****** ****** ****** ****** ******
      ****** ****** ****** ****** ****** ****** ****** ****** ****** ******
  12  ****** ****** ****** ****** ****** ****** ****** ****** ****** ******
      ****** ****** ****** ****** ****** ****** ****** ****** ****** ******
      ****** ****** ****** ****** ****** ****** ****** ****** ****** ******
  13  ****** ****** ****** ****** ****** ****** ****** ****** ****** ******
      ****** ****** ****** ****** ****** ****** ****** ****** ****** ******
      ****** ****** ****** ****** ****** ****** ****** ****** ****** ******
  14  ****** ****** ****** ****** ****** ****** ****** ****** ****** ******
      ****** ****** ****** ****** ****** ****** ****** ****** ****** ******
      ****** ****** ****** ****** ****** ****** ****** ****** ****** ******
  15  ****** ****** ****** ****** ****** ****** ****** ****** ****** ******
      ****** ****** ****** ****** ****** ****** ****** ****** ****** ******
      ****** ****** ****** ****** ****** ****** ****** ****** ****** ******
  16  ****** ****** ****** ****** ****** ****** ****** ****** ****** ******
      ****** ****** ****** ****** ****** ****** ****** ****** ****** ******
      ****** ****** ****** ****** ****** ****** ****** ****** ****** ******
  17  ****** ****** ****** ****** ****** ****** ****** ****** ****** ******
      ****** ****** ****** ****** ****** ****** ****** ****** ****** ******
      ****** ****** ****** ****** ****** ****** ****** ****** ****** ******
  18  ****** ****** ****** ****** ****** ****** ****** ****** ****** ******
      ****** ****** ****** ****** ****** ****** ****** ****** ****** ******
      ****** ****** ****** ****** ****** ****** ****** ****** ****** ******
  19  ****** ****** ****** ****** ****** ****** ****** ****** ****** ******
      ****** ****** ****** ****** ****** ****** ****** ****** ****** ******
      ****** ****** ****** ****** ****** ****** ****** ****** ****** ******
  20  ****** ****** ****** ****** ****** ****** ****** ****** ****** ******
      ****** ****** ****** ****** ****** ****** ****** ****** ****** ******
      ****** ****** ****** ****** ****** ****** ****** ****** ****** ******
  21  ****** ****** ****** ****** ****** ****** ****** ****** ****** ******
      ****** ****** ****** ****** ****** ****** ****** ****** ****** ******
      ****** ****** ****** ****** ****** ****** ****** ****** ****** ******
  22  ****** ****** ****** ****** ****** ****** ****** ****** ****** ******
      ****** ****** ****** ****** ****** ****** ****** ****** ****** ******
      ****** ****** ****** ****** ****** ****** ****** ****** ****** ******
  23  ****** ****** ****** ****** ****** ****** ****** ****** ****** ******
      ****** ****** ****** ****** ****** ****** ****** ****** ****** ******
      ****** ****** ****** ****** ****** ****** ****** ****** ****** ******
  24  ****** ****** ****** ****** ****** ****** ****** ****** ****** ******
      ****** ****** ****** ****** ****** ****** ****** ****** ****** ******
      ****** ****** ****** ****** ****** ****** ****** ****** ****** ******
  25  ****** ****** ****** ****** ****** ****** ****** ****** ****** ******
      ****** ****** ****** ****** ****** ****** ****** ****** ****** ******
      ****** ****** ****** ****** ****** ****** ****** ****** ****** ******

 HEAD WILL BE SAVED ON UNIT   51 AT END OF TIME STEP    1, STRESS PERIOD    4
1
  VOLUMETRIC BUDGET FOR ENTIRE MODEL AT END OF TIME STEP    1, STRESS PERIOD   4
  ------------------------------------------------------------------------------

     CUMULATIVE VOLUMES      L**3       RATES FOR THIS TIME STEP      L**3/T
     ------------------                 ------------------------

           IN:                                      IN:
           ---                                      ---
             STORAGE =    30846754.0770               STORAGE =       20431.1404
       CONSTANT HEAD =     8375352.1477         CONSTANT HEAD =       31073.0156
               WELLS =           0.0000                 WELLS =           0.0000
            RECHARGE =     8804400.0000              RECHARGE =       27600.0000
      STREAM LEAKAGE =     2908574.0963        STREAM LEAKAGE =       11367.2412

            TOTAL IN =    50935080.3210              TOTAL IN =       90471.3971

          OUT:                                     OUT:
          ----                                     ----
             STORAGE =        1089.4380               STORAGE =          11.9718
       CONSTANT HEAD =           0.0000         CONSTANT HEAD =           0.0000
               WELLS =    14628302.7089                 WELLS =       40077.5417
            RECHARGE =           0.0000              RECHARGE =           0.0000
      STREAM LEAKAGE =    36305690.2357        STREAM LEAKAGE =       50381.8845

           TOTAL OUT =    50935082.3825             TOTAL OUT =       90471.3980

            IN - OUT =          -2.0616              IN - OUT =      -8.7193E-04

 PERCENT DISCREPANCY =          -0.00     PERCENT DISCREPANCY =          -0.00






         TIME SUMMARY AT END OF TIME STEP    1 IN STRESS PERIOD    4
                    SECONDS     MINUTES      HOURS       DAYS        YEARS
                    -----------------------------------------------------------
   TIME STEP LENGTH 7.86240E+06 1.31040E+05  2184.0      91.000     0.24914    
 STRESS PERIOD TIME 7.86240E+06 1.31040E+05  2184.0      91.000     0.24914    
         TOTAL TIME 3.15360E+07 5.25600E+05  8760.0      365.00     0.99932    
1
1
                            STRESS PERIOD NO.    5, LENGTH =   92.00000    
                            -----------------------------------------------

                              NUMBER OF TIME STEPS =     1

                               MULTIPLIER FOR DELT =     1.500

                            INITIAL TIME STEP SIZE =   92.00000    

 WELL NO.  LAYER   ROW   COL   STRESS RATE         
 --------------------------------------------------
      1      1      5     14      -8335.    
      2      1     14     19     -0.1115E+05
      3      1     20     20      -8343.    
      4      1      5     29     -0.1225E+05

      4 WELLS

                 RECHARGE =  5.000000E-04

 REUSING STREAM SEGMENT DATA FROM LAST STRESS PERIOD
 
 SOLVING FOR HEAD 


     7 CALLS TO PCG ROUTINE FOR TIME STEP   1 IN STRESS PERIOD    5
    26 TOTAL ITERATIONS

 OUTPUT CONTROL FOR STRESS PERIOD    5   TIME STEP    1
    SAVE BUDGET
    SAVE HEAD FOR ALL LAYERS
    PRINT HEAD FOR ALL LAYERS
 UBDSV2 SAVING "STREAMFLOW OUT  " ON UNIT  50 AT TIME STEP  1, STRESS PERIOD   5



 STREAM LISTING     PERIOD      5   STEP        1

 LAYER ROW COL. STREAM  RCH.  FLOW INTO     FLOW TO   FLOW OUT OF   OVRLND.     DIRECT     STREAM       STREAM     STREAM     STREAM   STREAMBED  STREAMBED
                SEG.NO.  NO.  STRM. RCH.    AQUIFER    STRM. RCH.    RUNOFF     PRECIP       ET          HEAD       DEPTH      WIDTH   CONDCTNC.   GRADIENT

   1   13    1     1     1    1.0000E+05 -1.9691E+03   1.0197E+05  0.000E+00  0.000E+00  0.000E+00  4.84069E+01  1.455E-01  2.000E+01  2.000E+04 -9.845E-02
   1   13    2     1     2    1.0197E+05 -2.9750E+03   1.0494E+05  0.000E+00  0.000E+00  0.000E+00  4.79317E+01  1.476E-01  2.000E+01  2.000E+04 -1.487E-01
   1   14    3     1     3    1.0494E+05 -4.9053E+02   1.0543E+05  0.000E+00  0.000E+00  0.000E+00  4.74559E+01  1.491E-01  2.000E+01  2.000E+04 -2.453E-02
   1   15    4     1     4    1.0543E+05 -4.5887E+02   1.0589E+05  0.000E+00  0.000E+00  0.000E+00  4.69791E+01  1.495E-01  2.000E+01  2.000E+04 -2.294E-02
   1   16    5     1     5    1.0589E+05 -1.6601E+03   1.0755E+05  0.000E+00  0.000E+00  0.000E+00  4.65027E+01  1.504E-01  2.000E+01  2.000E+04 -8.301E-02
   1   16    6     1     6    1.0755E+05 -1.0506E+03   1.0860E+05  0.000E+00  0.000E+00  0.000E+00  4.60266E+01  1.516E-01  2.000E+01  2.000E+04 -5.253E-02
   1   16    7     1     7    1.0860E+05 -1.0226E+03   1.0963E+05  0.000E+00  0.000E+00  0.000E+00  4.55502E+01  1.524E-01  2.000E+01  2.000E+04 -5.113E-02
   1   16    8     1     8    1.0963E+05 -9.9913E+02   1.1063E+05  0.000E+00  0.000E+00  0.000E+00  4.50737E+01  1.533E-01  2.000E+01  2.000E+04 -4.996E-02
   1   16    9     1     9    1.1063E+05 -9.5977E+02   1.1159E+05  0.000E+00  0.000E+00  0.000E+00  4.45973E+01  1.541E-01  2.000E+01  2.000E+04 -4.799E-02
   1   16   10     1    10    1.1159E+05 -9.0026E+02   1.1249E+05  0.000E+00  0.000E+00  0.000E+00  4.41208E+01  1.549E-01  2.000E+01  2.000E+04 -4.501E-02
   1   16   11     1    11    1.1249E+05 -8.2686E+02   1.1331E+05  0.000E+00  0.000E+00  0.000E+00  4.36442E+01  1.556E-01  2.000E+01  2.000E+04 -4.134E-02
   1   16   12     1    12    1.1331E+05 -1.1762E+03   1.1449E+05  0.000E+00  0.000E+00  0.000E+00  4.31678E+01  1.564E-01  2.000E+01  2.000E+04 -5.881E-02
   1   15   13     1    13    1.1449E+05 -9.7979E+02   1.1547E+05  0.000E+00  0.000E+00  0.000E+00  4.26914E+01  1.573E-01  2.000E+01  2.000E+04 -4.899E-02
   1   14   14     1    14    1.1547E+05 -1.0510E+03   1.1652E+05  0.000E+00  0.000E+00  0.000E+00  4.22149E+01  1.581E-01  2.000E+01  2.000E+04 -5.255E-02
   1   13   15     1    15    1.1652E+05 -1.1487E+03   1.1767E+05  0.000E+00  0.000E+00  0.000E+00  4.17386E+01  1.590E-01  2.000E+01  2.000E+04 -5.744E-02
   1   12   16     1    16    1.1767E+05 -1.8821E+03   1.1955E+05  0.000E+00  0.000E+00  0.000E+00  4.12625E+01  1.602E-01  2.000E+01  2.000E+04 -9.411E-02
   1   12   17     1    17    1.1955E+05 -7.7023E+02   1.2032E+05  0.000E+00  0.000E+00  0.000E+00  4.07863E+01  1.613E-01  2.000E+01  2.000E+04 -3.851E-02
   1   12   18     1    18    1.2032E+05 -2.8727E+02   1.2061E+05  0.000E+00  0.000E+00  0.000E+00  4.03095E+01  1.617E-01  2.000E+01  2.000E+04 -1.436E-02
   1   12   19     1    19    1.2061E+05 -3.6786E+02   1.2098E+05  0.000E+00  0.000E+00  0.000E+00  3.98325E+01  1.620E-01  2.000E+01  2.000E+04 -1.839E-02
   1   13   20     1    20    1.2098E+05  1.6250E+03   1.1935E+05  0.000E+00  0.000E+00  0.000E+00  3.93547E+01  1.615E-01  2.000E+01  2.000E+04  8.125E-02
   1   14   21     1    21    1.1935E+05  1.3075E+03   1.1804E+05  0.000E+00  0.000E+00  0.000E+00  3.88762E+01  1.603E-01  2.000E+01  2.000E+04  6.538E-02
   1   14   22     1    22    1.1804E+05  5.2366E+03   1.1281E+05  0.000E+00  0.000E+00  0.000E+00  3.83963E+01  1.577E-01  2.000E+01  2.000E+04  2.618E-01
   1    9   30     2     1    5.0000E+04  1.3712E+03   4.8629E+04  0.000E+00  0.000E+00  0.000E+00  4.02399E+01  1.149E-01  2.000E+01  2.000E+04  6.856E-02
   1    9   29     2     2    4.8629E+04  9.8600E+02   4.7643E+04  0.000E+00  0.000E+00  0.000E+00  3.99883E+01  1.133E-01  2.000E+01  2.000E+04  4.930E-02
   1    9   28     2     3    4.7643E+04  5.3008E+02   4.7113E+04  0.000E+00  0.000E+00  0.000E+00  3.97372E+01  1.122E-01  2.000E+01  2.000E+04  2.650E-02
   1    9   27     2     4    4.7113E+04 -4.5957E+02   4.7572E+04  0.000E+00  0.000E+00  0.000E+00  3.94871E+01  1.121E-01  2.000E+01  2.000E+04 -2.298E-02
   1   10   26     2     5    4.7572E+04 -7.5140E+02   4.8324E+04  0.000E+00  0.000E+00  0.000E+00  3.92380E+01  1.130E-01  2.000E+01  2.000E+04 -3.757E-02
   1   11   25     2     6    4.8324E+04 -8.9598E+02   4.9220E+04  0.000E+00  0.000E+00  0.000E+00  3.89891E+01  1.141E-01  2.000E+01  2.000E+04 -4.480E-02
   1   12   24     2     7    4.9220E+04 -1.1120E+03   5.0332E+04  0.000E+00  0.000E+00  0.000E+00  3.87406E+01  1.156E-01  2.000E+01  2.000E+04 -5.560E-02
   1   13   23     2     8    5.0332E+04 -1.8067E+02   5.0512E+04  0.000E+00  0.000E+00  0.000E+00  3.84915E+01  1.165E-01  2.000E+01  2.000E+04 -9.034E-03
   1   14   22     2     9    5.0512E+04  2.1129E+03   4.8399E+04  0.000E+00  0.000E+00  0.000E+00  3.82401E+01  1.151E-01  2.000E+01  2.000E+04  1.056E-01
   1   14   22     3     1    1.6121E+05 -8.3317E+03   1.6954E+05  0.000E+00  0.000E+00  0.000E+00  3.77179E+01  1.623E-01  2.000E+01  2.000E+04 -4.166E-01
   1   15   23     3     2    1.6954E+05 -2.4334E+02   1.6978E+05  0.000E+00  0.000E+00  0.000E+00  3.68315E+01  1.648E-01  2.000E+01  2.000E+04 -1.217E-02
   1   15   24     3     3    1.6978E+05 -1.9466E+02   1.6998E+05  0.000E+00  0.000E+00  0.000E+00  3.59427E+01  1.650E-01  2.000E+01  2.000E+04 -9.733E-03
   1   15   25     3     4    1.6998E+05 -2.1319E+02   1.7019E+05  0.000E+00  0.000E+00  0.000E+00  3.50540E+01  1.651E-01  2.000E+01  2.000E+04 -1.066E-02
   1   15   26     3     5    1.7019E+05 -2.8011E+02   1.7047E+05  0.000E+00  0.000E+00  0.000E+00  3.41652E+01  1.652E-01  2.000E+01  2.000E+04 -1.401E-02
   1   16   27     3     6    1.7047E+05 -2.9528E+02   1.7076E+05  0.000E+00  0.000E+00  0.000E+00  3.32765E+01  1.654E-01  2.000E+01  2.000E+04 -1.476E-02
   1   17   28     3     7    1.7076E+05 -1.3046E+03   1.7207E+05  0.000E+00  0.000E+00  0.000E+00  3.23881E+01  1.659E-01  2.000E+01  2.000E+04 -6.523E-02
   1   18   29     3     8    1.7207E+05 -2.4742E+03   1.7454E+05  0.000E+00  0.000E+00  0.000E+00  3.15003E+01  1.670E-01  2.000E+01  2.000E+04 -1.237E-01
   1   18   30     3     9    1.7454E+05 -2.9032E+03   1.7745E+05  0.000E+00  0.000E+00  0.000E+00  3.06129E+01  1.685E-01  2.000E+01  2.000E+04 -1.452E-01



1
              HEAD IN LAYER   1 AT END OF TIME STEP   1 IN STRESS PERIOD    5
  ---------------------------------------------------------------------------

          1      2      3      4      5      6      7      8      9     10
         11     12     13     14     15     16     17     18     19     20
         21     22     23     24     25     26     27     28     29     30
 .........................................................................
   1  ****** ****** ****** ****** ****** ****** ****** ****** ****** ******
      ****** ****** ****** ****** ****** ****** ****** ****** ****** ******
      ****** ****** ****** ****** ****** ****** ****** ****** ****** ******
   2  ****** ****** ****** ****** ****** ****** ****** ****** ****** ******
      ****** ****** ****** ****** ****** ****** ****** ****** ****** ******
      ****** ****** ****** ****** ****** ****** ****** ****** ****** ******
   3  ****** ****** ****** ****** ****** ****** ****** ****** ****** ******
      ****** ****** ****** ****** ****** ****** ****** ****** ****** ******
      ****** ****** ****** ****** ****** ****** ****** ****** ****** ******
   4  ****** ****** ****** ****** ****** ****** ****** ****** ****** ******
      ****** ****** ****** ****** ****** ****** ****** ****** ****** ******
      ****** ****** ****** ****** ****** ****** ****** ****** ****** ******
   5  ****** ****** ****** ****** ****** ****** ****** ****** ****** ******
      ****** ****** ****** ****** ****** ****** ****** ****** ****** ******
      ****** ****** ****** ****** ****** ****** ****** ****** ****** ******
   6  ****** ****** ****** ****** ****** ****** ****** ****** ****** ******
      ****** ****** ****** ****** ****** ****** ****** ****** ****** ******
      ****** ****** ****** ****** ****** ****** ****** ****** ****** ******
   7  ****** ****** ****** ****** ****** ****** ****** ****** ****** ******
      ****** ****** ****** ****** ****** ****** ****** ****** ****** ******
      ****** ****** ****** ****** ****** ****** ****** ****** ****** ******
   8  ****** ****** ****** ****** ****** ****** ****** ****** ****** ******
      ****** ****** ****** ****** ****** ****** ****** ****** ****** ******
      ****** ****** ****** ****** ****** ****** ****** ****** ****** ******
   9  ****** ****** ****** ****** ****** ****** ****** ****** ****** ******
      ****** ****** ****** ****** ****** ****** ****** ****** ****** ******
      ****** ****** ****** ****** ****** ****** ****** ****** ****** ******
  10  ****** ****** ****** ****** ****** ****** ****** ****** ****** ******
      ****** ****** ****** ****** ****** ****** ****** ****** ****** ******
      ****** ****** ****** ****** ****** ****** ****** ****** ****** ******
  11  ****** ****** ****** ****** ****** ****** ****** ****** ****** ******
      ****** ****** ****** ****** ****** ****** ****** ****** ****** ******
      ****** ****** ****** ****** ****** ****** ****** ****** ****** ******
  12  ****** ****** ****** ****** ****** ****** ****** ****** ****** ******
      ****** ****** ****** ****** ****** ****** ****** ****** ****** ******
      ****** ****** ****** ****** ****** ****** ****** ****** ****** ******
  13  ****** ****** ****** ****** ****** ****** ****** ****** ****** ******
      ****** ****** ****** ****** ****** ****** ****** ****** ****** ******
      ****** ****** ****** ****** ****** ****** ****** ****** ****** ******
  14  ****** ****** ****** ****** ****** ****** ****** ****** ****** ******
      ****** ****** ****** ****** ****** ****** ****** ****** ****** ******
      ****** ****** ****** ****** ****** ****** ****** ****** ****** ******
  15  ****** ****** ****** ****** ****** ****** ****** ****** ****** ******
      ****** ****** ****** ****** ****** ****** ****** ****** ****** ******
      ****** ****** ****** ****** ****** ****** ****** ****** ****** ******
  16  ****** ****** ****** ****** ****** ****** ****** ****** ****** ******
      ****** ****** ****** ****** ****** ****** ****** ****** ****** ******
      ****** ****** ****** ****** ****** ****** ****** ****** ****** ******
  17  ****** ****** ****** ****** ****** ****** ****** ****** ****** ******
      ****** ****** ****** ****** ****** ****** ****** ****** ****** ******
      ****** ****** ****** ****** ****** ****** ****** ****** ****** ******
  18  ****** ****** ****** ****** ****** ****** ****** ****** ****** ******
      ****** ****** ****** ****** ****** ****** ****** ****** ****** ******
      ****** ****** ****** ****** ****** ****** ****** ****** ****** ******
  19  ****** ****** ****** ****** ****** ****** ****** ****** ****** ******
      ****** ****** ****** ****** ****** ****** ****** ****** ****** ******
      ****** ****** ****** ****** ****** ****** ****** ****** ****** ******
  20  ****** ****** ****** ****** ****** ****** ****** ****** ****** ******
      ****** ****** ****** ****** ****** ****** ****** ****** ****** ******
      ****** ****** ****** ****** ****** ****** ****** ****** ****** ******
  21  ****** ****** ****** ****** ****** ****** ****** ****** ****** ******
      ****** ****** ****** ****** ****** ****** ****** ****** ****** ******
      ****** ****** ****** ****** ****** ****** ****** ****** ****** ******
  22  ****** ****** ****** ****** ****** ****** ****** ****** ****** ******
      ****** ****** ****** ****** ****** ****** ****** ****** ****** ******
      ****** ****** ****** ****** ****** ****** ****** ****** ****** ******
  23  ****** ****** ****** ****** ****** ****** ****** ****** ****** ******
      ****** ****** ****** ****** ****** ****** ****** ****** ****** ******
      ****** ****** ****** ****** ****** ****** ****** ****** ****** ******
  24  ****** ****** ****** ****** ****** ****** ****** ****** ****** ******
      ****** ****** ****** ****** ****** ****** ****** ****** ****** ******
      ****** ****** ****** ****** ****** ****** ****** ****** ****** ******
  25  ****** ****** ****** ****** ****** ****** ****** ****** ****** ******
      ****** ****** ****** ****** ****** ****** ****** ****** ****** ******
      ****** ****** ****** ****** ****** ****** ****** ****** ****** ******

 HEAD WILL BE SAVED ON UNIT   51 AT END OF TIME STEP    1, STRESS PERIOD    5
1
  VOLUMETRIC BUDGET FOR ENTIRE MODEL AT END OF TIME STEP    1, STRESS PERIOD   5
  ------------------------------------------------------------------------------

     CUMULATIVE VOLUMES      L**3       RATES FOR THIS TIME STEP      L**3/T
     ------------------                 ------------------------

           IN:                                      IN:
           ---                                      ---
             STORAGE =    32643153.5973               STORAGE =       19526.0817
       CONSTANT HEAD =    11521560.1971         CONSTANT HEAD =       34197.9136
               WELLS =           0.0000                 WELLS =           0.0000
            RECHARGE =    10074000.0000              RECHARGE =       13800.0000
      STREAM LEAKAGE =     4120152.0371        STREAM LEAKAGE =       13169.3254

            TOTAL IN =    58358865.8315              TOTAL IN =       80693.3208

          OUT:                                     OUT:
          ----                                     ----
             STORAGE =        1089.4380               STORAGE =           0.0000
       CONSTANT HEAD =           0.0000         CONSTANT HEAD =           0.0000
               WELLS =    18315436.5424                 WELLS =       40077.5417
            RECHARGE =           0.0000              RECHARGE =           0.0000
      STREAM LEAKAGE =    40042342.2150        STREAM LEAKAGE =       40615.7824

           TOTAL OUT =    58358868.1953             TOTAL OUT =       80693.3241

            IN - OUT =          -2.3638              IN - OUT =      -3.2854E-03

 PERCENT DISCREPANCY =          -0.00     PERCENT DISCREPANCY =          -0.00






         TIME SUMMARY AT END OF TIME STEP    1 IN STRESS PERIOD    5
                    SECONDS     MINUTES      HOURS       DAYS        YEARS
                    -----------------------------------------------------------
   TIME STEP LENGTH 7.94880E+06 1.32480E+05  2208.0      92.000     0.25188    
 STRESS PERIOD TIME 7.94880E+06 1.32480E+05  2208.0      92.000     0.25188    
         TOTAL TIME 3.94848E+07 6.58080E+05  10968.      457.00      1.2512    
1
1
                            STRESS PERIOD NO.    6, LENGTH =   91.00000    
                            -----------------------------------------------

                              NUMBER OF TIME STEPS =     1

                               MULTIPLIER FOR DELT =     1.500

                            INITIAL TIME STEP SIZE =   91.00000    

 WELL NO.  LAYER   ROW   COL   STRESS RATE         
 --------------------------------------------------
      1      1      5     14      -8335.    
      2      1     14     19     -0.1115E+05
      3      1     20     20      -8343.    
      4      1      5     29     -0.1225E+05

      4 WELLS

                 RECHARGE =  2.000000E-03

 REUSING STREAM SEGMENT DATA FROM LAST STRESS PERIOD
 
 SOLVING FOR HEAD 


     7 CALLS TO PCG ROUTINE FOR TIME STEP   1 IN STRESS PERIOD    6
    26 TOTAL ITERATIONS

 OUTPUT CONTROL FOR STRESS PERIOD    6   TIME STEP    1
    SAVE BUDGET
    SAVE HEAD FOR ALL LAYERS
    PRINT HEAD FOR ALL LAYERS
 UBDSV2 SAVING "STREAMFLOW OUT  " ON UNIT  50 AT TIME STEP  1, STRESS PERIOD   6



 STREAM LISTING     PERIOD      6   STEP        1

 LAYER ROW COL. STREAM  RCH.  FLOW INTO     FLOW TO   FLOW OUT OF   OVRLND.     DIRECT     STREAM       STREAM     STREAM     STREAM   STREAMBED  STREAMBED
                SEG.NO.  NO.  STRM. RCH.    AQUIFER    STRM. RCH.    RUNOFF     PRECIP       ET          HEAD       DEPTH      WIDTH   CONDCTNC.   GRADIENT

   1   13    1     1     1    1.0000E+05 -2.2672E+03   1.0227E+05  0.000E+00  0.000E+00  0.000E+00  4.84070E+01  1.456E-01  2.000E+01  2.000E+04 -1.134E-01
   1   13    2     1     2    1.0227E+05 -3.3009E+03   1.0557E+05  0.000E+00  0.000E+00  0.000E+00  4.79321E+01  1.480E-01  2.000E+01  2.000E+04 -1.650E-01
   1   14    3     1     3    1.0557E+05 -6.4306E+02   1.0621E+05  0.000E+00  0.000E+00  0.000E+00  4.74565E+01  1.497E-01  2.000E+01  2.000E+04 -3.215E-02
   1   15    4     1     4    1.0621E+05 -6.2325E+02   1.0683E+05  0.000E+00  0.000E+00  0.000E+00  4.69798E+01  1.502E-01  2.000E+01  2.000E+04 -3.116E-02
   1   16    5     1     5    1.0683E+05 -2.1521E+03   1.0899E+05  0.000E+00  0.000E+00  0.000E+00  4.65037E+01  1.514E-01  2.000E+01  2.000E+04 -1.076E-01
   1   16    6     1     6    1.0899E+05 -1.3383E+03   1.1032E+05  0.000E+00  0.000E+00  0.000E+00  4.60279E+01  1.529E-01  2.000E+01  2.000E+04 -6.691E-02
   1   16    7     1     7    1.1032E+05 -1.2947E+03   1.1162E+05  0.000E+00  0.000E+00  0.000E+00  4.55517E+01  1.540E-01  2.000E+01  2.000E+04 -6.474E-02
   1   16    8     1     8    1.1162E+05 -1.2662E+03   1.1289E+05  0.000E+00  0.000E+00  0.000E+00  4.50755E+01  1.550E-01  2.000E+01  2.000E+04 -6.331E-02
   1   16    9     1     9    1.1289E+05 -1.2260E+03   1.1411E+05  0.000E+00  0.000E+00  0.000E+00  4.45993E+01  1.561E-01  2.000E+01  2.000E+04 -6.130E-02
   1   16   10     1    10    1.1411E+05 -1.1677E+03   1.1528E+05  0.000E+00  0.000E+00  0.000E+00  4.41230E+01  1.571E-01  2.000E+01  2.000E+04 -5.838E-02
   1   16   11     1    11    1.1528E+05 -1.0969E+03   1.1638E+05  0.000E+00  0.000E+00  0.000E+00  4.36466E+01  1.580E-01  2.000E+01  2.000E+04 -5.484E-02
   1   16   12     1    12    1.1638E+05 -1.6084E+03   1.1798E+05  0.000E+00  0.000E+00  0.000E+00  4.31705E+01  1.591E-01  2.000E+01  2.000E+04 -8.042E-02
   1   15   13     1    13    1.1798E+05 -1.4194E+03   1.1940E+05  0.000E+00  0.000E+00  0.000E+00  4.26944E+01  1.603E-01  2.000E+01  2.000E+04 -7.097E-02
   1   14   14     1    14    1.1940E+05 -1.4830E+03   1.2089E+05  0.000E+00  0.000E+00  0.000E+00  4.22183E+01  1.615E-01  2.000E+01  2.000E+04 -7.415E-02
   1   13   15     1    15    1.2089E+05 -1.5591E+03   1.2245E+05  0.000E+00  0.000E+00  0.000E+00  4.17423E+01  1.627E-01  2.000E+01  2.000E+04 -7.795E-02
   1   12   16     1    16    1.2245E+05 -2.2419E+03   1.2469E+05  0.000E+00  0.000E+00  0.000E+00  4.12665E+01  1.642E-01  2.000E+01  2.000E+04 -1.121E-01
   1   12   17     1    17    1.2469E+05 -1.0685E+03   1.2576E+05  0.000E+00  0.000E+00  0.000E+00  4.07906E+01  1.656E-01  2.000E+01  2.000E+04 -5.342E-02
   1   12   18     1    18    1.2576E+05 -5.9041E+02   1.2635E+05  0.000E+00  0.000E+00  0.000E+00  4.03139E+01  1.662E-01  2.000E+01  2.000E+04 -2.952E-02
   1   12   19     1    19    1.2635E+05 -7.4505E+02   1.2709E+05  0.000E+00  0.000E+00  0.000E+00  3.98372E+01  1.667E-01  2.000E+01  2.000E+04 -3.725E-02
   1   13   20     1    20    1.2709E+05  1.2166E+03   1.2588E+05  0.000E+00  0.000E+00  0.000E+00  3.93597E+01  1.666E-01  2.000E+01  2.000E+04  6.083E-02
   1   14   21     1    21    1.2588E+05  9.1152E+02   1.2496E+05  0.000E+00  0.000E+00  0.000E+00  3.88816E+01  1.657E-01  2.000E+01  2.000E+04  4.558E-02
   1   14   22     1    22    1.2496E+05  5.1324E+03   1.1983E+05  0.000E+00  0.000E+00  0.000E+00  3.84019E+01  1.633E-01  2.000E+01  2.000E+04  2.566E-01
   1    9   30     2     1    5.0000E+04  1.0164E+03   4.8984E+04  0.000E+00  0.000E+00  0.000E+00  4.02402E+01  1.152E-01  2.000E+01  2.000E+04  5.082E-02
   1    9   29     2     2    4.8984E+04  6.3586E+02   4.8348E+04  0.000E+00  0.000E+00  0.000E+00  3.99890E+01  1.140E-01  2.000E+01  2.000E+04  3.179E-02
   1    9   28     2     3    4.8348E+04  1.8753E+02   4.8160E+04  0.000E+00  0.000E+00  0.000E+00  3.97384E+01  1.134E-01  2.000E+01  2.000E+04  9.376E-03
   1    9   27     2     4    4.8160E+04 -8.8774E+02   4.9048E+04  0.000E+00  0.000E+00  0.000E+00  3.94889E+01  1.139E-01  2.000E+01  2.000E+04 -4.439E-02
   1   10   26     2     5    4.9048E+04 -1.2090E+03   5.0257E+04  0.000E+00  0.000E+00  0.000E+00  3.92404E+01  1.154E-01  2.000E+01  2.000E+04 -6.045E-02
   1   11   25     2     6    5.0257E+04 -1.3409E+03   5.1598E+04  0.000E+00  0.000E+00  0.000E+00  3.89922E+01  1.172E-01  2.000E+01  2.000E+04 -6.705E-02
   1   12   24     2     7    5.1598E+04 -1.5130E+03   5.3111E+04  0.000E+00  0.000E+00  0.000E+00  3.87441E+01  1.191E-01  2.000E+01  2.000E+04 -7.565E-02
   1   13   23     2     8    5.3111E+04 -3.1717E+02   5.3428E+04  0.000E+00  0.000E+00  0.000E+00  3.84954E+01  1.204E-01  2.000E+01  2.000E+04 -1.586E-02
   1   14   22     2     9    5.3428E+04  1.9781E+03   5.1450E+04  0.000E+00  0.000E+00  0.000E+00  3.82442E+01  1.192E-01  2.000E+01  2.000E+04  9.891E-02
   1   14   22     3     1    1.7128E+05 -8.4310E+03   1.7971E+05  0.000E+00  0.000E+00  0.000E+00  3.77238E+01  1.682E-01  2.000E+01  2.000E+04 -4.215E-01
   1   15   23     3     2    1.7971E+05 -3.7703E+02   1.8009E+05  0.000E+00  0.000E+00  0.000E+00  3.68374E+01  1.707E-01  2.000E+01  2.000E+04 -1.885E-02
   1   15   24     3     3    1.8009E+05 -3.1456E+02   1.8040E+05  0.000E+00  0.000E+00  0.000E+00  3.59487E+01  1.709E-01  2.000E+01  2.000E+04 -1.573E-02
   1   15   25     3     4    1.8040E+05 -3.3784E+02   1.8074E+05  0.000E+00  0.000E+00  0.000E+00  3.50600E+01  1.711E-01  2.000E+01  2.000E+04 -1.689E-02
   1   15   26     3     5    1.8074E+05 -4.3035E+02   1.8117E+05  0.000E+00  0.000E+00  0.000E+00  3.41713E+01  1.713E-01  2.000E+01  2.000E+04 -2.152E-02
   1   16   27     3     6    1.8117E+05 -4.6192E+02   1.8163E+05  0.000E+00  0.000E+00  0.000E+00  3.32827E+01  1.716E-01  2.000E+01  2.000E+04 -2.310E-02
   1   17   28     3     7    1.8163E+05 -1.7602E+03   1.8339E+05  0.000E+00  0.000E+00  0.000E+00  3.23944E+01  1.722E-01  2.000E+01  2.000E+04 -8.801E-02
   1   18   29     3     8    1.8339E+05 -2.8988E+03   1.8629E+05  0.000E+00  0.000E+00  0.000E+00  3.15069E+01  1.735E-01  2.000E+01  2.000E+04 -1.449E-01
   1   18   30     3     9    1.8629E+05 -3.2503E+03   1.8954E+05  0.000E+00  0.000E+00  0.000E+00  3.06197E+01  1.753E-01  2.000E+01  2.000E+04 -1.625E-01



1
              HEAD IN LAYER   1 AT END OF TIME STEP   1 IN STRESS PERIOD    6
  ---------------------------------------------------------------------------

          1      2      3      4      5      6      7      8      9     10
         11     12     13     14     15     16     17     18     19     20
         21     22     23     24     25     26     27     28     29     30
 .........................................................................
   1  ****** ****** ****** ****** ****** ****** ****** ****** ****** ******
      ****** ****** ****** ****** ****** ****** ****** ****** ****** ******
      ****** ****** ****** ****** ****** ****** ****** ****** ****** ******
   2  ****** ****** ****** ****** ****** ****** ****** ****** ****** ******
      ****** ****** ****** ****** ****** ****** ****** ****** ****** ******
      ****** ****** ****** ****** ****** ****** ****** ****** ****** ******
   3  ****** ****** ****** ****** ****** ****** ****** ****** ****** ******
      ****** ****** ****** ****** ****** ****** ****** ****** ****** ******
      ****** ****** ****** ****** ****** ****** ****** ****** ****** ******
   4  ****** ****** ****** ****** ****** ****** ****** ****** ****** ******
      ****** ****** ****** ****** ****** ****** ****** ****** ****** ******
      ****** ****** ****** ****** ****** ****** ****** ****** ****** ******
   5  ****** ****** ****** ****** ****** ****** ****** ****** ****** ******
      ****** ****** ****** ****** ****** ****** ****** ****** ****** ******
      ****** ****** ****** ****** ****** ****** ****** ****** ****** ******
   6  ****** ****** ****** ****** ****** ****** ****** ****** ****** ******
      ****** ****** ****** ****** ****** ****** ****** ****** ****** ******
      ****** ****** ****** ****** ****** ****** ****** ****** ****** ******
   7  ****** ****** ****** ****** ****** ****** ****** ****** ****** ******
      ****** ****** ****** ****** ****** ****** ****** ****** ****** ******
      ****** ****** ****** ****** ****** ****** ****** ****** ****** ******
   8  ****** ****** ****** ****** ****** ****** ****** ****** ****** ******
      ****** ****** ****** ****** ****** ****** ****** ****** ****** ******
      ****** ****** ****** ****** ****** ****** ****** ****** ****** ******
   9  ****** ****** ****** ****** ****** ****** ****** ****** ****** ******
      ****** ****** ****** ****** ****** ****** ****** ****** ****** ******
      ****** ****** ****** ****** ****** ****** ****** ****** ****** ******
  10  ****** ****** ****** ****** ****** ****** ****** ****** ****** ******
      ****** ****** ****** ****** ****** ****** ****** ****** ****** ******
      ****** ****** ****** ****** ****** ****** ****** ****** ****** ******
  11  ****** ****** ****** ****** ****** ****** ****** ****** ****** ******
      ****** ****** ****** ****** ****** ****** ****** ****** ****** ******
      ****** ****** ****** ****** ****** ****** ****** ****** ****** ******
  12  ****** ****** ****** ****** ****** ****** ****** ****** ****** ******
      ****** ****** ****** ****** ****** ****** ****** ****** ****** ******
      ****** ****** ****** ****** ****** ****** ****** ****** ****** ******
  13  ****** ****** ****** ****** ****** ****** ****** ****** ****** ******
      ****** ****** ****** ****** ****** ****** ****** ****** ****** ******
      ****** ****** ****** ****** ****** ****** ****** ****** ****** ******
  14  ****** ****** ****** ****** ****** ****** ****** ****** ****** ******
      ****** ****** ****** ****** ****** ****** ****** ****** ****** ******
      ****** ****** ****** ****** ****** ****** ****** ****** ****** ******
  15  ****** ****** ****** ****** ****** ****** ****** ****** ****** ******
      ****** ****** ****** ****** ****** ****** ****** ****** ****** ******
      ****** ****** ****** ****** ****** ****** ****** ****** ****** ******
  16  ****** ****** ****** ****** ****** ****** ****** ****** ****** ******
      ****** ****** ****** ****** ****** ****** ****** ****** ****** ******
      ****** ****** ****** ****** ****** ****** ****** ****** ****** ******
  17  ****** ****** ****** ****** ****** ****** ****** ****** ****** ******
      ****** ****** ****** ****** ****** ****** ****** ****** ****** ******
      ****** ****** ****** ****** ****** ****** ****** ****** ****** ******
  18  ****** ****** ****** ****** ****** ****** ****** ****** ****** ******
      ****** ****** ****** ****** ****** ****** ****** ****** ****** ******
      ****** ****** ****** ****** ****** ****** ****** ****** ****** ******
  19  ****** ****** ****** ****** ****** ****** ****** ****** ****** ******
      ****** ****** ****** ****** ****** ****** ****** ****** ****** ******
      ****** ****** ****** ****** ****** ****** ****** ****** ****** ******
  20  ****** ****** ****** ****** ****** ****** ****** ****** ****** ******
      ****** ****** ****** ****** ****** ****** ****** ****** ****** ******
      ****** ****** ****** ****** ****** ****** ****** ****** ****** ******
  21  ****** ****** ****** ****** ****** ****** ****** ****** ****** ******
      ****** ****** ****** ****** ****** ****** ****** ****** ****** ******
      ****** ****** ****** ****** ****** ****** ****** ****** ****** ******
  22  ****** ****** ****** ****** ****** ****** ****** ****** ****** ******
      ****** ****** ****** ****** ****** ****** ****** ****** ****** ******
      ****** ****** ****** ****** ****** ****** ****** ****** ****** ******
  23  ****** ****** ****** ****** ****** ****** ****** ****** ****** ******
      ****** ****** ****** ****** ****** ****** ****** ****** ****** ******
      ****** ****** ****** ****** ****** ****** ****** ****** ****** ******
  24  ****** ****** ****** ****** ****** ****** ****** ****** ****** ******
      ****** ****** ****** ****** ****** ****** ****** ****** ****** ******
      ****** ****** ****** ****** ****** ****** ****** ****** ****** ******
  25  ****** ****** ****** ****** ****** ****** ****** ****** ****** ******
      ****** ****** ****** ****** ****** ****** ****** ****** ****** ******
      ****** ****** ****** ****** ****** ****** ****** ****** ****** ******

 HEAD WILL BE SAVED ON UNIT   51 AT END OF TIME STEP    1, STRESS PERIOD    6
1
  VOLUMETRIC BUDGET FOR ENTIRE MODEL AT END OF TIME STEP    1, STRESS PERIOD   6
  ------------------------------------------------------------------------------

     CUMULATIVE VOLUMES      L**3       RATES FOR THIS TIME STEP      L**3/T
     ------------------                 ------------------------

           IN:                                      IN:
           ---                                      ---
             STORAGE =    32643568.3367               STORAGE =           4.5576
       CONSTANT HEAD =    14471110.3590         CONSTANT HEAD =       32412.6391
               WELLS =           0.0000                 WELLS =           0.0000
            RECHARGE =    15097200.0000              RECHARGE =       55200.0000
      STREAM LEAKAGE =     5128292.7221        STREAM LEAKAGE =       11078.4691

            TOTAL IN =    67340171.4178              TOTAL IN =       98695.6658

          OUT:                                     OUT:
          ----                                     ----
             STORAGE =      728765.4014               STORAGE =        7996.4392
       CONSTANT HEAD =           0.0000         CONSTANT HEAD =           0.0000
               WELLS =    21962492.8342                 WELLS =       40077.5417
            RECHARGE =           0.0000              RECHARGE =           0.0000
      STREAM LEAKAGE =    44648915.2852        STREAM LEAKAGE =       50621.6821

           TOTAL OUT =    67340173.5207             TOTAL OUT =       98695.6629

            IN - OUT =          -2.1029              IN - OUT =       2.8672E-03

 PERCENT DISCREPANCY =          -0.00     PERCENT DISCREPANCY =           0.00






         TIME SUMMARY AT END OF TIME STEP    1 IN STRESS PERIOD    6
                    SECONDS     MINUTES      HOURS       DAYS        YEARS
                    -----------------------------------------------------------
   TIME STEP LENGTH 7.86240E+06 1.31040E+05  2184.0      91.000     0.24914    
 STRESS PERIOD TIME 7.86240E+06 1.31040E+05  2184.0      91.000     0.24914    
         TOTAL TIME 4.73472E+07 7.89120E+05  13152.      548.00      1.5003    
1
1
                            STRESS PERIOD NO.    7, LENGTH =   91.00000    
                            -----------------------------------------------

                              NUMBER OF TIME STEPS =     1

                               MULTIPLIER FOR DELT =     1.500

                            INITIAL TIME STEP SIZE =   91.00000    

 WELL NO.  LAYER   ROW   COL   STRESS RATE         
 --------------------------------------------------
      1      1      5     14      -8335.    
      2      1     14     19     -0.1115E+05
      3      1     20     20      -8343.    
      4      1      5     29     -0.1225E+05

      4 WELLS

                 RECHARGE =   0.00000    

 REUSING STREAM SEGMENT DATA FROM LAST STRESS PERIOD
 
 SOLVING FOR HEAD 


     7 CALLS TO PCG ROUTINE FOR TIME STEP   1 IN STRESS PERIOD    7
    26 TOTAL ITERATIONS

 OUTPUT CONTROL FOR STRESS PERIOD    7   TIME STEP    1
    SAVE BUDGET
    SAVE HEAD FOR ALL LAYERS
    PRINT HEAD FOR ALL LAYERS
 UBDSV2 SAVING "STREAMFLOW OUT  " ON UNIT  50 AT TIME STEP  1, STRESS PERIOD   7



 STREAM LISTING     PERIOD      7   STEP        1

 LAYER ROW COL. STREAM  RCH.  FLOW INTO     FLOW TO   FLOW OUT OF   OVRLND.     DIRECT     STREAM       STREAM     STREAM     STREAM   STREAMBED  STREAMBED
                SEG.NO.  NO.  STRM. RCH.    AQUIFER    STRM. RCH.    RUNOFF     PRECIP       ET          HEAD       DEPTH      WIDTH   CONDCTNC.   GRADIENT

   1   13    1     1     1    1.0000E+05 -1.5891E+03   1.0159E+05  0.000E+00  0.000E+00  0.000E+00  4.84067E+01  1.453E-01  2.000E+01  2.000E+04 -7.946E-02
   1   13    2     1     2    1.0159E+05 -2.5419E+03   1.0413E+05  0.000E+00  0.000E+00  0.000E+00  4.79312E+01  1.471E-01  2.000E+01  2.000E+04 -1.271E-01
   1   14    3     1     3    1.0413E+05 -3.8927E+02   1.0452E+05  0.000E+00  0.000E+00  0.000E+00  4.74552E+01  1.484E-01  2.000E+01  2.000E+04 -1.946E-02
   1   15    4     1     4    1.0452E+05 -3.5901E+02   1.0488E+05  0.000E+00  0.000E+00  0.000E+00  4.69782E+01  1.487E-01  2.000E+01  2.000E+04 -1.795E-02
   1   16    5     1     5    1.0488E+05 -1.3958E+03   1.0628E+05  0.000E+00  0.000E+00  0.000E+00  4.65017E+01  1.494E-01  2.000E+01  2.000E+04 -6.979E-02
   1   16    6     1     6    1.0628E+05 -8.8146E+02   1.0716E+05  0.000E+00  0.000E+00  0.000E+00  4.60254E+01  1.504E-01  2.000E+01  2.000E+04 -4.407E-02
   1   16    7     1     7    1.0716E+05 -8.5604E+02   1.0801E+05  0.000E+00  0.000E+00  0.000E+00  4.55489E+01  1.511E-01  2.000E+01  2.000E+04 -4.280E-02
   1   16    8     1     8    1.0801E+05 -8.3329E+02   1.0885E+05  0.000E+00  0.000E+00  0.000E+00  4.50723E+01  1.518E-01  2.000E+01  2.000E+04 -4.166E-02
   1   16    9     1     9    1.0885E+05 -7.9604E+02   1.0964E+05  0.000E+00  0.000E+00  0.000E+00  4.45957E+01  1.525E-01  2.000E+01  2.000E+04 -3.980E-02
   1   16   10     1    10    1.0964E+05 -7.4003E+02   1.1038E+05  0.000E+00  0.000E+00  0.000E+00  4.41191E+01  1.532E-01  2.000E+01  2.000E+04 -3.700E-02
   1   16   11     1    11    1.1038E+05 -6.6776E+02   1.1105E+05  0.000E+00  0.000E+00  0.000E+00  4.36424E+01  1.538E-01  2.000E+01  2.000E+04 -3.339E-02
   1   16   12     1    12    1.1105E+05 -8.8531E+02   1.1193E+05  0.000E+00  0.000E+00  0.000E+00  4.31658E+01  1.544E-01  2.000E+01  2.000E+04 -4.427E-02
   1   15   13     1    13    1.1193E+05 -6.4240E+02   1.1258E+05  0.000E+00  0.000E+00  0.000E+00  4.26891E+01  1.550E-01  2.000E+01  2.000E+04 -3.212E-02
   1   14   14     1    14    1.1258E+05 -6.7645E+02   1.1325E+05  0.000E+00  0.000E+00  0.000E+00  4.22124E+01  1.556E-01  2.000E+01  2.000E+04 -3.382E-02
   1   13   15     1    15    1.1325E+05 -7.4913E+02   1.1400E+05  0.000E+00  0.000E+00  0.000E+00  4.17357E+01  1.562E-01  2.000E+01  2.000E+04 -3.746E-02
   1   12   16     1    16    1.1400E+05 -1.4356E+03   1.1544E+05  0.000E+00  0.000E+00  0.000E+00  4.12593E+01  1.571E-01  2.000E+01  2.000E+04 -7.178E-02
   1   12   17     1    17    1.1544E+05 -4.8378E+02   1.1592E+05  0.000E+00  0.000E+00  0.000E+00  4.07829E+01  1.579E-01  2.000E+01  2.000E+04 -2.419E-02
   1   12   18     1    18    1.1592E+05 -2.0493E+01   1.1594E+05  0.000E+00  0.000E+00  0.000E+00  4.03058E+01  1.581E-01  2.000E+01  2.000E+04 -1.025E-03
   1   12   19     1    19    1.1594E+05 -4.9002E+01   1.1599E+05  0.000E+00  0.000E+00  0.000E+00  3.98286E+01  1.581E-01  2.000E+01  2.000E+04 -2.450E-03
   1   13   20     1    20    1.1599E+05  1.8928E+03   1.1410E+05  0.000E+00  0.000E+00  0.000E+00  3.93505E+01  1.573E-01  2.000E+01  2.000E+04  9.464E-02
   1   14   21     1    21    1.1410E+05  1.5799E+03   1.1252E+05  0.000E+00  0.000E+00  0.000E+00  3.88718E+01  1.559E-01  2.000E+01  2.000E+04  7.900E-02
   1   14   22     1    22    1.1252E+05  5.2919E+03   1.0723E+05  0.000E+00  0.000E+00  0.000E+00  3.83917E+01  1.531E-01  2.000E+01  2.000E+04  2.646E-01
   1    9   30     2     1    5.0000E+04  1.5342E+03   4.8466E+04  0.000E+00  0.000E+00  0.000E+00  4.02398E+01  1.148E-01  2.000E+01  2.000E+04  7.671E-02
   1    9   29     2     2    4.8466E+04  1.1520E+03   4.7314E+04  0.000E+00  0.000E+00  0.000E+00  3.99879E+01  1.129E-01  2.000E+01  2.000E+04  5.760E-02
   1    9   28     2     3    4.7314E+04  7.0544E+02   4.6608E+04  0.000E+00  0.000E+00  0.000E+00  3.97366E+01  1.116E-01  2.000E+01  2.000E+04  3.527E-02
   1    9   27     2     4    4.6608E+04 -1.8191E+02   4.6790E+04  0.000E+00  0.000E+00  0.000E+00  3.94862E+01  1.112E-01  2.000E+01  2.000E+04 -9.095E-03
   1   10   26     2     5    4.6790E+04 -5.0363E+02   4.7294E+04  0.000E+00  0.000E+00  0.000E+00  3.92367E+01  1.117E-01  2.000E+01  2.000E+04 -2.518E-02
   1   11   25     2     6    4.7294E+04 -6.6519E+02   4.7959E+04  0.000E+00  0.000E+00  0.000E+00  3.89875E+01  1.125E-01  2.000E+01  2.000E+04 -3.326E-02
   1   12   24     2     7    4.7959E+04 -8.9681E+02   4.8856E+04  0.000E+00  0.000E+00  0.000E+00  3.87386E+01  1.136E-01  2.000E+01  2.000E+04 -4.484E-02
   1   13   23     2     8    4.8856E+04 -1.2459E+02   4.8981E+04  0.000E+00  0.000E+00  0.000E+00  3.84894E+01  1.144E-01  2.000E+01  2.000E+04 -6.230E-03
   1   14   22     2     9    4.8981E+04  2.2156E+03   4.6765E+04  0.000E+00  0.000E+00  0.000E+00  3.82379E+01  1.129E-01  2.000E+01  2.000E+04  1.108E-01
   1   14   22     3     1    1.5399E+05 -8.2706E+03   1.6226E+05  0.000E+00  0.000E+00  0.000E+00  3.77136E+01  1.580E-01  2.000E+01  2.000E+04 -4.135E-01
   1   15   23     3     2    1.6226E+05 -1.6914E+02   1.6243E+05  0.000E+00  0.000E+00  0.000E+00  3.68272E+01  1.605E-01  2.000E+01  2.000E+04 -8.457E-03
   1   15   24     3     3    1.6243E+05 -1.4010E+02   1.6257E+05  0.000E+00  0.000E+00  0.000E+00  3.59384E+01  1.606E-01  2.000E+01  2.000E+04 -7.005E-03
   1   15   25     3     4    1.6257E+05 -1.6041E+02   1.6273E+05  0.000E+00  0.000E+00  0.000E+00  3.50496E+01  1.607E-01  2.000E+01  2.000E+04 -8.020E-03
   1   15   26     3     5    1.6273E+05 -2.2870E+02   1.6296E+05  0.000E+00  0.000E+00  0.000E+00  3.41608E+01  1.608E-01  2.000E+01  2.000E+04 -1.143E-02
   1   16   27     3     6    1.6296E+05 -2.2874E+02   1.6319E+05  0.000E+00  0.000E+00  0.000E+00  3.32721E+01  1.610E-01  2.000E+01  2.000E+04 -1.144E-02
   1   17   28     3     7    1.6319E+05 -1.1158E+03   1.6431E+05  0.000E+00  0.000E+00  0.000E+00  3.23836E+01  1.614E-01  2.000E+01  2.000E+04 -5.579E-02
   1   18   29     3     8    1.6431E+05 -2.2062E+03   1.6651E+05  0.000E+00  0.000E+00  0.000E+00  3.14957E+01  1.623E-01  2.000E+01  2.000E+04 -1.103E-01
   1   18   30     3     9    1.6651E+05 -2.7179E+03   1.6923E+05  0.000E+00  0.000E+00  0.000E+00  3.06082E+01  1.638E-01  2.000E+01  2.000E+04 -1.359E-01



1
              HEAD IN LAYER   1 AT END OF TIME STEP   1 IN STRESS PERIOD    7
  ---------------------------------------------------------------------------

          1      2      3      4      5      6      7      8      9     10
         11     12     13     14     15     16     17     18     19     20
         21     22     23     24     25     26     27     28     29     30
 .........................................................................
   1  ****** ****** ****** ****** ****** ****** ****** ****** ****** ******
      ****** ****** ****** ****** ****** ****** ****** ****** ****** ******
      ****** ****** ****** ****** ****** ****** ****** ****** ****** ******
   2  ****** ****** ****** ****** ****** ****** ****** ****** ****** ******
      ****** ****** ****** ****** ****** ****** ****** ****** ****** ******
      ****** ****** ****** ****** ****** ****** ****** ****** ****** ******
   3  ****** ****** ****** ****** ****** ****** ****** ****** ****** ******
      ****** ****** ****** ****** ****** ****** ****** ****** ****** ******
      ****** ****** ****** ****** ****** ****** ****** ****** ****** ******
   4  ****** ****** ****** ****** ****** ****** ****** ****** ****** ******
      ****** ****** ****** ****** ****** ****** ****** ****** ****** ******
      ****** ****** ****** ****** ****** ****** ****** ****** ****** ******
   5  ****** ****** ****** ****** ****** ****** ****** ****** ****** ******
      ****** ****** ****** ****** ****** ****** ****** ****** ****** ******
      ****** ****** ****** ****** ****** ****** ****** ****** ****** ******
   6  ****** ****** ****** ****** ****** ****** ****** ****** ****** ******
      ****** ****** ****** ****** ****** ****** ****** ****** ****** ******
      ****** ****** ****** ****** ****** ****** ****** ****** ****** ******
   7  ****** ****** ****** ****** ****** ****** ****** ****** ****** ******
      ****** ****** ****** ****** ****** ****** ****** ****** ****** ******
      ****** ****** ****** ****** ****** ****** ****** ****** ****** ******
   8  ****** ****** ****** ****** ****** ****** ****** ****** ****** ******
      ****** ****** ****** ****** ****** ****** ****** ****** ****** ******
      ****** ****** ****** ****** ****** ****** ****** ****** ****** ******
   9  ****** ****** ****** ****** ****** ****** ****** ****** ****** ******
      ****** ****** ****** ****** ****** ****** ****** ****** ****** ******
      ****** ****** ****** ****** ****** ****** ****** ****** ****** ******
  10  ****** ****** ****** ****** ****** ****** ****** ****** ****** ******
      ****** ****** ****** ****** ****** ****** ****** ****** ****** ******
      ****** ****** ****** ****** ****** ****** ****** ****** ****** ******
  11  ****** ****** ****** ****** ****** ****** ****** ****** ****** ******
      ****** ****** ****** ****** ****** ****** ****** ****** ****** ******
      ****** ****** ****** ****** ****** ****** ****** ****** ****** ******
  12  ****** ****** ****** ****** ****** ****** ****** ****** ****** ******
      ****** ****** ****** ****** ****** ****** ****** ****** ****** ******
      ****** ****** ****** ****** ****** ****** ****** ****** ****** ******
  13  ****** ****** ****** ****** ****** ****** ****** ****** ****** ******
      ****** ****** ****** ****** ****** ****** ****** ****** ****** ******
      ****** ****** ****** ****** ****** ****** ****** ****** ****** ******
  14  ****** ****** ****** ****** ****** ****** ****** ****** ****** ******
      ****** ****** ****** ****** ****** ****** ****** ****** ****** ******
      ****** ****** ****** ****** ****** ****** ****** ****** ****** ******
  15  ****** ****** ****** ****** ****** ****** ****** ****** ****** ******
      ****** ****** ****** ****** ****** ****** ****** ****** ****** ******
      ****** ****** ****** ****** ****** ****** ****** ****** ****** ******
  16  ****** ****** ****** ****** ****** ****** ****** ****** ****** ******
      ****** ****** ****** ****** ****** ****** ****** ****** ****** ******
      ****** ****** ****** ****** ****** ****** ****** ****** ****** ******
  17  ****** ****** ****** ****** ****** ****** ****** ****** ****** ******
      ****** ****** ****** ****** ****** ****** ****** ****** ****** ******
      ****** ****** ****** ****** ****** ****** ****** ****** ****** ******
  18  ****** ****** ****** ****** ****** ****** ****** ****** ****** ******
      ****** ****** ****** ****** ****** ****** ****** ****** ****** ******
      ****** ****** ****** ****** ****** ****** ****** ****** ****** ******
  19  ****** ****** ****** ****** ****** ****** ****** ****** ****** ******
      ****** ****** ****** ****** ****** ****** ****** ****** ****** ******
      ****** ****** ****** ****** ****** ****** ****** ****** ****** ******
  20  ****** ****** ****** ****** ****** ****** ****** ****** ****** ******
      ****** ****** ****** ****** ****** ****** ****** ****** ****** ******
      ****** ****** ****** ****** ****** ****** ****** ****** ****** ******
  21  ****** ****** ****** ****** ****** ****** ****** ****** ****** ******
      ****** ****** ****** ****** ****** ****** ****** ****** ****** ******
      ****** ****** ****** ****** ****** ****** ****** ****** ****** ******
  22  ****** ****** ****** ****** ****** ****** ****** ****** ****** ******
      ****** ****** ****** ****** ****** ****** ****** ****** ****** ******
      ****** ****** ****** ****** ****** ****** ****** ****** ****** ******
  23  ****** ****** ****** ****** ****** ****** ****** ****** ****** ******
      ****** ****** ****** ****** ****** ****** ****** ****** ****** ******
      ****** ****** ****** ****** ****** ****** ****** ****** ****** ******
  24  ****** ****** ****** ****** ****** ****** ****** ****** ****** ******
      ****** ****** ****** ****** ****** ****** ****** ****** ****** ******
      ****** ****** ****** ****** ****** ****** ****** ****** ****** ******
  25  ****** ****** ****** ****** ****** ****** ****** ****** ****** ******
      ****** ****** ****** ****** ****** ****** ****** ****** ****** ******
      ****** ****** ****** ****** ****** ****** ****** ****** ****** ******

 HEAD WILL BE SAVED ON UNIT   51 AT END OF TIME STEP    1, STRESS PERIOD    7
1
  VOLUMETRIC BUDGET FOR ENTIRE MODEL AT END OF TIME STEP    1, STRESS PERIOD   7
  ------------------------------------------------------------------------------

     CUMULATIVE VOLUMES      L**3       RATES FOR THIS TIME STEP      L**3/T
     ------------------                 ------------------------

           IN:                                      IN:
           ---                                      ---
             STORAGE =    34726825.1137               STORAGE =       22892.9316
       CONSTANT HEAD =    17784828.2577         CONSTANT HEAD =       36414.4824
               WELLS =           0.0000                 WELLS =           0.0000
            RECHARGE =    15097200.0000              RECHARGE =           0.0000
      STREAM LEAKAGE =     6436121.7410        STREAM LEAKAGE =       14371.7475

            TOTAL IN =    74044975.1124              TOTAL IN =       73679.1615

          OUT:                                     OUT:
          ----                                     ----
             STORAGE =      728765.4014               STORAGE =           0.0000
       CONSTANT HEAD =           0.0000         CONSTANT HEAD =           0.0000
               WELLS =    25609549.1260                 WELLS =       40077.5417
            RECHARGE =           0.0000              RECHARGE =           0.0000
      STREAM LEAKAGE =    47706663.1985        STREAM LEAKAGE =       33601.6254

           TOTAL OUT =    74044977.7258             TOTAL OUT =       73679.1671

            IN - OUT =          -2.6135              IN - OUT =      -5.6105E-03

 PERCENT DISCREPANCY =          -0.00     PERCENT DISCREPANCY =          -0.00






         TIME SUMMARY AT END OF TIME STEP    1 IN STRESS PERIOD    7
                    SECONDS     MINUTES      HOURS       DAYS        YEARS
                    -----------------------------------------------------------
   TIME STEP LENGTH 7.86240E+06 1.31040E+05  2184.0      91.000     0.24914    
 STRESS PERIOD TIME 7.86240E+06 1.31040E+05  2184.0      91.000     0.24914    
         TOTAL TIME 5.52096E+07 9.20160E+05  15336.      639.00      1.7495    
1
1
                            STRESS PERIOD NO.    8, LENGTH =   91.00000    
                            -----------------------------------------------

                              NUMBER OF TIME STEPS =     1

                               MULTIPLIER FOR DELT =     1.500

                            INITIAL TIME STEP SIZE =   91.00000    

 WELL NO.  LAYER   ROW   COL   STRESS RATE         
 --------------------------------------------------
      1      1      5     14      -8335.    
      2      1     14     19     -0.1115E+05
      3      1     20     20      -8343.    
      4      1      5     29     -0.1225E+05

      4 WELLS

                 RECHARGE =  1.000000E-03

 REUSING STREAM SEGMENT DATA FROM LAST STRESS PERIOD
 
 SOLVING FOR HEAD 


     6 CALLS TO PCG ROUTINE FOR TIME STEP   1 IN STRESS PERIOD    8
    22 TOTAL ITERATIONS

 OUTPUT CONTROL FOR STRESS PERIOD    8   TIME STEP    1
    SAVE BUDGET
    SAVE HEAD FOR ALL LAYERS
    PRINT HEAD FOR ALL LAYERS
 UBDSV2 SAVING "STREAMFLOW OUT  " ON UNIT  50 AT TIME STEP  1, STRESS PERIOD   8



 STREAM LISTING     PERIOD      8   STEP        1

 LAYER ROW COL. STREAM  RCH.  FLOW INTO     FLOW TO   FLOW OUT OF   OVRLND.     DIRECT     STREAM       STREAM     STREAM     STREAM   STREAMBED  STREAMBED
                SEG.NO.  NO.  STRM. RCH.    AQUIFER    STRM. RCH.    RUNOFF     PRECIP       ET          HEAD       DEPTH      WIDTH   CONDCTNC.   GRADIENT

   1   13    1     1     1    1.0000E+05 -1.6538E+03   1.0165E+05  0.000E+00  0.000E+00  0.000E+00  4.84067E+01  1.454E-01  2.000E+01  2.000E+04 -8.269E-02
   1   13    2     1     2    1.0165E+05 -2.6047E+03   1.0426E+05  0.000E+00  0.000E+00  0.000E+00  4.79313E+01  1.472E-01  2.000E+01  2.000E+04 -1.302E-01
   1   14    3     1     3    1.0426E+05 -4.5185E+02   1.0471E+05  0.000E+00  0.000E+00  0.000E+00  4.74553E+01  1.485E-01  2.000E+01  2.000E+04 -2.259E-02
   1   15    4     1     4    1.0471E+05 -4.2648E+02   1.0514E+05  0.000E+00  0.000E+00  0.000E+00  4.69784E+01  1.489E-01  2.000E+01  2.000E+04 -2.132E-02
   1   16    5     1     5    1.0514E+05 -1.5677E+03   1.0670E+05  0.000E+00  0.000E+00  0.000E+00  4.65020E+01  1.497E-01  2.000E+01  2.000E+04 -7.839E-02
   1   16    6     1     6    1.0670E+05 -9.8673E+02   1.0769E+05  0.000E+00  0.000E+00  0.000E+00  4.60258E+01  1.508E-01  2.000E+01  2.000E+04 -4.934E-02
   1   16    7     1     7    1.0769E+05 -9.5615E+02   1.0865E+05  0.000E+00  0.000E+00  0.000E+00  4.55494E+01  1.516E-01  2.000E+01  2.000E+04 -4.781E-02
   1   16    8     1     8    1.0865E+05 -9.3249E+02   1.0958E+05  0.000E+00  0.000E+00  0.000E+00  4.50729E+01  1.524E-01  2.000E+01  2.000E+04 -4.662E-02
   1   16    9     1     9    1.0958E+05 -8.9638E+02   1.1048E+05  0.000E+00  0.000E+00  0.000E+00  4.45964E+01  1.532E-01  2.000E+01  2.000E+04 -4.482E-02
   1   16   10     1    10    1.1048E+05 -8.4292E+02   1.1132E+05  0.000E+00  0.000E+00  0.000E+00  4.41198E+01  1.539E-01  2.000E+01  2.000E+04 -4.215E-02
   1   16   11     1    11    1.1132E+05 -7.7371E+02   1.1209E+05  0.000E+00  0.000E+00  0.000E+00  4.36432E+01  1.546E-01  2.000E+01  2.000E+04 -3.869E-02
   1   16   12     1    12    1.1209E+05 -1.0424E+03   1.1314E+05  0.000E+00  0.000E+00  0.000E+00  4.31667E+01  1.553E-01  2.000E+01  2.000E+04 -5.212E-02
   1   15   13     1    13    1.1314E+05 -8.0457E+02   1.1394E+05  0.000E+00  0.000E+00  0.000E+00  4.26902E+01  1.561E-01  2.000E+01  2.000E+04 -4.023E-02
   1   14   14     1    14    1.1394E+05 -8.3011E+02   1.1477E+05  0.000E+00  0.000E+00  0.000E+00  4.22136E+01  1.568E-01  2.000E+01  2.000E+04 -4.151E-02
   1   13   15     1    15    1.1477E+05 -8.8864E+02   1.1566E+05  0.000E+00  0.000E+00  0.000E+00  4.17370E+01  1.575E-01  2.000E+01  2.000E+04 -4.443E-02
   1   12   16     1    16    1.1566E+05 -1.5347E+03   1.1719E+05  0.000E+00  0.000E+00  0.000E+00  4.12607E+01  1.585E-01  2.000E+01  2.000E+04 -7.674E-02
   1   12   17     1    17    1.1719E+05 -5.8820E+02   1.1778E+05  0.000E+00  0.000E+00  0.000E+00  4.07843E+01  1.593E-01  2.000E+01  2.000E+04 -2.941E-02
   1   12   18     1    18    1.1778E+05 -1.3242E+02   1.1791E+05  0.000E+00  0.000E+00  0.000E+00  4.03074E+01  1.596E-01  2.000E+01  2.000E+04 -6.621E-03
   1   12   19     1    19    1.1791E+05 -1.9061E+02   1.1810E+05  0.000E+00  0.000E+00  0.000E+00  3.98302E+01  1.598E-01  2.000E+01  2.000E+04 -9.530E-03
   1   13   20     1    20    1.1810E+05  1.7194E+03   1.1639E+05  0.000E+00  0.000E+00  0.000E+00  3.93523E+01  1.591E-01  2.000E+01  2.000E+04  8.597E-02
   1   14   21     1    21    1.1639E+05  1.4259E+03   1.1496E+05  0.000E+00  0.000E+00  0.000E+00  3.88738E+01  1.579E-01  2.000E+01  2.000E+04  7.130E-02
   1   14   22     1    22    1.1496E+05  5.2446E+03   1.0971E+05  0.000E+00  0.000E+00  0.000E+00  3.83937E+01  1.551E-01  2.000E+01  2.000E+04  2.622E-01
   1    9   30     2     1    5.0000E+04  1.3734E+03   4.8627E+04  0.000E+00  0.000E+00  0.000E+00  4.02399E+01  1.149E-01  2.000E+01  2.000E+04  6.867E-02
   1    9   29     2     2    4.8627E+04  9.9419E+02   4.7632E+04  0.000E+00  0.000E+00  0.000E+00  3.99882E+01  1.132E-01  2.000E+01  2.000E+04  4.971E-02
   1    9   28     2     3    4.7632E+04  5.5359E+02   4.7079E+04  0.000E+00  0.000E+00  0.000E+00  3.97371E+01  1.121E-01  2.000E+01  2.000E+04  2.768E-02
   1    9   27     2     4    4.7079E+04 -3.5417E+02   4.7433E+04  0.000E+00  0.000E+00  0.000E+00  3.94870E+01  1.120E-01  2.000E+01  2.000E+04 -1.771E-02
   1   10   26     2     5    4.7433E+04 -7.0429E+02   4.8137E+04  0.000E+00  0.000E+00  0.000E+00  3.92378E+01  1.128E-01  2.000E+01  2.000E+04 -3.521E-02
   1   11   25     2     6    4.8137E+04 -8.6480E+02   4.9002E+04  0.000E+00  0.000E+00  0.000E+00  3.89889E+01  1.139E-01  2.000E+01  2.000E+04 -4.324E-02
   1   12   24     2     7    4.9002E+04 -1.0778E+03   5.0080E+04  0.000E+00  0.000E+00  0.000E+00  3.87402E+01  1.152E-01  2.000E+01  2.000E+04 -5.389E-02
   1   13   23     2     8    5.0080E+04 -1.9824E+02   5.0278E+04  0.000E+00  0.000E+00  0.000E+00  3.84911E+01  1.161E-01  2.000E+01  2.000E+04 -9.912E-03
   1   14   22     2     9    5.0278E+04  2.1646E+03   4.8113E+04  0.000E+00  0.000E+00  0.000E+00  3.82397E+01  1.147E-01  2.000E+01  2.000E+04  1.082E-01
   1   14   22     3     1    1.5783E+05 -8.3128E+03   1.6614E+05  0.000E+00  0.000E+00  0.000E+00  3.77159E+01  1.603E-01  2.000E+01  2.000E+04 -4.156E-01
   1   15   23     3     2    1.6614E+05 -2.3238E+02   1.6637E+05  0.000E+00  0.000E+00  0.000E+00  3.68295E+01  1.628E-01  2.000E+01  2.000E+04 -1.162E-02
   1   15   24     3     3    1.6637E+05 -2.0004E+02   1.6657E+05  0.000E+00  0.000E+00  0.000E+00  3.59407E+01  1.630E-01  2.000E+01  2.000E+04 -1.000E-02
   1   15   25     3     4    1.6657E+05 -2.2213E+02   1.6680E+05  0.000E+00  0.000E+00  0.000E+00  3.50520E+01  1.631E-01  2.000E+01  2.000E+04 -1.111E-02
   1   15   26     3     5    1.6680E+05 -3.0301E+02   1.6710E+05  0.000E+00  0.000E+00  0.000E+00  3.41632E+01  1.632E-01  2.000E+01  2.000E+04 -1.515E-02
   1   16   27     3     6    1.6710E+05 -3.0995E+02   1.6741E+05  0.000E+00  0.000E+00  0.000E+00  3.32745E+01  1.634E-01  2.000E+01  2.000E+04 -1.550E-02
   1   17   28     3     7    1.6741E+05 -1.3174E+03   1.6873E+05  0.000E+00  0.000E+00  0.000E+00  3.23861E+01  1.639E-01  2.000E+01  2.000E+04 -6.587E-02
   1   18   29     3     8    1.6873E+05 -2.3672E+03   1.7109E+05  0.000E+00  0.000E+00  0.000E+00  3.14983E+01  1.650E-01  2.000E+01  2.000E+04 -1.184E-01
   1   18   30     3     9    1.7109E+05 -2.8619E+03   1.7396E+05  0.000E+00  0.000E+00  0.000E+00  3.06109E+01  1.665E-01  2.000E+01  2.000E+04 -1.431E-01



1
              HEAD IN LAYER   1 AT END OF TIME STEP   1 IN STRESS PERIOD    8
  ---------------------------------------------------------------------------

          1      2      3      4      5      6      7      8      9     10
         11     12     13     14     15     16     17     18     19     20
         21     22     23     24     25     26     27     28     29     30
 .........................................................................
   1  ****** ****** ****** ****** ****** ****** ****** ****** ****** ******
      ****** ****** ****** ****** ****** ****** ****** ****** ****** ******
      ****** ****** ****** ****** ****** ****** ****** ****** ****** ******
   2  ****** ****** ****** ****** ****** ****** ****** ****** ****** ******
      ****** ****** ****** ****** ****** ****** ****** ****** ****** ******
      ****** ****** ****** ****** ****** ****** ****** ****** ****** ******
   3  ****** ****** ****** ****** ****** ****** ****** ****** ****** ******
      ****** ****** ****** ****** ****** ****** ****** ****** ****** ******
      ****** ****** ****** ****** ****** ****** ****** ****** ****** ******
   4  ****** ****** ****** ****** ****** ****** ****** ****** ****** ******
      ****** ****** ****** ****** ****** ****** ****** ****** ****** ******
      ****** ****** ****** ****** ****** ****** ****** ****** ****** ******
   5  ****** ****** ****** ****** ****** ****** ****** ****** ****** ******
      ****** ****** ****** ****** ****** ****** ****** ****** ****** ******
      ****** ****** ****** ****** ****** ****** ****** ****** ****** ******
   6  ****** ****** ****** ****** ****** ****** ****** ****** ****** ******
      ****** ****** ****** ****** ****** ****** ****** ****** ****** ******
      ****** ****** ****** ****** ****** ****** ****** ****** ****** ******
   7  ****** ****** ****** ****** ****** ****** ****** ****** ****** ******
      ****** ****** ****** ****** ****** ****** ****** ****** ****** ******
      ****** ****** ****** ****** ****** ****** ****** ****** ****** ******
   8  ****** ****** ****** ****** ****** ****** ****** ****** ****** ******
      ****** ****** ****** ****** ****** ****** ****** ****** ****** ******
      ****** ****** ****** ****** ****** ****** ****** ****** ****** ******
   9  ****** ****** ****** ****** ****** ****** ****** ****** ****** ******
      ****** ****** ****** ****** ****** ****** ****** ****** ****** ******
      ****** ****** ****** ****** ****** ****** ****** ****** ****** ******
  10  ****** ****** ****** ****** ****** ****** ****** ****** ****** ******
      ****** ****** ****** ****** ****** ****** ****** ****** ****** ******
      ****** ****** ****** ****** ****** ****** ****** ****** ****** ******
  11  ****** ****** ****** ****** ****** ****** ****** ****** ****** ******
      ****** ****** ****** ****** ****** ****** ****** ****** ****** ******
      ****** ****** ****** ****** ****** ****** ****** ****** ****** ******
  12  ****** ****** ****** ****** ****** ****** ****** ****** ****** ******
      ****** ****** ****** ****** ****** ****** ****** ****** ****** ******
      ****** ****** ****** ****** ****** ****** ****** ****** ****** ******
  13  ****** ****** ****** ****** ****** ****** ****** ****** ****** ******
      ****** ****** ****** ****** ****** ****** ****** ****** ****** ******
      ****** ****** ****** ****** ****** ****** ****** ****** ****** ******
  14  ****** ****** ****** ****** ****** ****** ****** ****** ****** ******
      ****** ****** ****** ****** ****** ****** ****** ****** ****** ******
      ****** ****** ****** ****** ****** ****** ****** ****** ****** ******
  15  ****** ****** ****** ****** ****** ****** ****** ****** ****** ******
      ****** ****** ****** ****** ****** ****** ****** ****** ****** ******
      ****** ****** ****** ****** ****** ****** ****** ****** ****** ******
  16  ****** ****** ****** ****** ****** ****** ****** ****** ****** ******
      ****** ****** ****** ****** ****** ****** ****** ****** ****** ******
      ****** ****** ****** ****** ****** ****** ****** ****** ****** ******
  17  ****** ****** ****** ****** ****** ****** ****** ****** ****** ******
      ****** ****** ****** ****** ****** ****** ****** ****** ****** ******
      ****** ****** ****** ****** ****** ****** ****** ****** ****** ******
  18  ****** ****** ****** ****** ****** ****** ****** ****** ****** ******
      ****** ****** ****** ****** ****** ****** ****** ****** ****** ******
      ****** ****** ****** ****** ****** ****** ****** ****** ****** ******
  19  ****** ****** ****** ****** ****** ****** ****** ****** ****** ******
      ****** ****** ****** ****** ****** ****** ****** ****** ****** ******
      ****** ****** ****** ****** ****** ****** ****** ****** ****** ******
  20  ****** ****** ****** ****** ****** ****** ****** ****** ****** ******
      ****** ****** ****** ****** ****** ****** ****** ****** ****** ******
      ****** ****** ****** ****** ****** ****** ****** ****** ****** ******
  21  ****** ****** ****** ****** ****** ****** ****** ****** ****** ******
      ****** ****** ****** ****** ****** ****** ****** ****** ****** ******
      ****** ****** ****** ****** ****** ****** ****** ****** ****** ******
  22  ****** ****** ****** ****** ****** ****** ****** ****** ****** ******
      ****** ****** ****** ****** ****** ****** ****** ****** ****** ******
      ****** ****** ****** ****** ****** ****** ****** ****** ****** ******
  23  ****** ****** ****** ****** ****** ****** ****** ****** ****** ******
      ****** ****** ****** ****** ****** ****** ****** ****** ****** ******
      ****** ****** ****** ****** ****** ****** ****** ****** ****** ******
  24  ****** ****** ****** ****** ****** ****** ****** ****** ****** ******
      ****** ****** ****** ****** ****** ****** ****** ****** ****** ******
      ****** ****** ****** ****** ****** ****** ****** ****** ****** ******
  25  ****** ****** ****** ****** ****** ****** ****** ****** ****** ******
      ****** ****** ****** ****** ****** ****** ****** ****** ****** ******
      ****** ****** ****** ****** ****** ****** ****** ****** ****** ******

 HEAD WILL BE SAVED ON UNIT   51 AT END OF TIME STEP    1, STRESS PERIOD    8
1
  VOLUMETRIC BUDGET FOR ENTIRE MODEL AT END OF TIME STEP    1, STRESS PERIOD   8
  ------------------------------------------------------------------------------

     CUMULATIVE VOLUMES      L**3       RATES FOR THIS TIME STEP      L**3/T
     ------------------                 ------------------------

           IN:                                      IN:
           ---                                      ---
             STORAGE =    34883693.8361               STORAGE =        1723.8321
       CONSTANT HEAD =    21076074.8822         CONSTANT HEAD =       36167.5453
               WELLS =           0.0000                 WELLS =           0.0000
            RECHARGE =    17608800.0000              RECHARGE =       27600.0000
      STREAM LEAKAGE =     7662409.5205        STREAM LEAKAGE =       13475.6899

            TOTAL IN =    81230978.2389              TOTAL IN =       78967.0673

          OUT:                                     OUT:
          ----                                     ----
             STORAGE =      861511.6533               STORAGE =        1458.7500
       CONSTANT HEAD =           0.0000         CONSTANT HEAD =           0.0000
               WELLS =    29256605.4178                 WELLS =       40077.5417
            RECHARGE =           0.0000              RECHARGE =           0.0000
      STREAM LEAKAGE =    51112863.0551        STREAM LEAKAGE =       37430.7677

           TOTAL OUT =    81230980.1262             TOTAL OUT =       78967.0593

            IN - OUT =          -1.8874              IN - OUT =       7.9790E-03

 PERCENT DISCREPANCY =          -0.00     PERCENT DISCREPANCY =           0.00






         TIME SUMMARY AT END OF TIME STEP    1 IN STRESS PERIOD    8
                    SECONDS     MINUTES      HOURS       DAYS        YEARS
                    -----------------------------------------------------------
   TIME STEP LENGTH 7.86240E+06 1.31040E+05  2184.0      91.000     0.24914    
 STRESS PERIOD TIME 7.86240E+06 1.31040E+05  2184.0      91.000     0.24914    
         TOTAL TIME 6.30720E+07 1.05120E+06  17520.      730.00      1.9986    
1
1
                            STRESS PERIOD NO.    9, LENGTH =   92.00000    
                            -----------------------------------------------

                              NUMBER OF TIME STEPS =     1

                               MULTIPLIER FOR DELT =     1.500

                            INITIAL TIME STEP SIZE =   92.00000    

 WELL NO.  LAYER   ROW   COL   STRESS RATE         
 --------------------------------------------------
      1      1      5     14      -8335.    
      2      1     14     19     -0.1115E+05
      3      1     20     20      -8343.    
      4      1      5     29     -0.1225E+05

      4 WELLS

                 RECHARGE =  5.000000E-04

 REUSING STREAM SEGMENT DATA FROM LAST STRESS PERIOD
 
 SOLVING FOR HEAD 


     6 CALLS TO PCG ROUTINE FOR TIME STEP   1 IN STRESS PERIOD    9
    23 TOTAL ITERATIONS

 OUTPUT CONTROL FOR STRESS PERIOD    9   TIME STEP    1
    SAVE BUDGET
    SAVE HEAD FOR ALL LAYERS
    PRINT HEAD FOR ALL LAYERS
 UBDSV2 SAVING "STREAMFLOW OUT  " ON UNIT  50 AT TIME STEP  1, STRESS PERIOD   9



 STREAM LISTING     PERIOD      9   STEP        1

 LAYER ROW COL. STREAM  RCH.  FLOW INTO     FLOW TO   FLOW OUT OF   OVRLND.     DIRECT     STREAM       STREAM     STREAM     STREAM   STREAMBED  STREAMBED
                SEG.NO.  NO.  STRM. RCH.    AQUIFER    STRM. RCH.    RUNOFF     PRECIP       ET          HEAD       DEPTH      WIDTH   CONDCTNC.   GRADIENT

   1   13    1     1     1    1.0000E+05 -1.4328E+03   1.0143E+05  0.000E+00  0.000E+00  0.000E+00  4.84066E+01  1.453E-01  2.000E+01  2.000E+04 -7.164E-02
   1   13    2     1     2    1.0143E+05 -2.3543E+03   1.0379E+05  0.000E+00  0.000E+00  0.000E+00  4.79310E+01  1.469E-01  2.000E+01  2.000E+04 -1.177E-01
   1   14    3     1     3    1.0379E+05 -3.7992E+02   1.0417E+05  0.000E+00  0.000E+00  0.000E+00  4.74549E+01  1.481E-01  2.000E+01  2.000E+04 -1.900E-02
   1   15    4     1     4    1.0417E+05 -3.5373E+02   1.0452E+05  0.000E+00  0.000E+00  0.000E+00  4.69779E+01  1.484E-01  2.000E+01  2.000E+04 -1.769E-02
   1   16    5     1     5    1.0452E+05 -1.3741E+03   1.0589E+05  0.000E+00  0.000E+00  0.000E+00  4.65014E+01  1.491E-01  2.000E+01  2.000E+04 -6.870E-02
   1   16    6     1     6    1.0589E+05 -8.6563E+02   1.0676E+05  0.000E+00  0.000E+00  0.000E+00  4.60251E+01  1.501E-01  2.000E+01  2.000E+04 -4.328E-02
   1   16    7     1     7    1.0676E+05 -8.3868E+02   1.0760E+05  0.000E+00  0.000E+00  0.000E+00  4.55485E+01  1.508E-01  2.000E+01  2.000E+04 -4.193E-02
   1   16    8     1     8    1.0760E+05 -8.1652E+02   1.0842E+05  0.000E+00  0.000E+00  0.000E+00  4.50719E+01  1.515E-01  2.000E+01  2.000E+04 -4.083E-02
   1   16    9     1     9    1.0842E+05 -7.8205E+02   1.0920E+05  0.000E+00  0.000E+00  0.000E+00  4.45953E+01  1.522E-01  2.000E+01  2.000E+04 -3.910E-02
   1   16   10     1    10    1.0920E+05 -7.3069E+02   1.0993E+05  0.000E+00  0.000E+00  0.000E+00  4.41187E+01  1.528E-01  2.000E+01  2.000E+04 -3.653E-02
   1   16   11     1    11    1.0993E+05 -6.6256E+02   1.1059E+05  0.000E+00  0.000E+00  0.000E+00  4.36420E+01  1.534E-01  2.000E+01  2.000E+04 -3.313E-02
   1   16   12     1    12    1.1059E+05 -8.5157E+02   1.1144E+05  0.000E+00  0.000E+00  0.000E+00  4.31654E+01  1.540E-01  2.000E+01  2.000E+04 -4.258E-02
   1   15   13     1    13    1.1144E+05 -5.9128E+02   1.1203E+05  0.000E+00  0.000E+00  0.000E+00  4.26887E+01  1.546E-01  2.000E+01  2.000E+04 -2.956E-02
   1   14   14     1    14    1.1203E+05 -6.0243E+02   1.1264E+05  0.000E+00  0.000E+00  0.000E+00  4.22119E+01  1.551E-01  2.000E+01  2.000E+04 -3.012E-02
   1   13   15     1    15    1.1264E+05 -6.5436E+02   1.1329E+05  0.000E+00  0.000E+00  0.000E+00  4.17352E+01  1.556E-01  2.000E+01  2.000E+04 -3.272E-02
   1   12   16     1    16    1.1329E+05 -1.2908E+03   1.1458E+05  0.000E+00  0.000E+00  0.000E+00  4.12587E+01  1.564E-01  2.000E+01  2.000E+04 -6.454E-02
   1   12   17     1    17    1.1458E+05 -4.2165E+02   1.1500E+05  0.000E+00  0.000E+00  0.000E+00  4.07821E+01  1.571E-01  2.000E+01  2.000E+04 -2.108E-02
   1   12   18     1    18    1.1500E+05  2.6164E+01   1.1498E+05  0.000E+00  0.000E+00  0.000E+00  4.03050E+01  1.573E-01  2.000E+01  2.000E+04  1.308E-03
   1   12   19     1    19    1.1498E+05  1.8698E-01   1.1498E+05  0.000E+00  0.000E+00  0.000E+00  3.98277E+01  1.573E-01  2.000E+01  2.000E+04  9.349E-06
   1   13   20     1    20    1.1498E+05  1.8953E+03   1.1308E+05  0.000E+00  0.000E+00  0.000E+00  3.93497E+01  1.565E-01  2.000E+01  2.000E+04  9.477E-02
   1   14   21     1    21    1.1308E+05  1.5997E+03   1.1148E+05  0.000E+00  0.000E+00  0.000E+00  3.88710E+01  1.551E-01  2.000E+01  2.000E+04  7.999E-02
   1   14   22     1    22    1.1148E+05  5.2831E+03   1.0620E+05  0.000E+00  0.000E+00  0.000E+00  3.83908E+01  1.522E-01  2.000E+01  2.000E+04  2.642E-01
   1    9   30     2     1    5.0000E+04  1.4980E+03   4.8502E+04  0.000E+00  0.000E+00  0.000E+00  4.02398E+01  1.148E-01  2.000E+01  2.000E+04  7.490E-02
   1    9   29     2     2    4.8502E+04  1.1190E+03   4.7383E+04  0.000E+00  0.000E+00  0.000E+00  3.99880E+01  1.130E-01  2.000E+01  2.000E+04  5.595E-02
   1    9   28     2     3    4.7383E+04  6.8050E+02   4.6703E+04  0.000E+00  0.000E+00  0.000E+00  3.97367E+01  1.117E-01  2.000E+01  2.000E+04  3.402E-02
   1    9   27     2     4    4.6703E+04 -1.7479E+02   4.6877E+04  0.000E+00  0.000E+00  0.000E+00  3.94863E+01  1.113E-01  2.000E+01  2.000E+04 -8.740E-03
   1   10   26     2     5    4.6877E+04 -5.2839E+02   4.7406E+04  0.000E+00  0.000E+00  0.000E+00  3.92368E+01  1.118E-01  2.000E+01  2.000E+04 -2.642E-02
   1   11   25     2     6    4.7406E+04 -6.9659E+02   4.8102E+04  0.000E+00  0.000E+00  0.000E+00  3.89877E+01  1.127E-01  2.000E+01  2.000E+04 -3.483E-02
   1   12   24     2     7    4.8102E+04 -9.2303E+02   4.9025E+04  0.000E+00  0.000E+00  0.000E+00  3.87389E+01  1.139E-01  2.000E+01  2.000E+04 -4.615E-02
   1   13   23     2     8    4.9025E+04 -1.5083E+02   4.9176E+04  0.000E+00  0.000E+00  0.000E+00  3.84896E+01  1.146E-01  2.000E+01  2.000E+04 -7.542E-03
   1   14   22     2     9    4.9176E+04  2.2295E+03   4.6947E+04  0.000E+00  0.000E+00  0.000E+00  3.82381E+01  1.131E-01  2.000E+01  2.000E+04  1.115E-01
   1   14   22     3     1    1.5315E+05 -8.2722E+03   1.6142E+05  0.000E+00  0.000E+00  0.000E+00  3.77131E+01  1.575E-01  2.000E+01  2.000E+04 -4.136E-01
   1   15   23     3     2    1.6142E+05 -1.7937E+02   1.6160E+05  0.000E+00  0.000E+00  0.000E+00  3.68267E+01  1.600E-01  2.000E+01  2.000E+04 -8.969E-03
   1   15   24     3     3    1.6160E+05 -1.5677E+02   1.6175E+05  0.000E+00  0.000E+00  0.000E+00  3.59379E+01  1.601E-01  2.000E+01  2.000E+04 -7.838E-03
   1   15   25     3     4    1.6175E+05 -1.7863E+02   1.6193E+05  0.000E+00  0.000E+00  0.000E+00  3.50491E+01  1.602E-01  2.000E+01  2.000E+04 -8.932E-03
   1   15   26     3     5    1.6193E+05 -2.5527E+02   1.6219E+05  0.000E+00  0.000E+00  0.000E+00  3.41604E+01  1.604E-01  2.000E+01  2.000E+04 -1.276E-02
   1   16   27     3     6    1.6219E+05 -2.5367E+02   1.6244E+05  0.000E+00  0.000E+00  0.000E+00  3.32716E+01  1.605E-01  2.000E+01  2.000E+04 -1.268E-02
   1   17   28     3     7    1.6244E+05 -1.1630E+03   1.6360E+05  0.000E+00  0.000E+00  0.000E+00  3.23832E+01  1.609E-01  2.000E+01  2.000E+04 -5.815E-02
   1   18   29     3     8    1.6360E+05 -2.1893E+03   1.6579E+05  0.000E+00  0.000E+00  0.000E+00  3.14953E+01  1.619E-01  2.000E+01  2.000E+04 -1.095E-01
   1   18   30     3     9    1.6579E+05 -2.7285E+03   1.6852E+05  0.000E+00  0.000E+00  0.000E+00  3.06078E+01  1.634E-01  2.000E+01  2.000E+04 -1.364E-01



1
              HEAD IN LAYER   1 AT END OF TIME STEP   1 IN STRESS PERIOD    9
  ---------------------------------------------------------------------------

          1      2      3      4      5      6      7      8      9     10
         11     12     13     14     15     16     17     18     19     20
         21     22     23     24     25     26     27     28     29     30
 .........................................................................
   1  ****** ****** ****** ****** ****** ****** ****** ****** ****** ******
      ****** ****** ****** ****** ****** ****** ****** ****** ****** ******
      ****** ****** ****** ****** ****** ****** ****** ****** ****** ******
   2  ****** ****** ****** ****** ****** ****** ****** ****** ****** ******
      ****** ****** ****** ****** ****** ****** ****** ****** ****** ******
      ****** ****** ****** ****** ****** ****** ****** ****** ****** ******
   3  ****** ****** ****** ****** ****** ****** ****** ****** ****** ******
      ****** ****** ****** ****** ****** ****** ****** ****** ****** ******
      ****** ****** ****** ****** ****** ****** ****** ****** ****** ******
   4  ****** ****** ****** ****** ****** ****** ****** ****** ****** ******
      ****** ****** ****** ****** ****** ****** ****** ****** ****** ******
      ****** ****** ****** ****** ****** ****** ****** ****** ****** ******
   5  ****** ****** ****** ****** ****** ****** ****** ****** ****** ******
      ****** ****** ****** ****** ****** ****** ****** ****** ****** ******
      ****** ****** ****** ****** ****** ****** ****** ****** ****** ******
   6  ****** ****** ****** ****** ****** ****** ****** ****** ****** ******
      ****** ****** ****** ****** ****** ****** ****** ****** ****** ******
      ****** ****** ****** ****** ****** ****** ****** ****** ****** ******
   7  ****** ****** ****** ****** ****** ****** ****** ****** ****** ******
      ****** ****** ****** ****** ****** ****** ****** ****** ****** ******
      ****** ****** ****** ****** ****** ****** ****** ****** ****** ******
   8  ****** ****** ****** ****** ****** ****** ****** ****** ****** ******
      ****** ****** ****** ****** ****** ****** ****** ****** ****** ******
      ****** ****** ****** ****** ****** ****** ****** ****** ****** ******
   9  ****** ****** ****** ****** ****** ****** ****** ****** ****** ******
      ****** ****** ****** ****** ****** ****** ****** ****** ****** ******
      ****** ****** ****** ****** ****** ****** ****** ****** ****** ******
  10  ****** ****** ****** ****** ****** ****** ****** ****** ****** ******
      ****** ****** ****** ****** ****** ****** ****** ****** ****** ******
      ****** ****** ****** ****** ****** ****** ****** ****** ****** ******
  11  ****** ****** ****** ****** ****** ****** ****** ****** ****** ******
      ****** ****** ****** ****** ****** ****** ****** ****** ****** ******
      ****** ****** ****** ****** ****** ****** ****** ****** ****** ******
  12  ****** ****** ****** ****** ****** ****** ****** ****** ****** ******
      ****** ****** ****** ****** ****** ****** ****** ****** ****** ******
      ****** ****** ****** ****** ****** ****** ****** ****** ****** ******
  13  ****** ****** ****** ****** ****** ****** ****** ****** ****** ******
      ****** ****** ****** ****** ****** ****** ****** ****** ****** ******
      ****** ****** ****** ****** ****** ****** ****** ****** ****** ******
  14  ****** ****** ****** ****** ****** ****** ****** ****** ****** ******
      ****** ****** ****** ****** ****** ****** ****** ****** ****** ******
      ****** ****** ****** ****** ****** ****** ****** ****** ****** ******
  15  ****** ****** ****** ****** ****** ****** ****** ****** ****** ******
      ****** ****** ****** ****** ****** ****** ****** ****** ****** ******
      ****** ****** ****** ****** ****** ****** ****** ****** ****** ******
  16  ****** ****** ****** ****** ****** ****** ****** ****** ****** ******
      ****** ****** ****** ****** ****** ****** ****** ****** ****** ******
      ****** ****** ****** ****** ****** ****** ****** ****** ****** ******
  17  ****** ****** ****** ****** ****** ****** ****** ****** ****** ******
      ****** ****** ****** ****** ****** ****** ****** ****** ****** ******
      ****** ****** ****** ****** ****** ****** ****** ****** ****** ******
  18  ****** ****** ****** ****** ****** ****** ****** ****** ****** ******
      ****** ****** ****** ****** ****** ****** ****** ****** ****** ******
      ****** ****** ****** ****** ****** ****** ****** ****** ****** ******
  19  ****** ****** ****** ****** ****** ****** ****** ****** ****** ******
      ****** ****** ****** ****** ****** ****** ****** ****** ****** ******
      ****** ****** ****** ****** ****** ****** ****** ****** ****** ******
  20  ****** ****** ****** ****** ****** ****** ****** ****** ****** ******
      ****** ****** ****** ****** ****** ****** ****** ****** ****** ******
      ****** ****** ****** ****** ****** ****** ****** ****** ****** ******
  21  ****** ****** ****** ****** ****** ****** ****** ****** ****** ******
      ****** ****** ****** ****** ****** ****** ****** ****** ****** ******
      ****** ****** ****** ****** ****** ****** ****** ****** ****** ******
  22  ****** ****** ****** ****** ****** ****** ****** ****** ****** ******
      ****** ****** ****** ****** ****** ****** ****** ****** ****** ******
      ****** ****** ****** ****** ****** ****** ****** ****** ****** ******
  23  ****** ****** ****** ****** ****** ****** ****** ****** ****** ******
      ****** ****** ****** ****** ****** ****** ****** ****** ****** ******
      ****** ****** ****** ****** ****** ****** ****** ****** ****** ******
  24  ****** ****** ****** ****** ****** ****** ****** ****** ****** ******
      ****** ****** ****** ****** ****** ****** ****** ****** ****** ******
      ****** ****** ****** ****** ****** ****** ****** ****** ****** ******
  25  ****** ****** ****** ****** ****** ****** ****** ****** ****** ******
      ****** ****** ****** ****** ****** ****** ****** ****** ****** ******
      ****** ****** ****** ****** ****** ****** ****** ****** ****** ******

 HEAD WILL BE SAVED ON UNIT   51 AT END OF TIME STEP    1, STRESS PERIOD    9
1
  VOLUMETRIC BUDGET FOR ENTIRE MODEL AT END OF TIME STEP    1, STRESS PERIOD   9
  ------------------------------------------------------------------------------

     CUMULATIVE VOLUMES      L**3       RATES FOR THIS TIME STEP      L**3/T
     ------------------                 ------------------------

           IN:                                      IN:
           ---                                      ---
             STORAGE =    35567695.7255               STORAGE =        7434.8031
       CONSTANT HEAD =    24513620.0314         CONSTANT HEAD =       37364.6212
               WELLS =           0.0000                 WELLS =           0.0000
            RECHARGE =    18878400.0000              RECHARGE =       13800.0000
      STREAM LEAKAGE =     8980909.5082        STREAM LEAKAGE =       14331.5216

            TOTAL IN =    87940625.2651              TOTAL IN =       72930.9459

          OUT:                                     OUT:
          ----                                     ----
             STORAGE =      861511.6533               STORAGE =           0.0000
       CONSTANT HEAD =           0.0000         CONSTANT HEAD =           0.0000
               WELLS =    32943739.2512                 WELLS =       40077.5417
            RECHARGE =           0.0000              RECHARGE =           0.0000
      STREAM LEAKAGE =    54135376.3212        STREAM LEAKAGE =       32853.4051

           TOTAL OUT =    87940627.2258             TOTAL OUT =       72930.9467

            IN - OUT =          -1.9607              IN - OUT =      -7.9749E-04

 PERCENT DISCREPANCY =          -0.00     PERCENT DISCREPANCY =          -0.00






         TIME SUMMARY AT END OF TIME STEP    1 IN STRESS PERIOD    9
                    SECONDS     MINUTES      HOURS       DAYS        YEARS
                    -----------------------------------------------------------
   TIME STEP LENGTH 7.94880E+06 1.32480E+05  2208.0      92.000     0.25188    
 STRESS PERIOD TIME 7.94880E+06 1.32480E+05  2208.0      92.000     0.25188    
         TOTAL TIME 7.10208E+07 1.18368E+06  19728.      822.00      2.2505    
1
1
                            STRESS PERIOD NO.   10, LENGTH =   91.00000    
                            -----------------------------------------------

                              NUMBER OF TIME STEPS =     1

                               MULTIPLIER FOR DELT =     1.500

                            INITIAL TIME STEP SIZE =   91.00000    

 WELL NO.  LAYER   ROW   COL   STRESS RATE         
 --------------------------------------------------
      1      1      5     14      -8335.    
      2      1     14     19     -0.1115E+05
      3      1     20     20      -8343.    
      4      1      5     29     -0.1225E+05

      4 WELLS

                 RECHARGE =  2.000000E-03

 REUSING STREAM SEGMENT DATA FROM LAST STRESS PERIOD
 
 SOLVING FOR HEAD 


     7 CALLS TO PCG ROUTINE FOR TIME STEP   1 IN STRESS PERIOD   10
    26 TOTAL ITERATIONS

 OUTPUT CONTROL FOR STRESS PERIOD   10   TIME STEP    1
    SAVE BUDGET
    SAVE HEAD FOR ALL LAYERS
    PRINT HEAD FOR ALL LAYERS
 UBDSV2 SAVING "STREAMFLOW OUT  " ON UNIT  50 AT TIME STEP  1, STRESS PERIOD  10



 STREAM LISTING     PERIOD     10   STEP        1

 LAYER ROW COL. STREAM  RCH.  FLOW INTO     FLOW TO   FLOW OUT OF   OVRLND.     DIRECT     STREAM       STREAM     STREAM     STREAM   STREAMBED  STREAMBED
                SEG.NO.  NO.  STRM. RCH.    AQUIFER    STRM. RCH.    RUNOFF     PRECIP       ET          HEAD       DEPTH      WIDTH   CONDCTNC.   GRADIENT

   1   13    1     1     1    1.0000E+05 -1.8806E+03   1.0188E+05  0.000E+00  0.000E+00  0.000E+00  4.84068E+01  1.455E-01  2.000E+01  2.000E+04 -9.403E-02
   1   13    2     1     2    1.0188E+05 -2.8503E+03   1.0473E+05  0.000E+00  0.000E+00  0.000E+00  4.79316E+01  1.475E-01  2.000E+01  2.000E+04 -1.425E-01
   1   14    3     1     3    1.0473E+05 -5.6561E+02   1.0530E+05  0.000E+00  0.000E+00  0.000E+00  4.74558E+01  1.490E-01  2.000E+01  2.000E+04 -2.828E-02
   1   15    4     1     4    1.0530E+05 -5.5247E+02   1.0585E+05  0.000E+00  0.000E+00  0.000E+00  4.69790E+01  1.494E-01  2.000E+01  2.000E+04 -2.762E-02
   1   16    5     1     5    1.0585E+05 -1.9923E+03   1.0784E+05  0.000E+00  0.000E+00  0.000E+00  4.65028E+01  1.505E-01  2.000E+01  2.000E+04 -9.961E-02
   1   16    6     1     6    1.0784E+05 -1.2271E+03   1.0907E+05  0.000E+00  0.000E+00  0.000E+00  4.60269E+01  1.519E-01  2.000E+01  2.000E+04 -6.135E-02
   1   16    7     1     7    1.0907E+05 -1.1823E+03   1.1025E+05  0.000E+00  0.000E+00  0.000E+00  4.55506E+01  1.529E-01  2.000E+01  2.000E+04 -5.911E-02
   1   16    8     1     8    1.1025E+05 -1.1546E+03   1.1141E+05  0.000E+00  0.000E+00  0.000E+00  4.50743E+01  1.539E-01  2.000E+01  2.000E+04 -5.773E-02
   1   16    9     1     9    1.1141E+05 -1.1187E+03   1.1252E+05  0.000E+00  0.000E+00  0.000E+00  4.45980E+01  1.548E-01  2.000E+01  2.000E+04 -5.593E-02
   1   16   10     1    10    1.1252E+05 -1.0676E+03   1.1359E+05  0.000E+00  0.000E+00  0.000E+00  4.41216E+01  1.557E-01  2.000E+01  2.000E+04 -5.338E-02
   1   16   11     1    11    1.1359E+05 -1.0030E+03   1.1459E+05  0.000E+00  0.000E+00  0.000E+00  4.36452E+01  1.566E-01  2.000E+01  2.000E+04 -5.015E-02
   1   16   12     1    12    1.1459E+05 -1.4195E+03   1.1601E+05  0.000E+00  0.000E+00  0.000E+00  4.31689E+01  1.576E-01  2.000E+01  2.000E+04 -7.098E-02
   1   15   13     1    13    1.1601E+05 -1.1754E+03   1.1719E+05  0.000E+00  0.000E+00  0.000E+00  4.26927E+01  1.586E-01  2.000E+01  2.000E+04 -5.877E-02
   1   14   14     1    14    1.1719E+05 -1.1931E+03   1.1838E+05  0.000E+00  0.000E+00  0.000E+00  4.22164E+01  1.596E-01  2.000E+01  2.000E+04 -5.965E-02
   1   13   15     1    15    1.1838E+05 -1.2345E+03   1.1962E+05  0.000E+00  0.000E+00  0.000E+00  4.17401E+01  1.606E-01  2.000E+01  2.000E+04 -6.172E-02
   1   12   16     1    16    1.1962E+05 -1.8486E+03   1.2147E+05  0.000E+00  0.000E+00  0.000E+00  4.12641E+01  1.618E-01  2.000E+01  2.000E+04 -9.243E-02
   1   12   17     1    17    1.2147E+05 -8.4493E+02   1.2231E+05  0.000E+00  0.000E+00  0.000E+00  4.07879E+01  1.629E-01  2.000E+01  2.000E+04 -4.225E-02
   1   12   18     1    18    1.2231E+05 -3.9328E+02   1.2270E+05  0.000E+00  0.000E+00  0.000E+00  4.03111E+01  1.634E-01  2.000E+01  2.000E+04 -1.966E-02
   1   12   19     1    19    1.2270E+05 -5.1613E+02   1.2322E+05  0.000E+00  0.000E+00  0.000E+00  3.98342E+01  1.638E-01  2.000E+01  2.000E+04 -2.581E-02
   1   13   20     1    20    1.2322E+05  1.3754E+03   1.2184E+05  0.000E+00  0.000E+00  0.000E+00  3.93566E+01  1.634E-01  2.000E+01  2.000E+04  6.877E-02
   1   14   21     1    21    1.2184E+05  1.0759E+03   1.2077E+05  0.000E+00  0.000E+00  0.000E+00  3.88783E+01  1.624E-01  2.000E+01  2.000E+04  5.380E-02
   1   14   22     1    22    1.2077E+05  5.1562E+03   1.1561E+05  0.000E+00  0.000E+00  0.000E+00  3.83985E+01  1.599E-01  2.000E+01  2.000E+04  2.578E-01
   1    9   30     2     1    5.0000E+04  1.0843E+03   4.8916E+04  0.000E+00  0.000E+00  0.000E+00  4.02401E+01  1.151E-01  2.000E+01  2.000E+04  5.422E-02
   1    9   29     2     2    4.8916E+04  7.0772E+02   4.8208E+04  0.000E+00  0.000E+00  0.000E+00  3.99889E+01  1.139E-01  2.000E+01  2.000E+04  3.539E-02
   1    9   28     2     3    4.8208E+04  2.7014E+02   4.7938E+04  0.000E+00  0.000E+00  0.000E+00  3.97382E+01  1.132E-01  2.000E+01  2.000E+04  1.351E-02
   1    9   27     2     4    4.7938E+04 -7.2613E+02   4.8664E+04  0.000E+00  0.000E+00  0.000E+00  3.94885E+01  1.135E-01  2.000E+01  2.000E+04 -3.631E-02
   1   10   26     2     5    4.8664E+04 -1.0800E+03   4.9744E+04  0.000E+00  0.000E+00  0.000E+00  3.92398E+01  1.148E-01  2.000E+01  2.000E+04 -5.400E-02
   1   11   25     2     6    4.9744E+04 -1.2238E+03   5.0968E+04  0.000E+00  0.000E+00  0.000E+00  3.89914E+01  1.164E-01  2.000E+01  2.000E+04 -6.119E-02
   1   12   24     2     7    5.0968E+04 -1.4001E+03   5.2368E+04  0.000E+00  0.000E+00  0.000E+00  3.87432E+01  1.182E-01  2.000E+01  2.000E+04 -7.000E-02
   1   13   23     2     8    5.2368E+04 -2.9934E+02   5.2667E+04  0.000E+00  0.000E+00  0.000E+00  3.84943E+01  1.193E-01  2.000E+01  2.000E+04 -1.497E-02
   1   14   22     2     9    5.2667E+04  2.0480E+03   5.0619E+04  0.000E+00  0.000E+00  0.000E+00  3.82431E+01  1.181E-01  2.000E+01  2.000E+04  1.024E-01
   1   14   22     3     1    1.6623E+05 -8.3980E+03   1.7463E+05  0.000E+00  0.000E+00  0.000E+00  3.77208E+01  1.653E-01  2.000E+01  2.000E+04 -4.199E-01
   1   15   23     3     2    1.7463E+05 -3.4165E+02   1.7497E+05  0.000E+00  0.000E+00  0.000E+00  3.68345E+01  1.678E-01  2.000E+01  2.000E+04 -1.708E-02
   1   15   24     3     3    1.7497E+05 -2.9379E+02   1.7527E+05  0.000E+00  0.000E+00  0.000E+00  3.59458E+01  1.680E-01  2.000E+01  2.000E+04 -1.469E-02
   1   15   25     3     4    1.7527E+05 -3.1907E+02   1.7558E+05  0.000E+00  0.000E+00  0.000E+00  3.50571E+01  1.682E-01  2.000E+01  2.000E+04 -1.595E-02
   1   15   26     3     5    1.7558E+05 -4.1741E+02   1.7600E+05  0.000E+00  0.000E+00  0.000E+00  3.41684E+01  1.684E-01  2.000E+01  2.000E+04 -2.087E-02
   1   16   27     3     6    1.7600E+05 -4.3936E+02   1.7644E+05  0.000E+00  0.000E+00  0.000E+00  3.32797E+01  1.686E-01  2.000E+01  2.000E+04 -2.197E-02
   1   17   28     3     7    1.7644E+05 -1.6830E+03   1.7812E+05  0.000E+00  0.000E+00  0.000E+00  3.23915E+01  1.692E-01  2.000E+01  2.000E+04 -8.415E-02
   1   18   29     3     8    1.7812E+05 -2.7395E+03   1.8086E+05  0.000E+00  0.000E+00  0.000E+00  3.15038E+01  1.705E-01  2.000E+01  2.000E+04 -1.370E-01
   1   18   30     3     9    1.8086E+05 -3.1532E+03   1.8402E+05  0.000E+00  0.000E+00  0.000E+00  3.06166E+01  1.722E-01  2.000E+01  2.000E+04 -1.577E-01



1
              HEAD IN LAYER   1 AT END OF TIME STEP   1 IN STRESS PERIOD   10
  ---------------------------------------------------------------------------

          1      2      3      4      5      6      7      8      9     10
         11     12     13     14     15     16     17     18     19     20
         21     22     23     24     25     26     27     28     29     30
 .........................................................................
   1  ****** ****** ****** ****** ****** ****** ****** ****** ****** ******
      ****** ****** ****** ****** ****** ****** ****** ****** ****** ******
      ****** ****** ****** ****** ****** ****** ****** ****** ****** ******
   2  ****** ****** ****** ****** ****** ****** ****** ****** ****** ******
      ****** ****** ****** ****** ****** ****** ****** ****** ****** ******
      ****** ****** ****** ****** ****** ****** ****** ****** ****** ******
   3  ****** ****** ****** ****** ****** ****** ****** ****** ****** ******
      ****** ****** ****** ****** ****** ****** ****** ****** ****** ******
      ****** ****** ****** ****** ****** ****** ****** ****** ****** ******
   4  ****** ****** ****** ****** ****** ****** ****** ****** ****** ******
      ****** ****** ****** ****** ****** ****** ****** ****** ****** ******
      ****** ****** ****** ****** ****** ****** ****** ****** ****** ******
   5  ****** ****** ****** ****** ****** ****** ****** ****** ****** ******
      ****** ****** ****** ****** ****** ****** ****** ****** ****** ******
      ****** ****** ****** ****** ****** ****** ****** ****** ****** ******
   6  ****** ****** ****** ****** ****** ****** ****** ****** ****** ******
      ****** ****** ****** ****** ****** ****** ****** ****** ****** ******
      ****** ****** ****** ****** ****** ****** ****** ****** ****** ******
   7  ****** ****** ****** ****** ****** ****** ****** ****** ****** ******
      ****** ****** ****** ****** ****** ****** ****** ****** ****** ******
      ****** ****** ****** ****** ****** ****** ****** ****** ****** ******
   8  ****** ****** ****** ****** ****** ****** ****** ****** ****** ******
      ****** ****** ****** ****** ****** ****** ****** ****** ****** ******
      ****** ****** ****** ****** ****** ****** ****** ****** ****** ******
   9  ****** ****** ****** ****** ****** ****** ****** ****** ****** ******
      ****** ****** ****** ****** ****** ****** ****** ****** ****** ******
      ****** ****** ****** ****** ****** ****** ****** ****** ****** ******
  10  ****** ****** ****** ****** ****** ****** ****** ****** ****** ******
      ****** ****** ****** ****** ****** ****** ****** ****** ****** ******
      ****** ****** ****** ****** ****** ****** ****** ****** ****** ******
  11  ****** ****** ****** ****** ****** ****** ****** ****** ****** ******
      ****** ****** ****** ****** ****** ****** ****** ****** ****** ******
      ****** ****** ****** ****** ****** ****** ****** ****** ****** ******
  12  ****** ****** ****** ****** ****** ****** ****** ****** ****** ******
      ****** ****** ****** ****** ****** ****** ****** ****** ****** ******
      ****** ****** ****** ****** ****** ****** ****** ****** ****** ******
  13  ****** ****** ****** ****** ****** ****** ****** ****** ****** ******
      ****** ****** ****** ****** ****** ****** ****** ****** ****** ******
      ****** ****** ****** ****** ****** ****** ****** ****** ****** ******
  14  ****** ****** ****** ****** ****** ****** ****** ****** ****** ******
      ****** ****** ****** ****** ****** ****** ****** ****** ****** ******
      ****** ****** ****** ****** ****** ****** ****** ****** ****** ******
  15  ****** ****** ****** ****** ****** ****** ****** ****** ****** ******
      ****** ****** ****** ****** ****** ****** ****** ****** ****** ******
      ****** ****** ****** ****** ****** ****** ****** ****** ****** ******
  16  ****** ****** ****** ****** ****** ****** ****** ****** ****** ******
      ****** ****** ****** ****** ****** ****** ****** ****** ****** ******
      ****** ****** ****** ****** ****** ****** ****** ****** ****** ******
  17  ****** ****** ****** ****** ****** ****** ****** ****** ****** ******
      ****** ****** ****** ****** ****** ****** ****** ****** ****** ******
      ****** ****** ****** ****** ****** ****** ****** ****** ****** ******
  18  ****** ****** ****** ****** ****** ****** ****** ****** ****** ******
      ****** ****** ****** ****** ****** ****** ****** ****** ****** ******
      ****** ****** ****** ****** ****** ****** ****** ****** ****** ******
  19  ****** ****** ****** ****** ****** ****** ****** ****** ****** ******
      ****** ****** ****** ****** ****** ****** ****** ****** ****** ******
      ****** ****** ****** ****** ****** ****** ****** ****** ****** ******
  20  ****** ****** ****** ****** ****** ****** ****** ****** ****** ******
      ****** ****** ****** ****** ****** ****** ****** ****** ****** ******
      ****** ****** ****** ****** ****** ****** ****** ****** ****** ******
  21  ****** ****** ****** ****** ****** ****** ****** ****** ****** ******
      ****** ****** ****** ****** ****** ****** ****** ****** ****** ******
      ****** ****** ****** ****** ****** ****** ****** ****** ****** ******
  22  ****** ****** ****** ****** ****** ****** ****** ****** ****** ******
      ****** ****** ****** ****** ****** ****** ****** ****** ****** ******
      ****** ****** ****** ****** ****** ****** ****** ****** ****** ******
  23  ****** ****** ****** ****** ****** ****** ****** ****** ****** ******
      ****** ****** ****** ****** ****** ****** ****** ****** ****** ******
      ****** ****** ****** ****** ****** ****** ****** ****** ****** ******
  24  ****** ****** ****** ****** ****** ****** ****** ****** ****** ******
      ****** ****** ****** ****** ****** ****** ****** ****** ****** ******
      ****** ****** ****** ****** ****** ****** ****** ****** ****** ******
  25  ****** ****** ****** ****** ****** ****** ****** ****** ****** ******
      ****** ****** ****** ****** ****** ****** ****** ****** ****** ******
      ****** ****** ****** ****** ****** ****** ****** ****** ****** ******

 HEAD WILL BE SAVED ON UNIT   51 AT END OF TIME STEP    1, STRESS PERIOD   10
1
  VOLUMETRIC BUDGET FOR ENTIRE MODEL AT END OF TIME STEP    1, STRESS PERIOD  10
  ------------------------------------------------------------------------------

     CUMULATIVE VOLUMES      L**3       RATES FOR THIS TIME STEP      L**3/T
     ------------------                 ------------------------

           IN:                                      IN:
           ---                                      ---
             STORAGE =    35567695.7255               STORAGE =           0.0000
       CONSTANT HEAD =    27646837.0250         CONSTANT HEAD =       34430.9560
               WELLS =           0.0000                 WELLS =           0.0000
            RECHARGE =    23901600.0000              RECHARGE =       55200.0000
      STREAM LEAKAGE =    10047220.0381        STREAM LEAKAGE =       11717.6981

            TOTAL IN =    97163352.7887              TOTAL IN =      101348.6541

          OUT:                                     OUT:
          ----                                     ----
             STORAGE =     2275364.5572               STORAGE =       15536.8451
       CONSTANT HEAD =           0.0000         CONSTANT HEAD =           0.0000
               WELLS =    36590795.5430                 WELLS =       40077.5417
            RECHARGE =           0.0000              RECHARGE =           0.0000
      STREAM LEAKAGE =    58297194.3008        STREAM LEAKAGE =       45734.2635

           TOTAL OUT =    97163354.4011             TOTAL OUT =      101348.6503

            IN - OUT =          -1.6124              IN - OUT =       3.8273E-03

 PERCENT DISCREPANCY =          -0.00     PERCENT DISCREPANCY =           0.00






         TIME SUMMARY AT END OF TIME STEP    1 IN STRESS PERIOD   10
                    SECONDS     MINUTES      HOURS       DAYS        YEARS
                    -----------------------------------------------------------
   TIME STEP LENGTH 7.86240E+06 1.31040E+05  2184.0      91.000     0.24914    
 STRESS PERIOD TIME 7.86240E+06 1.31040E+05  2184.0      91.000     0.24914    
         TOTAL TIME 7.88832E+07 1.31472E+06  21912.      913.00      2.4997    
1
1
                            STRESS PERIOD NO.   11, LENGTH =   91.00000    
                            -----------------------------------------------

                              NUMBER OF TIME STEPS =     1

                               MULTIPLIER FOR DELT =     1.500

                            INITIAL TIME STEP SIZE =   91.00000    

 WELL NO.  LAYER   ROW   COL   STRESS RATE         
 --------------------------------------------------
      1      1      5     14      -8335.    
      2      1     14     19     -0.1115E+05
      3      1     20     20      -8343.    
      4      1      5     29     -0.1225E+05

      4 WELLS

                 RECHARGE =   0.00000    

 REUSING STREAM SEGMENT DATA FROM LAST STRESS PERIOD
 
 SOLVING FOR HEAD 


     7 CALLS TO PCG ROUTINE FOR TIME STEP   1 IN STRESS PERIOD   11
    26 TOTAL ITERATIONS

 OUTPUT CONTROL FOR STRESS PERIOD   11   TIME STEP    1
    SAVE BUDGET
    SAVE HEAD FOR ALL LAYERS
    PRINT HEAD FOR ALL LAYERS
 UBDSV2 SAVING "STREAMFLOW OUT  " ON UNIT  50 AT TIME STEP  1, STRESS PERIOD  11



 STREAM LISTING     PERIOD     11   STEP        1

 LAYER ROW COL. STREAM  RCH.  FLOW INTO     FLOW TO   FLOW OUT OF   OVRLND.     DIRECT     STREAM       STREAM     STREAM     STREAM   STREAMBED  STREAMBED
                SEG.NO.  NO.  STRM. RCH.    AQUIFER    STRM. RCH.    RUNOFF     PRECIP       ET          HEAD       DEPTH      WIDTH   CONDCTNC.   GRADIENT

   1   13    1     1     1    1.0000E+05 -1.3095E+03   1.0131E+05  0.000E+00  0.000E+00  0.000E+00  4.84066E+01  1.452E-01  2.000E+01  2.000E+04 -6.547E-02
   1   13    2     1     2    1.0131E+05 -2.2141E+03   1.0352E+05  0.000E+00  0.000E+00  0.000E+00  4.79308E+01  1.467E-01  2.000E+01  2.000E+04 -1.107E-01
   1   14    3     1     3    1.0352E+05 -3.3409E+02   1.0386E+05  0.000E+00  0.000E+00  0.000E+00  4.74547E+01  1.478E-01  2.000E+01  2.000E+04 -1.670E-02
   1   15    4     1     4    1.0386E+05 -3.1007E+02   1.0417E+05  0.000E+00  0.000E+00  0.000E+00  4.69777E+01  1.481E-01  2.000E+01  2.000E+04 -1.550E-02
   1   16    5     1     5    1.0417E+05 -1.3039E+03   1.0547E+05  0.000E+00  0.000E+00  0.000E+00  4.65011E+01  1.488E-01  2.000E+01  2.000E+04 -6.520E-02
   1   16    6     1     6    1.0547E+05 -8.1227E+02   1.0628E+05  0.000E+00  0.000E+00  0.000E+00  4.60247E+01  1.497E-01  2.000E+01  2.000E+04 -4.061E-02
   1   16    7     1     7    1.0628E+05 -7.8501E+02   1.0707E+05  0.000E+00  0.000E+00  0.000E+00  4.55481E+01  1.504E-01  2.000E+01  2.000E+04 -3.925E-02
   1   16    8     1     8    1.0707E+05 -7.6289E+02   1.0783E+05  0.000E+00  0.000E+00  0.000E+00  4.50715E+01  1.510E-01  2.000E+01  2.000E+04 -3.814E-02
   1   16    9     1     9    1.0783E+05 -7.2921E+02   1.0856E+05  0.000E+00  0.000E+00  0.000E+00  4.45948E+01  1.517E-01  2.000E+01  2.000E+04 -3.646E-02
   1   16   10     1    10    1.0856E+05 -6.7925E+02   1.0924E+05  0.000E+00  0.000E+00  0.000E+00  4.41182E+01  1.522E-01  2.000E+01  2.000E+04 -3.396E-02
   1   16   11     1    11    1.0924E+05 -6.1295E+02   1.0985E+05  0.000E+00  0.000E+00  0.000E+00  4.36414E+01  1.528E-01  2.000E+01  2.000E+04 -3.065E-02
   1   16   12     1    12    1.0985E+05 -7.7297E+02   1.1063E+05  0.000E+00  0.000E+00  0.000E+00  4.31647E+01  1.534E-01  2.000E+01  2.000E+04 -3.865E-02
   1   15   13     1    13    1.1063E+05 -4.8528E+02   1.1111E+05  0.000E+00  0.000E+00  0.000E+00  4.26880E+01  1.539E-01  2.000E+01  2.000E+04 -2.426E-02
   1   14   14     1    14    1.1111E+05 -4.8478E+02   1.1160E+05  0.000E+00  0.000E+00  0.000E+00  4.22111E+01  1.543E-01  2.000E+01  2.000E+04 -2.424E-02
   1   13   15     1    15    1.1160E+05 -5.3142E+02   1.1213E+05  0.000E+00  0.000E+00  0.000E+00  4.17343E+01  1.547E-01  2.000E+01  2.000E+04 -2.657E-02
   1   12   16     1    16    1.1213E+05 -1.1683E+03   1.1330E+05  0.000E+00  0.000E+00  0.000E+00  4.12577E+01  1.554E-01  2.000E+01  2.000E+04 -5.842E-02
   1   12   17     1    17    1.1330E+05 -3.3666E+02   1.1363E+05  0.000E+00  0.000E+00  0.000E+00  4.07810E+01  1.560E-01  2.000E+01  2.000E+04 -1.683E-02
   1   12   18     1    18    1.1363E+05  1.0706E+02   1.1353E+05  0.000E+00  0.000E+00  0.000E+00  4.03039E+01  1.561E-01  2.000E+01  2.000E+04  5.353E-03
   1   12   19     1    19    1.1353E+05  9.7989E+01   1.1343E+05  0.000E+00  0.000E+00  0.000E+00  3.98265E+01  1.561E-01  2.000E+01  2.000E+04  4.899E-03
   1   13   20     1    20    1.1343E+05  1.9885E+03   1.1144E+05  0.000E+00  0.000E+00  0.000E+00  3.93484E+01  1.552E-01  2.000E+01  2.000E+04  9.943E-02
   1   14   21     1    21    1.1144E+05  1.6734E+03   1.0977E+05  0.000E+00  0.000E+00  0.000E+00  3.88696E+01  1.537E-01  2.000E+01  2.000E+04  8.367E-02
   1   14   22     1    22    1.0977E+05  5.3030E+03   1.0446E+05  0.000E+00  0.000E+00  0.000E+00  3.83894E+01  1.507E-01  2.000E+01  2.000E+04  2.651E-01
   1    9   30     2     1    5.0000E+04  1.5728E+03   4.8427E+04  0.000E+00  0.000E+00  0.000E+00  4.02398E+01  1.148E-01  2.000E+01  2.000E+04  7.864E-02
   1    9   29     2     2    4.8427E+04  1.1931E+03   4.7234E+04  0.000E+00  0.000E+00  0.000E+00  3.99878E+01  1.128E-01  2.000E+01  2.000E+04  5.966E-02
   1    9   28     2     3    4.7234E+04  7.5339E+02   4.6481E+04  0.000E+00  0.000E+00  0.000E+00  3.97364E+01  1.114E-01  2.000E+01  2.000E+04  3.767E-02
   1    9   27     2     4    4.6481E+04 -8.5543E+01   4.6566E+04  0.000E+00  0.000E+00  0.000E+00  3.94860E+01  1.110E-01  2.000E+01  2.000E+04 -4.277E-03
   1   10   26     2     5    4.6566E+04 -4.2519E+02   4.6991E+04  0.000E+00  0.000E+00  0.000E+00  3.92363E+01  1.113E-01  2.000E+01  2.000E+04 -2.126E-02
   1   11   25     2     6    4.6991E+04 -5.9284E+02   4.7584E+04  0.000E+00  0.000E+00  0.000E+00  3.89871E+01  1.121E-01  2.000E+01  2.000E+04 -2.964E-02
   1   12   24     2     7    4.7584E+04 -8.2614E+02   4.8410E+04  0.000E+00  0.000E+00  0.000E+00  3.87381E+01  1.131E-01  2.000E+01  2.000E+04 -4.131E-02
   1   13   23     2     8    4.8410E+04 -1.1339E+02   4.8524E+04  0.000E+00  0.000E+00  0.000E+00  3.84887E+01  1.137E-01  2.000E+01  2.000E+04 -5.670E-03
   1   14   22     2     9    4.8524E+04  2.2595E+03   4.6264E+04  0.000E+00  0.000E+00  0.000E+00  3.82372E+01  1.122E-01  2.000E+01  2.000E+04  1.130E-01
   1   14   22     3     1    1.5073E+05 -8.2525E+03   1.5898E+05  0.000E+00  0.000E+00  0.000E+00  3.77116E+01  1.560E-01  2.000E+01  2.000E+04 -4.126E-01
   1   15   23     3     2    1.5898E+05 -1.4951E+02   1.5913E+05  0.000E+00  0.000E+00  0.000E+00  3.68252E+01  1.586E-01  2.000E+01  2.000E+04 -7.476E-03
   1   15   24     3     3    1.5913E+05 -1.2861E+02   1.5926E+05  0.000E+00  0.000E+00  0.000E+00  3.59364E+01  1.587E-01  2.000E+01  2.000E+04 -6.431E-03
   1   15   25     3     4    1.5926E+05 -1.5007E+02   1.5941E+05  0.000E+00  0.000E+00  0.000E+00  3.50476E+01  1.587E-01  2.000E+01  2.000E+04 -7.504E-03
   1   15   26     3     5    1.5941E+05 -2.2170E+02   1.5963E+05  0.000E+00  0.000E+00  0.000E+00  3.41588E+01  1.588E-01  2.000E+01  2.000E+04 -1.109E-02
   1   16   27     3     6    1.5963E+05 -2.1631E+02   1.5985E+05  0.000E+00  0.000E+00  0.000E+00  3.32701E+01  1.590E-01  2.000E+01  2.000E+04 -1.082E-02
   1   17   28     3     7    1.5985E+05 -1.0731E+03   1.6092E+05  0.000E+00  0.000E+00  0.000E+00  3.23816E+01  1.594E-01  2.000E+01  2.000E+04 -5.366E-02
   1   18   29     3     8    1.6092E+05 -2.1172E+03   1.6304E+05  0.000E+00  0.000E+00  0.000E+00  3.14936E+01  1.603E-01  2.000E+01  2.000E+04 -1.059E-01
   1   18   30     3     9    1.6304E+05 -2.6637E+03   1.6570E+05  0.000E+00  0.000E+00  0.000E+00  3.06062E+01  1.617E-01  2.000E+01  2.000E+04 -1.332E-01



1
              HEAD IN LAYER   1 AT END OF TIME STEP   1 IN STRESS PERIOD   11
  ---------------------------------------------------------------------------

          1      2      3      4      5      6      7      8      9     10
         11     12     13     14     15     16     17     18     19     20
         21     22     23     24     25     26     27     28     29     30
 .........................................................................
   1  ****** ****** ****** ****** ****** ****** ****** ****** ****** ******
      ****** ****** ****** ****** ****** ****** ****** ****** ****** ******
      ****** ****** ****** ****** ****** ****** ****** ****** ****** ******
   2  ****** ****** ****** ****** ****** ****** ****** ****** ****** ******
      ****** ****** ****** ****** ****** ****** ****** ****** ****** ******
      ****** ****** ****** ****** ****** ****** ****** ****** ****** ******
   3  ****** ****** ****** ****** ****** ****** ****** ****** ****** ******
      ****** ****** ****** ****** ****** ****** ****** ****** ****** ******
      ****** ****** ****** ****** ****** ****** ****** ****** ****** ******
   4  ****** ****** ****** ****** ****** ****** ****** ****** ****** ******
      ****** ****** ****** ****** ****** ****** ****** ****** ****** ******
      ****** ****** ****** ****** ****** ****** ****** ****** ****** ******
   5  ****** ****** ****** ****** ****** ****** ****** ****** ****** ******
      ****** ****** ****** ****** ****** ****** ****** ****** ****** ******
      ****** ****** ****** ****** ****** ****** ****** ****** ****** ******
   6  ****** ****** ****** ****** ****** ****** ****** ****** ****** ******
      ****** ****** ****** ****** ****** ****** ****** ****** ****** ******
      ****** ****** ****** ****** ****** ****** ****** ****** ****** ******
   7  ****** ****** ****** ****** ****** ****** ****** ****** ****** ******
      ****** ****** ****** ****** ****** ****** ****** ****** ****** ******
      ****** ****** ****** ****** ****** ****** ****** ****** ****** ******
   8  ****** ****** ****** ****** ****** ****** ****** ****** ****** ******
      ****** ****** ****** ****** ****** ****** ****** ****** ****** ******
      ****** ****** ****** ****** ****** ****** ****** ****** ****** ******
   9  ****** ****** ****** ****** ****** ****** ****** ****** ****** ******
      ****** ****** ****** ****** ****** ****** ****** ****** ****** ******
      ****** ****** ****** ****** ****** ****** ****** ****** ****** ******
  10  ****** ****** ****** ****** ****** ****** ****** ****** ****** ******
      ****** ****** ****** ****** ****** ****** ****** ****** ****** ******
      ****** ****** ****** ****** ****** ****** ****** ****** ****** ******
  11  ****** ****** ****** ****** ****** ****** ****** ****** ****** ******
      ****** ****** ****** ****** ****** ****** ****** ****** ****** ******
      ****** ****** ****** ****** ****** ****** ****** ****** ****** ******
  12  ****** ****** ****** ****** ****** ****** ****** ****** ****** ******
      ****** ****** ****** ****** ****** ****** ****** ****** ****** ******
      ****** ****** ****** ****** ****** ****** ****** ****** ****** ******
  13  ****** ****** ****** ****** ****** ****** ****** ****** ****** ******
      ****** ****** ****** ****** ****** ****** ****** ****** ****** ******
      ****** ****** ****** ****** ****** ****** ****** ****** ****** ******
  14  ****** ****** ****** ****** ****** ****** ****** ****** ****** ******
      ****** ****** ****** ****** ****** ****** ****** ****** ****** ******
      ****** ****** ****** ****** ****** ****** ****** ****** ****** ******
  15  ****** ****** ****** ****** ****** ****** ****** ****** ****** ******
      ****** ****** ****** ****** ****** ****** ****** ****** ****** ******
      ****** ****** ****** ****** ****** ****** ****** ****** ****** ******
  16  ****** ****** ****** ****** ****** ****** ****** ****** ****** ******
      ****** ****** ****** ****** ****** ****** ****** ****** ****** ******
      ****** ****** ****** ****** ****** ****** ****** ****** ****** ******
  17  ****** ****** ****** ****** ****** ****** ****** ****** ****** ******
      ****** ****** ****** ****** ****** ****** ****** ****** ****** ******
      ****** ****** ****** ****** ****** ****** ****** ****** ****** ******
  18  ****** ****** ****** ****** ****** ****** ****** ****** ****** ******
      ****** ****** ****** ****** ****** ****** ****** ****** ****** ******
      ****** ****** ****** ****** ****** ****** ****** ****** ****** ******
  19  ****** ****** ****** ****** ****** ****** ****** ****** ****** ******
      ****** ****** ****** ****** ****** ****** ****** ****** ****** ******
      ****** ****** ****** ****** ****** ****** ****** ****** ****** ******
  20  ****** ****** ****** ****** ****** ****** ****** ****** ****** ******
      ****** ****** ****** ****** ****** ****** ****** ****** ****** ******
      ****** ****** ****** ****** ****** ****** ****** ****** ****** ******
  21  ****** ****** ****** ****** ****** ****** ****** ****** ****** ******
      ****** ****** ****** ****** ****** ****** ****** ****** ****** ******
      ****** ****** ****** ****** ****** ****** ****** ****** ****** ******
  22  ****** ****** ****** ****** ****** ****** ****** ****** ****** ******
      ****** ****** ****** ****** ****** ****** ****** ****** ****** ******
      ****** ****** ****** ****** ****** ****** ****** ****** ****** ******
  23  ****** ****** ****** ****** ****** ****** ****** ****** ****** ******
      ****** ****** ****** ****** ****** ****** ****** ****** ****** ******
      ****** ****** ****** ****** ****** ****** ****** ****** ****** ******
  24  ****** ****** ****** ****** ****** ****** ****** ****** ****** ******
      ****** ****** ****** ****** ****** ****** ****** ****** ****** ******
      ****** ****** ****** ****** ****** ****** ****** ****** ****** ******
  25  ****** ****** ****** ****** ****** ****** ****** ****** ****** ******
      ****** ****** ****** ****** ****** ****** ****** ****** ****** ******
      ****** ****** ****** ****** ****** ****** ****** ****** ****** ******

 HEAD WILL BE SAVED ON UNIT   51 AT END OF TIME STEP    1, STRESS PERIOD   11
1
  VOLUMETRIC BUDGET FOR ENTIRE MODEL AT END OF TIME STEP    1, STRESS PERIOD  11
  ------------------------------------------------------------------------------

     CUMULATIVE VOLUMES      L**3       RATES FOR THIS TIME STEP      L**3/T
     ------------------                 ------------------------

           IN:                                      IN:
           ---                                      ---
             STORAGE =    37210031.0085               STORAGE =       18047.6405
       CONSTANT HEAD =    31080242.5034         CONSTANT HEAD =       37729.7305
               WELLS =           0.0000                 WELLS =           0.0000
            RECHARGE =    23901600.0000              RECHARGE =           0.0000
      STREAM LEAKAGE =    11407555.8806        STREAM LEAKAGE =       14948.7455

            TOTAL IN =   103599429.3925              TOTAL IN =       70726.1165

          OUT:                                     OUT:
          ----                                     ----
             STORAGE =     2275364.5572               STORAGE =           0.0000
       CONSTANT HEAD =           0.0000         CONSTANT HEAD =           0.0000
               WELLS =    40237851.8348                 WELLS =       40077.5417
            RECHARGE =           0.0000              RECHARGE =           0.0000
      STREAM LEAKAGE =    61086215.0644        STREAM LEAKAGE =       30648.5798

           TOTAL OUT =   103599431.4565             TOTAL OUT =       70726.1215

            IN - OUT =          -2.0640              IN - OUT =      -4.9618E-03

 PERCENT DISCREPANCY =          -0.00     PERCENT DISCREPANCY =          -0.00






         TIME SUMMARY AT END OF TIME STEP    1 IN STRESS PERIOD   11
                    SECONDS     MINUTES      HOURS       DAYS        YEARS
                    -----------------------------------------------------------
   TIME STEP LENGTH 7.86240E+06 1.31040E+05  2184.0      91.000     0.24914    
 STRESS PERIOD TIME 7.86240E+06 1.31040E+05  2184.0      91.000     0.24914    
         TOTAL TIME 8.67456E+07 1.44576E+06  24096.      1004.0      2.7488    
1
1
                            STRESS PERIOD NO.   12, LENGTH =   91.00000    
                            -----------------------------------------------

                              NUMBER OF TIME STEPS =     1

                               MULTIPLIER FOR DELT =     1.500

                            INITIAL TIME STEP SIZE =   91.00000    

 WELL NO.  LAYER   ROW   COL   STRESS RATE         
 --------------------------------------------------
      1      1      5     14      -8335.    
      2      1     14     19     -0.1115E+05
      3      1     20     20      -8343.    
      4      1      5     29     -0.1225E+05

      4 WELLS

                 RECHARGE =  1.000000E-03

 REUSING STREAM SEGMENT DATA FROM LAST STRESS PERIOD
 
 SOLVING FOR HEAD 


     7 CALLS TO PCG ROUTINE FOR TIME STEP   1 IN STRESS PERIOD   12
    24 TOTAL ITERATIONS

 OUTPUT CONTROL FOR STRESS PERIOD   12   TIME STEP    1
    SAVE BUDGET
    SAVE HEAD FOR ALL LAYERS
    PRINT HEAD FOR ALL LAYERS
 UBDSV2 SAVING "STREAMFLOW OUT  " ON UNIT  50 AT TIME STEP  1, STRESS PERIOD  12



 STREAM LISTING     PERIOD     12   STEP        1

 LAYER ROW COL. STREAM  RCH.  FLOW INTO     FLOW TO   FLOW OUT OF   OVRLND.     DIRECT     STREAM       STREAM     STREAM     STREAM   STREAMBED  STREAMBED
                SEG.NO.  NO.  STRM. RCH.    AQUIFER    STRM. RCH.    RUNOFF     PRECIP       ET          HEAD       DEPTH      WIDTH   CONDCTNC.   GRADIENT

   1   13    1     1     1    1.0000E+05 -1.4512E+03   1.0145E+05  0.000E+00  0.000E+00  0.000E+00  4.84066E+01  1.453E-01  2.000E+01  2.000E+04 -7.256E-02
   1   13    2     1     2    1.0145E+05 -2.3663E+03   1.0382E+05  0.000E+00  0.000E+00  0.000E+00  4.79310E+01  1.469E-01  2.000E+01  2.000E+04 -1.183E-01
   1   14    3     1     3    1.0382E+05 -4.1219E+02   1.0423E+05  0.000E+00  0.000E+00  0.000E+00  4.74549E+01  1.481E-01  2.000E+01  2.000E+04 -2.061E-02
   1   15    4     1     4    1.0423E+05 -3.9205E+02   1.0462E+05  0.000E+00  0.000E+00  0.000E+00  4.69780E+01  1.485E-01  2.000E+01  2.000E+04 -1.960E-02
   1   16    5     1     5    1.0462E+05 -1.5134E+03   1.0614E+05  0.000E+00  0.000E+00  0.000E+00  4.65015E+01  1.493E-01  2.000E+01  2.000E+04 -7.567E-02
   1   16    6     1     6    1.0614E+05 -9.4234E+02   1.0708E+05  0.000E+00  0.000E+00  0.000E+00  4.60253E+01  1.503E-01  2.000E+01  2.000E+04 -4.712E-02
   1   16    7     1     7    1.0708E+05 -9.0997E+02   1.0799E+05  0.000E+00  0.000E+00  0.000E+00  4.55488E+01  1.511E-01  2.000E+01  2.000E+04 -4.550E-02
   1   16    8     1     8    1.0799E+05 -8.8681E+02   1.0887E+05  0.000E+00  0.000E+00  0.000E+00  4.50723E+01  1.519E-01  2.000E+01  2.000E+04 -4.434E-02
   1   16    9     1     9    1.0887E+05 -8.5358E+02   1.0973E+05  0.000E+00  0.000E+00  0.000E+00  4.45958E+01  1.526E-01  2.000E+01  2.000E+04 -4.268E-02
   1   16   10     1    10    1.0973E+05 -8.0501E+02   1.1053E+05  0.000E+00  0.000E+00  0.000E+00  4.41192E+01  1.533E-01  2.000E+01  2.000E+04 -4.025E-02
   1   16   11     1    11    1.1053E+05 -7.4100E+02   1.1127E+05  0.000E+00  0.000E+00  0.000E+00  4.36426E+01  1.539E-01  2.000E+01  2.000E+04 -3.705E-02
   1   16   12     1    12    1.1127E+05 -9.7408E+02   1.1225E+05  0.000E+00  0.000E+00  0.000E+00  4.31660E+01  1.546E-01  2.000E+01  2.000E+04 -4.870E-02
   1   15   13     1    13    1.1225E+05 -7.0119E+02   1.1295E+05  0.000E+00  0.000E+00  0.000E+00  4.26894E+01  1.553E-01  2.000E+01  2.000E+04 -3.506E-02
   1   14   14     1    14    1.1295E+05 -7.0094E+02   1.1365E+05  0.000E+00  0.000E+00  0.000E+00  4.22127E+01  1.559E-01  2.000E+01  2.000E+04 -3.505E-02
   1   13   15     1    15    1.1365E+05 -7.4003E+02   1.1439E+05  0.000E+00  0.000E+00  0.000E+00  4.17360E+01  1.565E-01  2.000E+01  2.000E+04 -3.700E-02
   1   12   16     1    16    1.1439E+05 -1.3501E+03   1.1574E+05  0.000E+00  0.000E+00  0.000E+00  4.12596E+01  1.574E-01  2.000E+01  2.000E+04 -6.750E-02
   1   12   17     1    17    1.1574E+05 -4.8922E+02   1.1623E+05  0.000E+00  0.000E+00  0.000E+00  4.07831E+01  1.581E-01  2.000E+01  2.000E+04 -2.446E-02
   1   12   18     1    18    1.1623E+05 -4.7820E+01   1.1628E+05  0.000E+00  0.000E+00  0.000E+00  4.03061E+01  1.583E-01  2.000E+01  2.000E+04 -2.391E-03
   1   12   19     1    19    1.1628E+05 -9.3587E+01   1.1637E+05  0.000E+00  0.000E+00  0.000E+00  3.98288E+01  1.584E-01  2.000E+01  2.000E+04 -4.679E-03
   1   13   20     1    20    1.1637E+05  1.7786E+03   1.1459E+05  0.000E+00  0.000E+00  0.000E+00  3.93509E+01  1.577E-01  2.000E+01  2.000E+04  8.893E-02
   1   14   21     1    21    1.1459E+05  1.4797E+03   1.1311E+05  0.000E+00  0.000E+00  0.000E+00  3.88723E+01  1.564E-01  2.000E+01  2.000E+04  7.399E-02
   1   14   22     1    22    1.1311E+05  5.2498E+03   1.0786E+05  0.000E+00  0.000E+00  0.000E+00  3.83922E+01  1.536E-01  2.000E+01  2.000E+04  2.625E-01
   1    9   30     2     1    5.0000E+04  1.3965E+03   4.8603E+04  0.000E+00  0.000E+00  0.000E+00  4.02399E+01  1.149E-01  2.000E+01  2.000E+04  6.983E-02
   1    9   29     2     2    4.8603E+04  1.0189E+03   4.7585E+04  0.000E+00  0.000E+00  0.000E+00  3.99882E+01  1.132E-01  2.000E+01  2.000E+04  5.095E-02
   1    9   28     2     3    4.7585E+04  5.8281E+02   4.7002E+04  0.000E+00  0.000E+00  0.000E+00  3.97371E+01  1.121E-01  2.000E+01  2.000E+04  2.914E-02
   1    9   27     2     4    4.7002E+04 -2.9412E+02   4.7296E+04  0.000E+00  0.000E+00  0.000E+00  3.94869E+01  1.119E-01  2.000E+01  2.000E+04 -1.471E-02
   1   10   26     2     5    4.7296E+04 -6.5452E+02   4.7950E+04  0.000E+00  0.000E+00  0.000E+00  3.92375E+01  1.125E-01  2.000E+01  2.000E+04 -3.273E-02
   1   11   25     2     6    4.7950E+04 -8.1829E+02   4.8769E+04  0.000E+00  0.000E+00  0.000E+00  3.89886E+01  1.136E-01  2.000E+01  2.000E+04 -4.091E-02
   1   12   24     2     7    4.8769E+04 -1.0319E+03   4.9801E+04  0.000E+00  0.000E+00  0.000E+00  3.87399E+01  1.149E-01  2.000E+01  2.000E+04 -5.159E-02
   1   13   23     2     8    4.9801E+04 -1.9094E+02   4.9991E+04  0.000E+00  0.000E+00  0.000E+00  3.84907E+01  1.157E-01  2.000E+01  2.000E+04 -9.547E-03
   1   14   22     2     9    4.9991E+04  2.1921E+03   4.7799E+04  0.000E+00  0.000E+00  0.000E+00  3.82393E+01  1.143E-01  2.000E+01  2.000E+04  1.096E-01
   1   14   22     3     1    1.5566E+05 -8.3027E+03   1.6396E+05  0.000E+00  0.000E+00  0.000E+00  3.77146E+01  1.590E-01  2.000E+01  2.000E+04 -4.151E-01
   1   15   23     3     2    1.6396E+05 -2.2147E+02   1.6419E+05  0.000E+00  0.000E+00  0.000E+00  3.68282E+01  1.616E-01  2.000E+01  2.000E+04 -1.107E-02
   1   15   24     3     3    1.6419E+05 -1.9365E+02   1.6438E+05  0.000E+00  0.000E+00  0.000E+00  3.59395E+01  1.617E-01  2.000E+01  2.000E+04 -9.682E-03
   1   15   25     3     4    1.6438E+05 -2.1639E+02   1.6460E+05  0.000E+00  0.000E+00  0.000E+00  3.50507E+01  1.618E-01  2.000E+01  2.000E+04 -1.082E-02
   1   15   26     3     5    1.6460E+05 -2.9915E+02   1.6490E+05  0.000E+00  0.000E+00  0.000E+00  3.41620E+01  1.620E-01  2.000E+01  2.000E+04 -1.496E-02
   1   16   27     3     6    1.6490E+05 -3.0303E+02   1.6520E+05  0.000E+00  0.000E+00  0.000E+00  3.32732E+01  1.621E-01  2.000E+01  2.000E+04 -1.515E-02
   1   17   28     3     7    1.6520E+05 -1.2937E+03   1.6649E+05  0.000E+00  0.000E+00  0.000E+00  3.23848E+01  1.626E-01  2.000E+01  2.000E+04 -6.468E-02
   1   18   29     3     8    1.6649E+05 -2.3175E+03   1.6881E+05  0.000E+00  0.000E+00  0.000E+00  3.14970E+01  1.637E-01  2.000E+01  2.000E+04 -1.159E-01
   1   18   30     3     9    1.6881E+05 -2.8316E+03   1.7164E+05  0.000E+00  0.000E+00  0.000E+00  3.06096E+01  1.652E-01  2.000E+01  2.000E+04 -1.416E-01



1
              HEAD IN LAYER   1 AT END OF TIME STEP   1 IN STRESS PERIOD   12
  ---------------------------------------------------------------------------

          1      2      3      4      5      6      7      8      9     10
         11     12     13     14     15     16     17     18     19     20
         21     22     23     24     25     26     27     28     29     30
 .........................................................................
   1  ****** ****** ****** ****** ****** ****** ****** ****** ****** ******
      ****** ****** ****** ****** ****** ****** ****** ****** ****** ******
      ****** ****** ****** ****** ****** ****** ****** ****** ****** ******
   2  ****** ****** ****** ****** ****** ****** ****** ****** ****** ******
      ****** ****** ****** ****** ****** ****** ****** ****** ****** ******
      ****** ****** ****** ****** ****** ****** ****** ****** ****** ******
   3  ****** ****** ****** ****** ****** ****** ****** ****** ****** ******
      ****** ****** ****** ****** ****** ****** ****** ****** ****** ******
      ****** ****** ****** ****** ****** ****** ****** ****** ****** ******
   4  ****** ****** ****** ****** ****** ****** ****** ****** ****** ******
      ****** ****** ****** ****** ****** ****** ****** ****** ****** ******
      ****** ****** ****** ****** ****** ****** ****** ****** ****** ******
   5  ****** ****** ****** ****** ****** ****** ****** ****** ****** ******
      ****** ****** ****** ****** ****** ****** ****** ****** ****** ******
      ****** ****** ****** ****** ****** ****** ****** ****** ****** ******
   6  ****** ****** ****** ****** ****** ****** ****** ****** ****** ******
      ****** ****** ****** ****** ****** ****** ****** ****** ****** ******
      ****** ****** ****** ****** ****** ****** ****** ****** ****** ******
   7  ****** ****** ****** ****** ****** ****** ****** ****** ****** ******
      ****** ****** ****** ****** ****** ****** ****** ****** ****** ******
      ****** ****** ****** ****** ****** ****** ****** ****** ****** ******
   8  ****** ****** ****** ****** ****** ****** ****** ****** ****** ******
      ****** ****** ****** ****** ****** ****** ****** ****** ****** ******
      ****** ****** ****** ****** ****** ****** ****** ****** ****** ******
   9  ****** ****** ****** ****** ****** ****** ****** ****** ****** ******
      ****** ****** ****** ****** ****** ****** ****** ****** ****** ******
      ****** ****** ****** ****** ****** ****** ****** ****** ****** ******
  10  ****** ****** ****** ****** ****** ****** ****** ****** ****** ******
      ****** ****** ****** ****** ****** ****** ****** ****** ****** ******
      ****** ****** ****** ****** ****** ****** ****** ****** ****** ******
  11  ****** ****** ****** ****** ****** ****** ****** ****** ****** ******
      ****** ****** ****** ****** ****** ****** ****** ****** ****** ******
      ****** ****** ****** ****** ****** ****** ****** ****** ****** ******
  12  ****** ****** ****** ****** ****** ****** ****** ****** ****** ******
      ****** ****** ****** ****** ****** ****** ****** ****** ****** ******
      ****** ****** ****** ****** ****** ****** ****** ****** ****** ******
  13  ****** ****** ****** ****** ****** ****** ****** ****** ****** ******
      ****** ****** ****** ****** ****** ****** ****** ****** ****** ******
      ****** ****** ****** ****** ****** ****** ****** ****** ****** ******
  14  ****** ****** ****** ****** ****** ****** ****** ****** ****** ******
      ****** ****** ****** ****** ****** ****** ****** ****** ****** ******
      ****** ****** ****** ****** ****** ****** ****** ****** ****** ******
  15  ****** ****** ****** ****** ****** ****** ****** ****** ****** ******
      ****** ****** ****** ****** ****** ****** ****** ****** ****** ******
      ****** ****** ****** ****** ****** ****** ****** ****** ****** ******
  16  ****** ****** ****** ****** ****** ****** ****** ****** ****** ******
      ****** ****** ****** ****** ****** ****** ****** ****** ****** ******
      ****** ****** ****** ****** ****** ****** ****** ****** ****** ******
  17  ****** ****** ****** ****** ****** ****** ****** ****** ****** ******
      ****** ****** ****** ****** ****** ****** ****** ****** ****** ******
      ****** ****** ****** ****** ****** ****** ****** ****** ****** ******
  18  ****** ****** ****** ****** ****** ****** ****** ****** ****** ******
      ****** ****** ****** ****** ****** ****** ****** ****** ****** ******
      ****** ****** ****** ****** ****** ****** ****** ****** ****** ******
  19  ****** ****** ****** ****** ****** ****** ****** ****** ****** ******
      ****** ****** ****** ****** ****** ****** ****** ****** ****** ******
      ****** ****** ****** ****** ****** ****** ****** ****** ****** ******
  20  ****** ****** ****** ****** ****** ****** ****** ****** ****** ******
      ****** ****** ****** ****** ****** ****** ****** ****** ****** ******
      ****** ****** ****** ****** ****** ****** ****** ****** ****** ******
  21  ****** ****** ****** ****** ****** ****** ****** ****** ****** ******
      ****** ****** ****** ****** ****** ****** ****** ****** ****** ******
      ****** ****** ****** ****** ****** ****** ****** ****** ****** ******
  22  ****** ****** ****** ****** ****** ****** ****** ****** ****** ******
      ****** ****** ****** ****** ****** ****** ****** ****** ****** ******
      ****** ****** ****** ****** ****** ****** ****** ****** ****** ******
  23  ****** ****** ****** ****** ****** ****** ****** ****** ****** ******
      ****** ****** ****** ****** ****** ****** ****** ****** ****** ******
      ****** ****** ****** ****** ****** ****** ****** ****** ****** ******
  24  ****** ****** ****** ****** ****** ****** ****** ****** ****** ******
      ****** ****** ****** ****** ****** ****** ****** ****** ****** ******
      ****** ****** ****** ****** ****** ****** ****** ****** ****** ******
  25  ****** ****** ****** ****** ****** ****** ****** ****** ****** ******
      ****** ****** ****** ****** ****** ****** ****** ****** ****** ******
      ****** ****** ****** ****** ****** ****** ****** ****** ****** ******

 HEAD WILL BE SAVED ON UNIT   51 AT END OF TIME STEP    1, STRESS PERIOD   12
1
  VOLUMETRIC BUDGET FOR ENTIRE MODEL AT END OF TIME STEP    1, STRESS PERIOD  12
  ------------------------------------------------------------------------------

     CUMULATIVE VOLUMES      L**3       RATES FOR THIS TIME STEP      L**3/T
     ------------------                 ------------------------

           IN:                                      IN:
           ---                                      ---
             STORAGE =    37212177.8723               STORAGE =          23.5919
       CONSTANT HEAD =    34451115.6657         CONSTANT HEAD =       37042.5622
               WELLS =           0.0000                 WELLS =           0.0000
            RECHARGE =    26413200.0000              RECHARGE =       27600.0000
      STREAM LEAKAGE =    12654127.4933        STREAM LEAKAGE =       13698.5892

            TOTAL IN =   110730621.0313              TOTAL IN =       78364.7433

          OUT:                                     OUT:
          ----                                     ----
             STORAGE =     2543592.9784               STORAGE =        2947.5651
       CONSTANT HEAD =           0.0000         CONSTANT HEAD =           0.0000
               WELLS =    43884908.1266                 WELLS =       40077.5417
            RECHARGE =           0.0000              RECHARGE =           0.0000
      STREAM LEAKAGE =    64302121.9084        STREAM LEAKAGE =       35339.6356

           TOTAL OUT =   110730623.0134             TOTAL OUT =       78364.7424

            IN - OUT =          -1.9822              IN - OUT =       8.9906E-04

 PERCENT DISCREPANCY =          -0.00     PERCENT DISCREPANCY =           0.00






         TIME SUMMARY AT END OF TIME STEP    1 IN STRESS PERIOD   12
                    SECONDS     MINUTES      HOURS       DAYS        YEARS
                    -----------------------------------------------------------
   TIME STEP LENGTH 7.86240E+06 1.31040E+05  2184.0      91.000     0.24914    
 STRESS PERIOD TIME 7.86240E+06 1.31040E+05  2184.0      91.000     0.24914    
         TOTAL TIME 9.46080E+07 1.57680E+06  26280.      1095.0      2.9979    
1

 Run end date and time (yyyy/mm/dd hh:mm:ss): 2019/03/11 18:47:22
 Elapsed run time:  0.079 Seconds

