                                  MODFLOW-2005     
      U.S. GEOLOGICAL SURVEY MODULAR FINITE-DIFFERENCE GROUND-WATER FLOW MODEL
                            VERSION 1.11.00 8/8/2013

 LIST FILE: supply2.lst
                         UNIT   10

 OPENING ..\data\supply.dis
 FILE TYPE:DIS   UNIT   11   STATUS:OLD    
 FORMAT:FORMATTED              ACCESS:SEQUENTIAL          

 OPENING ..\data\supply.ba6
 FILE TYPE:BAS6   UNIT   12   STATUS:OLD    
 FORMAT:FORMATTED              ACCESS:SEQUENTIAL          

 OPENING ..\data\supply.bc6
 FILE TYPE:BCF6   UNIT   13   STATUS:OLD    
 FORMAT:FORMATTED              ACCESS:SEQUENTIAL          

 OPENING ..\data\supply.rch
 FILE TYPE:RCH   UNIT   15   STATUS:OLD    
 FORMAT:FORMATTED              ACCESS:SEQUENTIAL          

 OPENING ..\data\supply2.sfr
 FILE TYPE:SFR   UNIT   16   STATUS:OLD    
 FORMAT:FORMATTED              ACCESS:SEQUENTIAL          

 OPENING ..\data\supply.oc
 FILE TYPE:OC   UNIT   17   STATUS:OLD    
 FORMAT:FORMATTED              ACCESS:SEQUENTIAL          

 OPENING ..\data\supply.pcg
 FILE TYPE:PCG   UNIT   18   STATUS:OLD    
 FORMAT:FORMATTED              ACCESS:SEQUENTIAL          

 OPENING supply2.wel
 FILE TYPE:WEL   UNIT   19   STATUS:OLD    
 FORMAT:FORMATTED              ACCESS:SEQUENTIAL          

 OPENING supply2sf.cbc
 FILE TYPE:DATA(BINARY)   UNIT   50   STATUS:UNKNOWN
 FORMAT:BINARY                 ACCESS:SEQUENTIAL          

 OPENING supply2hd.bhd
 FILE TYPE:DATA(BINARY)   UNIT   51   STATUS:UNKNOWN
 FORMAT:BINARY                 ACCESS:SEQUENTIAL          

 BAS -- BASIC PACKAGE, VERSION 7, 5/2/2005 INPUT READ FROM UNIT   12
 
 MODFLOW was compiled using uniform precision
 Precision of REAL and DOUBLE PRECISION variables:          15

 DISCRETIZATION INPUT DATA READ FROM UNIT   11
    1 LAYERS        25 ROWS        30 COLUMNS
   12 STRESS PERIOD(S) IN SIMULATION
 MODEL TIME UNIT IS DAYS
 MODEL LENGTH UNIT IS UNDEFINED
  Confining bed flag for each layer:
   0

                     DELR =   200.000    

                     DELC =   200.000    

 TOP ELEVATION OF LAYER 1 =  100.0000    

   MODEL LAYER BOTTOM EL. =   0.00000     FOR LAYER   1


 STRESS PERIOD     LENGTH       TIME STEPS     MULTIPLIER FOR DELT    SS FLAG
 ----------------------------------------------------------------------------
        1         92.00000          1                    1.500         TR
        2         91.00000          1                    1.500         TR
        3         91.00000          1                    1.500         TR
        4         91.00000          1                    1.500         TR
        5         92.00000          1                    1.500         TR
        6         91.00000          1                    1.500         TR
        7         91.00000          1                    1.500         TR
        8         91.00000          1                    1.500         TR
        9         92.00000          1                    1.500         TR
       10         91.00000          1                    1.500         TR
       11         91.00000          1                    1.500         TR
       12         91.00000          1                    1.500         TR

 TRANSIENT SIMULATION



 
 #MODOFC transient water supply sample problem                                   
 #                                                                               
 THE FREE FORMAT OPTION HAS BEEN SELECTED



                     BOUNDARY ARRAY FOR LAYER   1
 READING ON UNIT   12 WITH FORMAT: (20I4)              

 AQUIFER HEAD WILL BE SET TO   0.0000     AT ALL NO-FLOW NODES (IBOUND=0).



                       INITIAL HEAD FOR LAYER   1
 READING ON UNIT   12 WITH FORMAT: (10F13.0)           

 OUTPUT CONTROL IS SPECIFIED ONLY AT TIME STEPS FOR WHICH OUTPUT IS DESIRED
 COMPACT CELL-BY-CELL BUDGET FILES WILL BE WRITTEN
 HEAD PRINT FORMAT CODE IS  18    DRAWDOWN PRINT FORMAT CODE IS   0
 HEADS WILL BE SAVED ON UNIT   51    DRAWDOWNS WILL BE SAVED ON UNIT    0

 BCF -- BLOCK-CENTERED FLOW PACKAGE, VERSION 7, 5/2/2005
         INPUT READ FROM UNIT 13
 TRANSIENT SIMULATION
 HEAD AT CELLS THAT CONVERT TO DRY=   0.0000    
 WETTING CAPABILITY IS NOT ACTIVE
      LAYER  LAYER-TYPE CODE     INTERBLOCK T
      --------------------------------------------
         1            0          0 -- HARMONIC    

 COLUMN TO ROW ANISOTROPY =  1.000000    

     PRIMARY STORAGE COEF =  5.000000E-02 FOR LAYER   1

     TRANSMIS. ALONG ROWS =   500.000     FOR LAYER   1

 WEL -- WELL PACKAGE, VERSION 7, 5/2/2005 INPUT READ FROM UNIT   19
 # Well package input file written by MMProc
 No named parameters
 MAXIMUM OF      3 ACTIVE WELLS AT ONE TIME


     0 Well parameters

 RCH -- RECHARGE PACKAGE, VERSION 7, 5/2/2005 INPUT READ FROM UNIT   15
 No named parameters
 OPTION 1 -- RECHARGE TO TOP LAYER


     0 Recharge parameters

 SFR7 -- STREAMFLOW ROUTING PACKAGE, VERSION 1.0.7, 2013-01-15
         INPUT READ FROM UNIT  16
 #  Supply2 test problem for GWM-VI
 #  The eighth entry in the first data line is ISTCB2 -
 #    Setting this to a negative number indicates that
 #    streamflows out of the reach will be saved to a
 #    binary file.  The absolute value of ISTCB2 is the
 #    unit to which unformatted flows will be written.
 #
 No named parameters
 Segment information will not be 
 read by reach
 No named parameters
 No specifed inflow files


 NUMBER OF STREAM REACHES IS   40

 NUMBER OF STREAM SEGMENTS IS    3

 NUMBER OF STREAM PARAMETERS IS    0

 NUMBER OF STREAM SEGMENTS DEFINED USING PARAMETERS IS              0

 MAXIMUM ERROR FOR STREAM LEAKAGE RATES IS  1.00E-04

 CONSTANT FOR MANNINGS EQUATION IS  1.2839E+05





   STREAM NETWORK DESCRIPTION: 

   LAYER    ROW    COL   SEGMENT   REACH     LENGTH
                          NUMBER   NUMBER    IN CELL        
   --------------------------------------------------
      1     13      1       1        1    2.0000E+02
      1     13      2       1        2    2.0000E+02
      1     14      3       1        3    2.0000E+02
      1     15      4       1        4    2.0000E+02
      1     16      5       1        5    2.0000E+02
      1     16      6       1        6    2.0000E+02
      1     16      7       1        7    2.0000E+02
      1     16      8       1        8    2.0000E+02
      1     16      9       1        9    2.0000E+02
      1     16     10       1       10    2.0000E+02
      1     16     11       1       11    2.0000E+02
      1     16     12       1       12    2.0000E+02
      1     15     13       1       13    2.0000E+02
      1     14     14       1       14    2.0000E+02
      1     13     15       1       15    2.0000E+02
      1     12     16       1       16    2.0000E+02
      1     12     17       1       17    2.0000E+02
      1     12     18       1       18    2.0000E+02
      1     12     19       1       19    2.0000E+02
      1     13     20       1       20    2.0000E+02
      1     14     21       1       21    2.0000E+02
      1     14     22       1       22    2.0000E+02
      1      9     30       2        1    2.0000E+02
      1      9     29       2        2    2.0000E+02
      1      9     28       2        3    2.0000E+02
      1      9     27       2        4    2.0000E+02
      1     10     26       2        5    2.0000E+02
      1     11     25       2        6    2.0000E+02
      1     12     24       2        7    2.0000E+02
      1     13     23       2        8    2.0000E+02
      1     14     22       2        9    2.0000E+02
      1     14     22       3        1    2.0000E+02
      1     15     23       3        2    2.0000E+02
      1     15     24       3        3    2.0000E+02
      1     15     25       3        4    2.0000E+02
      1     15     26       3        5    2.0000E+02
      1     16     27       3        6    2.0000E+02
      1     17     28       3        7    2.0000E+02
      1     18     29       3        8    2.0000E+02
      1     18     30       3        9    2.0000E+02




 PCG -- CONJUGATE-GRADIENT SOLUTION PACKAGE, VERSION 7, 5/2/2005
 MAXIMUM OF    500 CALLS OF SOLUTION ROUTINE
 MAXIMUM OF      5 INTERNAL ITERATIONS PER CALL TO SOLUTION ROUTINE
 MATRIX PRECONDITIONING TYPE :    1



                                    SOLUTION BY THE CONJUGATE-GRADIENT METHOD
                                   -------------------------------------------
                    MAXIMUM NUMBER OF CALLS TO PCG ROUTINE =      500
                        MAXIMUM ITERATIONS PER CALL TO PCG =        5
                               MATRIX PRECONDITIONING TYPE =        1
        RELAXATION FACTOR (ONLY USED WITH PRECOND. TYPE 1) =    0.10000E+01
 PARAMETER OF POLYNOMIAL PRECOND. = 2 (2) OR IS CALCULATED :        0
                         HEAD CHANGE CRITERION FOR CLOSURE =    0.10000E-05
                     RESIDUAL CHANGE CRITERION FOR CLOSURE =    0.10000E+01
            PCG HEAD AND RESIDUAL CHANGE PRINTOUT INTERVAL =        1
     PRINTING FROM SOLVER IS LIMITED(1) OR SUPPRESSED (>1) =        1
                            STEADY-STATE DAMPING PARAMETER =    0.10000E+01
                               TRANSIENT DAMPING PARAMETER =    0.10000E+01
1
                            STRESS PERIOD NO.    1, LENGTH =   92.00000    
                            -----------------------------------------------

                              NUMBER OF TIME STEPS =     1

                               MULTIPLIER FOR DELT =     1.500

                            INITIAL TIME STEP SIZE =   92.00000    

 WELL NO.  LAYER   ROW   COL   STRESS RATE         
 --------------------------------------------------
      1      1     23      9     -0.3450E+05
      2      1      3      9     -0.3774E+05
      3      1      3     14     -0.3278E+05

      3 WELLS

                 RECHARGE =  5.000000E-04



 CLASSIFICATION & COUNT OF STREAM SEGMENTS BASED ON SOURCE OF INFLOW:

                HEADWATER     DIVERSION     RECEIVES TRIBUTARY FLOW
                ---------     ---------     -----------------------
                     2              0               1



                    INPUT DATA FOR EACH STREAM SEGMENT
 ---------------------------------------------------------------------------------------------

 SEGMENT    SEG.     INFLOW   OVERLAND   STREAM    STREAM   ICALC  OUTFLOW  DIVERSION PRIORITY
    NO.    LENGTH     RATE     RUNOFF      ET       PPT.    METH.  TO SEG.  FROM SEG.    NO.

      1  4.400E+03 1.000E+05 0.000E+00 0.000E+00 0.000E+00    1        3        0        0
      2  1.800E+03 5.000E+04 0.000E+00 0.000E+00 0.000E+00    1        3        0        0
      3  1.800E+03 0.000E+00 0.000E+00 0.000E+00 0.000E+00    1        0        0        0


         STREAMBED PROPERTIES AND STREAM DIMENSIONS

 SEGMENT     BED HYD. COND.      BED THICKNESS     ELEV.-TOP OF BED     WIDTH OF STREAM     DEPTH OF STREAM    STREAM ROUGHNESS
    No.     UPPER     LOWER     UPPER     LOWER     UPPER     LOWER     UPPER     LOWER     UPPER     LOWER   CHANNEL      BANK

     1  5.000E+00 5.000E+00 1.000E+00 1.000E+00 4.850E+01 3.800E+01 2.000E+01 2.000E+01                     5.000E-02
     2  5.000E+00 5.000E+00 1.000E+00 1.000E+00 4.025E+01 3.800E+01 2.000E+01 2.000E+01                     5.000E-02
     3  5.000E+00 5.000E+00 1.000E+00 1.000E+00 3.800E+01 3.000E+01 2.000E+01 2.000E+01                     5.000E-02



 
 SOLVING FOR HEAD 


     8 CALLS TO PCG ROUTINE FOR TIME STEP   1 IN STRESS PERIOD    1
    34 TOTAL ITERATIONS

 OUTPUT CONTROL FOR STRESS PERIOD    1   TIME STEP    1
    SAVE BUDGET
    SAVE HEAD FOR ALL LAYERS
    PRINT HEAD FOR ALL LAYERS
 UBDSV2 SAVING "STREAMFLOW OUT  " ON UNIT  50 AT TIME STEP  1, STRESS PERIOD   1



 STREAM LISTING     PERIOD      1   STEP        1

 LAYER ROW COL. STREAM  RCH.  FLOW INTO     FLOW TO   FLOW OUT OF   OVRLND.     DIRECT     STREAM       STREAM     STREAM     STREAM   STREAMBED  STREAMBED
                SEG.NO.  NO.  STRM. RCH.    AQUIFER    STRM. RCH.    RUNOFF     PRECIP       ET          HEAD       DEPTH      WIDTH   CONDCTNC.   GRADIENT

   1   13    1     1     1    1.0000E+05 -5.5550E+03   1.0555E+05  0.000E+00  0.000E+00  0.000E+00  4.84084E+01  1.470E-01  2.000E+01  2.000E+04 -2.777E-01
   1   13    2     1     2    1.0555E+05 -8.2899E+03   1.1384E+05  0.000E+00  0.000E+00  0.000E+00  4.79370E+01  1.529E-01  2.000E+01  2.000E+04 -4.145E-01
   1   14    3     1     3    1.1384E+05 -7.6035E+03   1.2145E+05  0.000E+00  0.000E+00  0.000E+00  4.74663E+01  1.595E-01  2.000E+01  2.000E+04 -3.802E-01
   1   15    4     1     4    1.2145E+05 -7.4103E+03   1.2886E+05  0.000E+00  0.000E+00  0.000E+00  4.69950E+01  1.655E-01  2.000E+01  2.000E+04 -3.705E-01
   1   16    5     1     5    1.2886E+05 -7.0579E+03   1.3592E+05  0.000E+00  0.000E+00  0.000E+00  4.65234E+01  1.712E-01  2.000E+01  2.000E+04 -3.529E-01
   1   16    6     1     6    1.3592E+05 -5.5754E+03   1.4149E+05  0.000E+00  0.000E+00  0.000E+00  4.60510E+01  1.760E-01  2.000E+01  2.000E+04 -2.788E-01
   1   16    7     1     7    1.4149E+05 -5.6394E+03   1.4713E+05  0.000E+00  0.000E+00  0.000E+00  4.55780E+01  1.803E-01  2.000E+01  2.000E+04 -2.820E-01
   1   16    8     1     8    1.4713E+05 -5.6672E+03   1.5280E+05  0.000E+00  0.000E+00  0.000E+00  4.51049E+01  1.845E-01  2.000E+01  2.000E+04 -2.834E-01
   1   16    9     1     9    1.5280E+05 -5.6613E+03   1.5846E+05  0.000E+00  0.000E+00  0.000E+00  4.46318E+01  1.886E-01  2.000E+01  2.000E+04 -2.831E-01
   1   16   10     1    10    1.5846E+05 -5.6362E+03   1.6410E+05  0.000E+00  0.000E+00  0.000E+00  4.41586E+01  1.927E-01  2.000E+01  2.000E+04 -2.818E-01
   1   16   11     1    11    1.6410E+05 -5.6177E+03   1.6971E+05  0.000E+00  0.000E+00  0.000E+00  4.36853E+01  1.967E-01  2.000E+01  2.000E+04 -2.809E-01
   1   16   12     1    12    1.6971E+05 -7.4174E+03   1.7713E+05  0.000E+00  0.000E+00  0.000E+00  4.32126E+01  2.013E-01  2.000E+01  2.000E+04 -3.709E-01
   1   15   13     1    13    1.7713E+05 -7.8782E+03   1.8501E+05  0.000E+00  0.000E+00  0.000E+00  4.27406E+01  2.066E-01  2.000E+01  2.000E+04 -3.939E-01
   1   14   14     1    14    1.8501E+05 -8.1116E+03   1.9312E+05  0.000E+00  0.000E+00  0.000E+00  4.22688E+01  2.120E-01  2.000E+01  2.000E+04 -4.056E-01
   1   13   15     1    15    1.9312E+05 -8.2671E+03   2.0139E+05  0.000E+00  0.000E+00  0.000E+00  4.17970E+01  2.174E-01  2.000E+01  2.000E+04 -4.134E-01
   1   12   16     1    16    2.0139E+05 -8.8649E+03   2.1025E+05  0.000E+00  0.000E+00  0.000E+00  4.13253E+01  2.231E-01  2.000E+01  2.000E+04 -4.432E-01
   1   12   17     1    17    2.1025E+05 -6.3677E+03   2.1662E+05  0.000E+00  0.000E+00  0.000E+00  4.08530E+01  2.280E-01  2.000E+01  2.000E+04 -3.184E-01
   1   12   18     1    18    2.1662E+05 -6.2615E+03   2.2288E+05  0.000E+00  0.000E+00  0.000E+00  4.03797E+01  2.320E-01  2.000E+01  2.000E+04 -3.131E-01
   1   12   19     1    19    2.2288E+05 -7.9376E+03   2.3082E+05  0.000E+00  0.000E+00  0.000E+00  3.99069E+01  2.365E-01  2.000E+01  2.000E+04 -3.969E-01
   1   13   20     1    20    2.3082E+05 -6.6779E+03   2.3750E+05  0.000E+00  0.000E+00  0.000E+00  3.94342E+01  2.410E-01  2.000E+01  2.000E+04 -3.339E-01
   1   14   21     1    21    2.3750E+05 -5.6342E+03   2.4313E+05  0.000E+00  0.000E+00  0.000E+00  3.89607E+01  2.448E-01  2.000E+01  2.000E+04 -2.817E-01
   1   14   22     1    22    2.4313E+05  4.3214E+03   2.3881E+05  0.000E+00  0.000E+00  0.000E+00  3.84838E+01  2.452E-01  2.000E+01  2.000E+04  2.161E-01
   1    9   30     2     1    5.0000E+04 -5.5625E+03   5.5562E+04  0.000E+00  0.000E+00  0.000E+00  4.02447E+01  1.197E-01  2.000E+01  2.000E+04 -2.781E-01
   1    9   29     2     2    5.5562E+04 -5.8592E+03   6.1422E+04  0.000E+00  0.000E+00  0.000E+00  4.00023E+01  1.273E-01  2.000E+01  2.000E+04 -2.930E-01
   1    9   28     2     3    6.1422E+04 -6.1774E+03   6.7599E+04  0.000E+00  0.000E+00  0.000E+00  3.97600E+01  1.350E-01  2.000E+01  2.000E+04 -3.089E-01
   1    9   27     2     4    6.7599E+04 -9.5339E+03   7.7133E+04  0.000E+00  0.000E+00  0.000E+00  3.95196E+01  1.446E-01  2.000E+01  2.000E+04 -4.767E-01
   1   10   26     2     5    7.7133E+04 -7.6584E+03   8.4791E+04  0.000E+00  0.000E+00  0.000E+00  3.92797E+01  1.547E-01  2.000E+01  2.000E+04 -3.829E-01
   1   11   25     2     6    8.4791E+04 -6.5267E+03   9.1318E+04  0.000E+00  0.000E+00  0.000E+00  3.90377E+01  1.627E-01  2.000E+01  2.000E+04 -3.263E-01
   1   12   24     2     7    9.1318E+04 -5.2711E+03   9.6589E+04  0.000E+00  0.000E+00  0.000E+00  3.87942E+01  1.692E-01  2.000E+01  2.000E+04 -2.636E-01
   1   13   23     2     8    9.6589E+04 -3.7464E+03   1.0034E+05  0.000E+00  0.000E+00  0.000E+00  3.85490E+01  1.740E-01  2.000E+01  2.000E+04 -1.873E-01
   1   14   22     2     9    1.0034E+05  6.5736E+02   9.9678E+04  0.000E+00  0.000E+00  0.000E+00  3.83006E+01  1.756E-01  2.000E+01  2.000E+04  3.287E-02
   1   14   22     3     1    3.3849E+05 -9.2139E+03   3.4770E+05  0.000E+00  0.000E+00  0.000E+00  3.78071E+01  2.515E-01  2.000E+01  2.000E+04 -4.607E-01
   1   15   23     3     2    3.4770E+05 -6.0297E+03   3.5373E+05  0.000E+00  0.000E+00  0.000E+00  3.69215E+01  2.548E-01  2.000E+01  2.000E+04 -3.015E-01
   1   15   24     3     3    3.5373E+05 -4.3671E+03   3.5810E+05  0.000E+00  0.000E+00  0.000E+00  3.60349E+01  2.571E-01  2.000E+01  2.000E+04 -2.184E-01
   1   15   25     3     4    3.5810E+05 -4.3586E+03   3.6246E+05  0.000E+00  0.000E+00  0.000E+00  3.51479E+01  2.590E-01  2.000E+01  2.000E+04 -2.179E-01
   1   15   26     3     5    3.6246E+05 -5.6755E+03   3.6813E+05  0.000E+00  0.000E+00  0.000E+00  3.42611E+01  2.611E-01  2.000E+01  2.000E+04 -2.838E-01
   1   16   27     3     6    3.6813E+05 -7.2914E+03   3.7542E+05  0.000E+00  0.000E+00  0.000E+00  3.33750E+01  2.639E-01  2.000E+01  2.000E+04 -3.646E-01
   1   17   28     3     7    3.7542E+05 -8.0733E+03   3.8350E+05  0.000E+00  0.000E+00  0.000E+00  3.24894E+01  2.672E-01  2.000E+01  2.000E+04 -4.037E-01
   1   18   29     3     8    3.8350E+05 -9.1229E+03   3.9262E+05  0.000E+00  0.000E+00  0.000E+00  3.16041E+01  2.708E-01  2.000E+01  2.000E+04 -4.561E-01
   1   18   30     3     9    3.9262E+05 -7.5401E+03   4.0016E+05  0.000E+00  0.000E+00  0.000E+00  3.07187E+01  2.743E-01  2.000E+01  2.000E+04 -3.770E-01



1
              HEAD IN LAYER   1 AT END OF TIME STEP   1 IN STRESS PERIOD    1
  ---------------------------------------------------------------------------

          1      2      3      4      5      6      7      8      9     10
         11     12     13     14     15     16     17     18     19     20
         21     22     23     24     25     26     27     28     29     30
 .........................................................................
   1  ****** ****** ****** ****** ****** ****** ****** ****** ****** ******
      ****** ****** ****** ****** ****** ****** ****** ****** ****** ******
      ****** ****** ****** ****** ****** ****** ****** ****** ****** ******
   2  ****** ****** ****** ****** ****** ****** ****** ****** ****** ******
      ****** ****** ****** ****** ****** ****** ****** ****** ****** ******
      ****** ****** ****** ****** ****** ****** ****** ****** ****** ******
   3  ****** ****** ****** ****** ****** ****** ****** ****** ****** ******
      ****** ****** ****** ****** ****** ****** ****** ****** ****** ******
      ****** ****** ****** ****** ****** ****** ****** ****** ****** ******
   4  ****** ****** ****** ****** ****** ****** ****** ****** ****** ******
      ****** ****** ****** ****** ****** ****** ****** ****** ****** ******
      ****** ****** ****** ****** ****** ****** ****** ****** ****** ******
   5  ****** ****** ****** ****** ****** ****** ****** ****** ****** ******
      ****** ****** ****** ****** ****** ****** ****** ****** ****** ******
      ****** ****** ****** ****** ****** ****** ****** ****** ****** ******
   6  ****** ****** ****** ****** ****** ****** ****** ****** ****** ******
      ****** ****** ****** ****** ****** ****** ****** ****** ****** ******
      ****** ****** ****** ****** ****** ****** ****** ****** ****** ******
   7  ****** ****** ****** ****** ****** ****** ****** ****** ****** ******
      ****** ****** ****** ****** ****** ****** ****** ****** ****** ******
      ****** ****** ****** ****** ****** ****** ****** ****** ****** ******
   8  ****** ****** ****** ****** ****** ****** ****** ****** ****** ******
      ****** ****** ****** ****** ****** ****** ****** ****** ****** ******
      ****** ****** ****** ****** ****** ****** ****** ****** ****** ******
   9  ****** ****** ****** ****** ****** ****** ****** ****** ****** ******
      ****** ****** ****** ****** ****** ****** ****** ****** ****** ******
      ****** ****** ****** ****** ****** ****** ****** ****** ****** ******
  10  ****** ****** ****** ****** ****** ****** ****** ****** ****** ******
      ****** ****** ****** ****** ****** ****** ****** ****** ****** ******
      ****** ****** ****** ****** ****** ****** ****** ****** ****** ******
  11  ****** ****** ****** ****** ****** ****** ****** ****** ****** ******
      ****** ****** ****** ****** ****** ****** ****** ****** ****** ******
      ****** ****** ****** ****** ****** ****** ****** ****** ****** ******
  12  ****** ****** ****** ****** ****** ****** ****** ****** ****** ******
      ****** ****** ****** ****** ****** ****** ****** ****** ****** ******
      ****** ****** ****** ****** ****** ****** ****** ****** ****** ******
  13  ****** ****** ****** ****** ****** ****** ****** ****** ****** ******
      ****** ****** ****** ****** ****** ****** ****** ****** ****** ******
      ****** ****** ****** ****** ****** ****** ****** ****** ****** ******
  14  ****** ****** ****** ****** ****** ****** ****** ****** ****** ******
      ****** ****** ****** ****** ****** ****** ****** ****** ****** ******
      ****** ****** ****** ****** ****** ****** ****** ****** ****** ******
  15  ****** ****** ****** ****** ****** ****** ****** ****** ****** ******
      ****** ****** ****** ****** ****** ****** ****** ****** ****** ******
      ****** ****** ****** ****** ****** ****** ****** ****** ****** ******
  16  ****** ****** ****** ****** ****** ****** ****** ****** ****** ******
      ****** ****** ****** ****** ****** ****** ****** ****** ****** ******
      ****** ****** ****** ****** ****** ****** ****** ****** ****** ******
  17  ****** ****** ****** ****** ****** ****** ****** ****** ****** ******
      ****** ****** ****** ****** ****** ****** ****** ****** ****** ******
      ****** ****** ****** ****** ****** ****** ****** ****** ****** ******
  18  ****** ****** ****** ****** ****** ****** ****** ****** ****** ******
      ****** ****** ****** ****** ****** ****** ****** ****** ****** ******
      ****** ****** ****** ****** ****** ****** ****** ****** ****** ******
  19  ****** ****** ****** ****** ****** ****** ****** ****** ****** ******
      ****** ****** ****** ****** ****** ****** ****** ****** ****** ******
      ****** ****** ****** ****** ****** ****** ****** ****** ****** ******
  20  ****** ****** ****** ****** ****** ****** ****** ****** ****** ******
      ****** ****** ****** ****** ****** ****** ****** ****** ****** ******
      ****** ****** ****** ****** ****** ****** ****** ****** ****** ******
  21  ****** ****** ****** ****** ****** ****** ****** ****** ****** ******
      ****** ****** ****** ****** ****** ****** ****** ****** ****** ******
      ****** ****** ****** ****** ****** ****** ****** ****** ****** ******
  22  ****** ****** ****** ****** ****** ****** ****** ****** ****** ******
      ****** ****** ****** ****** ****** ****** ****** ****** ****** ******
      ****** ****** ****** ****** ****** ****** ****** ****** ****** ******
  23  ****** ****** ****** ****** ****** ****** ****** ****** ****** ******
      ****** ****** ****** ****** ****** ****** ****** ****** ****** ******
      ****** ****** ****** ****** ****** ****** ****** ****** ****** ******
  24  ****** ****** ****** ****** ****** ****** ****** ****** ****** ******
      ****** ****** ****** ****** ****** ****** ****** ****** ****** ******
      ****** ****** ****** ****** ****** ****** ****** ****** ****** ******
  25  ****** ****** ****** ****** ****** ****** ****** ****** ****** ******
      ****** ****** ****** ****** ****** ****** ****** ****** ****** ******
      ****** ****** ****** ****** ****** ****** ****** ****** ****** ******

 HEAD WILL BE SAVED ON UNIT   51 AT END OF TIME STEP    1, STRESS PERIOD    1
1
  VOLUMETRIC BUDGET FOR ENTIRE MODEL AT END OF TIME STEP    1, STRESS PERIOD   1
  ------------------------------------------------------------------------------

     CUMULATIVE VOLUMES      L**3       RATES FOR THIS TIME STEP      L**3/T
     ------------------                 ------------------------

           IN:                                      IN:
           ---                                      ---
             STORAGE =    17857780.9282               STORAGE =      194106.3144
       CONSTANT HEAD =    13549478.1144         CONSTANT HEAD =      147276.9360
               WELLS =           0.0000                 WELLS =           0.0000
            RECHARGE =     1269600.0000              RECHARGE =       13800.0000
      STREAM LEAKAGE =      458043.2438        STREAM LEAKAGE =        4978.7309

            TOTAL IN =    33134902.2864              TOTAL IN =      360161.9814

          OUT:                                     OUT:
          ----                                     ----
             STORAGE =           0.0000               STORAGE =           0.0000
       CONSTANT HEAD =           0.0000         CONSTANT HEAD =           0.0000
               WELLS =     9662020.8429                 WELLS =      105021.9657
            RECHARGE =           0.0000              RECHARGE =           0.0000
      STREAM LEAKAGE =    23472881.5802        STREAM LEAKAGE =      255140.0172

           TOTAL OUT =    33134902.4231             TOTAL OUT =      360161.9829

            IN - OUT =          -0.1367              IN - OUT =      -1.4864E-03

 PERCENT DISCREPANCY =          -0.00     PERCENT DISCREPANCY =          -0.00






         TIME SUMMARY AT END OF TIME STEP    1 IN STRESS PERIOD    1
                    SECONDS     MINUTES      HOURS       DAYS        YEARS
                    -----------------------------------------------------------
   TIME STEP LENGTH 7.94880E+06 1.32480E+05  2208.0      92.000     0.25188    
 STRESS PERIOD TIME 7.94880E+06 1.32480E+05  2208.0      92.000     0.25188    
         TOTAL TIME 7.94880E+06 1.32480E+05  2208.0      92.000     0.25188    
1
1
                            STRESS PERIOD NO.    2, LENGTH =   91.00000    
                            -----------------------------------------------

                              NUMBER OF TIME STEPS =     1

                               MULTIPLIER FOR DELT =     1.500

                            INITIAL TIME STEP SIZE =   91.00000    

 WELL NO.  LAYER   ROW   COL   STRESS RATE         
 --------------------------------------------------
      1      1     23      9     -0.3450E+05
      2      1      3      9     -0.3774E+05
      3      1      3     14     -0.3278E+05

      3 WELLS

                 RECHARGE =  2.000000E-03

 REUSING STREAM SEGMENT DATA FROM LAST STRESS PERIOD
 
 SOLVING FOR HEAD 


     7 CALLS TO PCG ROUTINE FOR TIME STEP   1 IN STRESS PERIOD    2
    27 TOTAL ITERATIONS

 OUTPUT CONTROL FOR STRESS PERIOD    2   TIME STEP    1
    SAVE BUDGET
    SAVE HEAD FOR ALL LAYERS
    PRINT HEAD FOR ALL LAYERS
 UBDSV2 SAVING "STREAMFLOW OUT  " ON UNIT  50 AT TIME STEP  1, STRESS PERIOD   2



 STREAM LISTING     PERIOD      2   STEP        1

 LAYER ROW COL. STREAM  RCH.  FLOW INTO     FLOW TO   FLOW OUT OF   OVRLND.     DIRECT     STREAM       STREAM     STREAM     STREAM   STREAMBED  STREAMBED
                SEG.NO.  NO.  STRM. RCH.    AQUIFER    STRM. RCH.    RUNOFF     PRECIP       ET          HEAD       DEPTH      WIDTH   CONDCTNC.   GRADIENT

   1   13    1     1     1    1.0000E+05 -3.4620E+03   1.0346E+05  0.000E+00  0.000E+00  0.000E+00  4.84075E+01  1.461E-01  2.000E+01  2.000E+04 -1.731E-01
   1   13    2     1     2    1.0346E+05 -5.5957E+03   1.0906E+05  0.000E+00  0.000E+00  0.000E+00  4.79341E+01  1.500E-01  2.000E+01  2.000E+04 -2.798E-01
   1   14    3     1     3    1.0906E+05 -4.6472E+03   1.1370E+05  0.000E+00  0.000E+00  0.000E+00  4.74611E+01  1.543E-01  2.000E+01  2.000E+04 -2.324E-01
   1   15    4     1     4    1.1370E+05 -4.4792E+03   1.1818E+05  0.000E+00  0.000E+00  0.000E+00  4.69876E+01  1.581E-01  2.000E+01  2.000E+04 -2.240E-01
   1   16    5     1     5    1.1818E+05 -4.4925E+03   1.2268E+05  0.000E+00  0.000E+00  0.000E+00  4.65140E+01  1.617E-01  2.000E+01  2.000E+04 -2.246E-01
   1   16    6     1     6    1.2268E+05 -3.4530E+03   1.2613E+05  0.000E+00  0.000E+00  0.000E+00  4.60399E+01  1.649E-01  2.000E+01  2.000E+04 -1.726E-01
   1   16    7     1     7    1.2613E+05 -3.4513E+03   1.2958E+05  0.000E+00  0.000E+00  0.000E+00  4.55654E+01  1.676E-01  2.000E+01  2.000E+04 -1.726E-01
   1   16    8     1     8    1.2958E+05 -3.4353E+03   1.3302E+05  0.000E+00  0.000E+00  0.000E+00  4.50908E+01  1.703E-01  2.000E+01  2.000E+04 -1.718E-01
   1   16    9     1     9    1.3302E+05 -3.4138E+03   1.3643E+05  0.000E+00  0.000E+00  0.000E+00  4.46162E+01  1.730E-01  2.000E+01  2.000E+04 -1.707E-01
   1   16   10     1    10    1.3643E+05 -3.4037E+03   1.3983E+05  0.000E+00  0.000E+00  0.000E+00  4.41415E+01  1.756E-01  2.000E+01  2.000E+04 -1.702E-01
   1   16   11     1    11    1.3983E+05 -3.4294E+03   1.4326E+05  0.000E+00  0.000E+00  0.000E+00  4.36668E+01  1.782E-01  2.000E+01  2.000E+04 -1.715E-01
   1   16   12     1    12    1.4326E+05 -4.7527E+03   1.4802E+05  0.000E+00  0.000E+00  0.000E+00  4.31926E+01  1.813E-01  2.000E+01  2.000E+04 -2.376E-01
   1   15   13     1    13    1.4802E+05 -4.7788E+03   1.5279E+05  0.000E+00  0.000E+00  0.000E+00  4.27189E+01  1.848E-01  2.000E+01  2.000E+04 -2.389E-01
   1   14   14     1    14    1.5279E+05 -4.8722E+03   1.5767E+05  0.000E+00  0.000E+00  0.000E+00  4.22451E+01  1.883E-01  2.000E+01  2.000E+04 -2.436E-01
   1   13   15     1    15    1.5767E+05 -5.0263E+03   1.6269E+05  0.000E+00  0.000E+00  0.000E+00  4.17715E+01  1.919E-01  2.000E+01  2.000E+04 -2.513E-01
   1   12   16     1    16    1.6269E+05 -5.8722E+03   1.6857E+05  0.000E+00  0.000E+00  0.000E+00  4.12981E+01  1.958E-01  2.000E+01  2.000E+04 -2.936E-01
   1   12   17     1    17    1.6857E+05 -4.0776E+03   1.7264E+05  0.000E+00  0.000E+00  0.000E+00  4.08243E+01  1.993E-01  2.000E+01  2.000E+04 -2.039E-01
   1   12   18     1    18    1.7264E+05 -4.0188E+03   1.7666E+05  0.000E+00  0.000E+00  0.000E+00  4.03499E+01  2.021E-01  2.000E+01  2.000E+04 -2.009E-01
   1   12   19     1    19    1.7666E+05 -5.2503E+03   1.8191E+05  0.000E+00  0.000E+00  0.000E+00  3.98758E+01  2.053E-01  2.000E+01  2.000E+04 -2.625E-01
   1   13   20     1    20    1.8191E+05 -3.9484E+03   1.8586E+05  0.000E+00  0.000E+00  0.000E+00  3.94017E+01  2.085E-01  2.000E+01  2.000E+04 -1.974E-01
   1   14   21     1    21    1.8586E+05 -3.2948E+03   1.8916E+05  0.000E+00  0.000E+00  0.000E+00  3.89268E+01  2.109E-01  2.000E+01  2.000E+04 -1.647E-01
   1   14   22     1    22    1.8916E+05  4.8466E+03   1.8431E+05  0.000E+00  0.000E+00  0.000E+00  3.84490E+01  2.104E-01  2.000E+01  2.000E+04  2.423E-01
   1    9   30     2     1    5.0000E+04 -3.4389E+03   5.3439E+04  0.000E+00  0.000E+00  0.000E+00  4.02432E+01  1.182E-01  2.000E+01  2.000E+04 -1.719E-01
   1    9   29     2     2    5.3439E+04 -3.7586E+03   5.7198E+04  0.000E+00  0.000E+00  0.000E+00  3.99981E+01  1.231E-01  2.000E+01  2.000E+04 -1.879E-01
   1    9   28     2     3    5.7198E+04 -4.1228E+03   6.1320E+04  0.000E+00  0.000E+00  0.000E+00  3.97533E+01  1.283E-01  2.000E+01  2.000E+04 -2.061E-01
   1    9   27     2     4    6.1320E+04 -7.0588E+03   6.8379E+04  0.000E+00  0.000E+00  0.000E+00  3.95104E+01  1.354E-01  2.000E+01  2.000E+04 -3.529E-01
   1   10   26     2     5    6.8379E+04 -4.7192E+03   7.3098E+04  0.000E+00  0.000E+00  0.000E+00  3.92677E+01  1.427E-01  2.000E+01  2.000E+04 -2.360E-01
   1   11   25     2     6    7.3098E+04 -3.6125E+03   7.6711E+04  0.000E+00  0.000E+00  0.000E+00  3.90227E+01  1.477E-01  2.000E+01  2.000E+04 -1.806E-01
   1   12   24     2     7    7.6711E+04 -2.6277E+03   7.9339E+04  0.000E+00  0.000E+00  0.000E+00  3.87763E+01  1.513E-01  2.000E+01  2.000E+04 -1.314E-01
   1   13   23     2     8    7.9339E+04 -1.6211E+03   8.0960E+04  0.000E+00  0.000E+00  0.000E+00  3.85288E+01  1.538E-01  2.000E+01  2.000E+04 -8.105E-02
   1   14   22     2     9    8.0960E+04  1.4435E+03   7.9516E+04  0.000E+00  0.000E+00  0.000E+00  3.82789E+01  1.539E-01  2.000E+01  2.000E+04  7.218E-02
   1   14   22     3     1    2.6382E+05 -8.6842E+03   2.7251E+05  0.000E+00  0.000E+00  0.000E+00  3.77725E+01  2.169E-01  2.000E+01  2.000E+04 -4.342E-01
   1   15   23     3     2    2.7251E+05 -3.9402E+03   2.7645E+05  0.000E+00  0.000E+00  0.000E+00  3.68867E+01  2.200E-01  2.000E+01  2.000E+04 -1.970E-01
   1   15   24     3     3    2.7645E+05 -2.6713E+03   2.7912E+05  0.000E+00  0.000E+00  0.000E+00  3.59994E+01  2.216E-01  2.000E+01  2.000E+04 -1.336E-01
   1   15   25     3     4    2.7912E+05 -2.5282E+03   2.8165E+05  0.000E+00  0.000E+00  0.000E+00  3.51117E+01  2.228E-01  2.000E+01  2.000E+04 -1.264E-01
   1   15   26     3     5    2.8165E+05 -3.0711E+03   2.8472E+05  0.000E+00  0.000E+00  0.000E+00  3.42242E+01  2.242E-01  2.000E+01  2.000E+04 -1.536E-01
   1   16   27     3     6    2.8472E+05 -4.2628E+03   2.8898E+05  0.000E+00  0.000E+00  0.000E+00  3.33370E+01  2.259E-01  2.000E+01  2.000E+04 -2.131E-01
   1   17   28     3     7    2.8898E+05 -5.0985E+03   2.9408E+05  0.000E+00  0.000E+00  0.000E+00  3.24503E+01  2.281E-01  2.000E+01  2.000E+04 -2.549E-01
   1   18   29     3     8    2.9408E+05 -6.6898E+03   3.0077E+05  0.000E+00  0.000E+00  0.000E+00  3.15642E+01  2.308E-01  2.000E+01  2.000E+04 -3.345E-01
   1   18   30     3     9    3.0077E+05 -5.4737E+03   3.0624E+05  0.000E+00  0.000E+00  0.000E+00  3.06781E+01  2.337E-01  2.000E+01  2.000E+04 -2.737E-01



1
              HEAD IN LAYER   1 AT END OF TIME STEP   1 IN STRESS PERIOD    2
  ---------------------------------------------------------------------------

          1      2      3      4      5      6      7      8      9     10
         11     12     13     14     15     16     17     18     19     20
         21     22     23     24     25     26     27     28     29     30
 .........................................................................
   1  ****** ****** ****** ****** ****** ****** ****** ****** ****** ******
      ****** ****** ****** ****** ****** ****** ****** ****** ****** ******
      ****** ****** ****** ****** ****** ****** ****** ****** ****** ******
   2  ****** ****** ****** ****** ****** ****** ****** ****** ****** ******
      ****** ****** ****** ****** ****** ****** ****** ****** ****** ******
      ****** ****** ****** ****** ****** ****** ****** ****** ****** ******
   3  ****** ****** ****** ****** ****** ****** ****** ****** ****** ******
      ****** ****** ****** ****** ****** ****** ****** ****** ****** ******
      ****** ****** ****** ****** ****** ****** ****** ****** ****** ******
   4  ****** ****** ****** ****** ****** ****** ****** ****** ****** ******
      ****** ****** ****** ****** ****** ****** ****** ****** ****** ******
      ****** ****** ****** ****** ****** ****** ****** ****** ****** ******
   5  ****** ****** ****** ****** ****** ****** ****** ****** ****** ******
      ****** ****** ****** ****** ****** ****** ****** ****** ****** ******
      ****** ****** ****** ****** ****** ****** ****** ****** ****** ******
   6  ****** ****** ****** ****** ****** ****** ****** ****** ****** ******
      ****** ****** ****** ****** ****** ****** ****** ****** ****** ******
      ****** ****** ****** ****** ****** ****** ****** ****** ****** ******
   7  ****** ****** ****** ****** ****** ****** ****** ****** ****** ******
      ****** ****** ****** ****** ****** ****** ****** ****** ****** ******
      ****** ****** ****** ****** ****** ****** ****** ****** ****** ******
   8  ****** ****** ****** ****** ****** ****** ****** ****** ****** ******
      ****** ****** ****** ****** ****** ****** ****** ****** ****** ******
      ****** ****** ****** ****** ****** ****** ****** ****** ****** ******
   9  ****** ****** ****** ****** ****** ****** ****** ****** ****** ******
      ****** ****** ****** ****** ****** ****** ****** ****** ****** ******
      ****** ****** ****** ****** ****** ****** ****** ****** ****** ******
  10  ****** ****** ****** ****** ****** ****** ****** ****** ****** ******
      ****** ****** ****** ****** ****** ****** ****** ****** ****** ******
      ****** ****** ****** ****** ****** ****** ****** ****** ****** ******
  11  ****** ****** ****** ****** ****** ****** ****** ****** ****** ******
      ****** ****** ****** ****** ****** ****** ****** ****** ****** ******
      ****** ****** ****** ****** ****** ****** ****** ****** ****** ******
  12  ****** ****** ****** ****** ****** ****** ****** ****** ****** ******
      ****** ****** ****** ****** ****** ****** ****** ****** ****** ******
      ****** ****** ****** ****** ****** ****** ****** ****** ****** ******
  13  ****** ****** ****** ****** ****** ****** ****** ****** ****** ******
      ****** ****** ****** ****** ****** ****** ****** ****** ****** ******
      ****** ****** ****** ****** ****** ****** ****** ****** ****** ******
  14  ****** ****** ****** ****** ****** ****** ****** ****** ****** ******
      ****** ****** ****** ****** ****** ****** ****** ****** ****** ******
      ****** ****** ****** ****** ****** ****** ****** ****** ****** ******
  15  ****** ****** ****** ****** ****** ****** ****** ****** ****** ******
      ****** ****** ****** ****** ****** ****** ****** ****** ****** ******
      ****** ****** ****** ****** ****** ****** ****** ****** ****** ******
  16  ****** ****** ****** ****** ****** ****** ****** ****** ****** ******
      ****** ****** ****** ****** ****** ****** ****** ****** ****** ******
      ****** ****** ****** ****** ****** ****** ****** ****** ****** ******
  17  ****** ****** ****** ****** ****** ****** ****** ****** ****** ******
      ****** ****** ****** ****** ****** ****** ****** ****** ****** ******
      ****** ****** ****** ****** ****** ****** ****** ****** ****** ******
  18  ****** ****** ****** ****** ****** ****** ****** ****** ****** ******
      ****** ****** ****** ****** ****** ****** ****** ****** ****** ******
      ****** ****** ****** ****** ****** ****** ****** ****** ****** ******
  19  ****** ****** ****** ****** ****** ****** ****** ****** ****** ******
      ****** ****** ****** ****** ****** ****** ****** ****** ****** ******
      ****** ****** ****** ****** ****** ****** ****** ****** ****** ******
  20  ****** ****** ****** ****** ****** ****** ****** ****** ****** ******
      ****** ****** ****** ****** ****** ****** ****** ****** ****** ******
      ****** ****** ****** ****** ****** ****** ****** ****** ****** ******
  21  ****** ****** ****** ****** ****** ****** ****** ****** ****** ******
      ****** ****** ****** ****** ****** ****** ****** ****** ****** ******
      ****** ****** ****** ****** ****** ****** ****** ****** ****** ******
  22  ****** ****** ****** ****** ****** ****** ****** ****** ****** ******
      ****** ****** ****** ****** ****** ****** ****** ****** ****** ******
      ****** ****** ****** ****** ****** ****** ****** ****** ****** ******
  23  ****** ****** ****** ****** ****** ****** ****** ****** ****** ******
      ****** ****** ****** ****** ****** ****** ****** ****** ****** ******
      ****** ****** ****** ****** ****** ****** ****** ****** ****** ******
  24  ****** ****** ****** ****** ****** ****** ****** ****** ****** ******
      ****** ****** ****** ****** ****** ****** ****** ****** ****** ******
      ****** ****** ****** ****** ****** ****** ****** ****** ****** ******
  25  ****** ****** ****** ****** ****** ****** ****** ****** ****** ******
      ****** ****** ****** ****** ****** ****** ****** ****** ****** ******
      ****** ****** ****** ****** ****** ****** ****** ****** ****** ******

 HEAD WILL BE SAVED ON UNIT   51 AT END OF TIME STEP    1, STRESS PERIOD    2
1
  VOLUMETRIC BUDGET FOR ENTIRE MODEL AT END OF TIME STEP    1, STRESS PERIOD   2
  ------------------------------------------------------------------------------

     CUMULATIVE VOLUMES      L**3       RATES FOR THIS TIME STEP      L**3/T
     ------------------                 ------------------------

           IN:                                      IN:
           ---                                      ---
             STORAGE =    21165958.5627               STORAGE =       36353.6004
       CONSTANT HEAD =    28993341.5036         CONSTANT HEAD =      169712.7845
               WELLS =           0.0000                 WELLS =           0.0000
            RECHARGE =     6292800.0000              RECHARGE =       55200.0000
      STREAM LEAKAGE =     1030448.4221        STREAM LEAKAGE =        6290.1668

            TOTAL IN =    57482548.4884              TOTAL IN =      267556.5517

          OUT:                                     OUT:
          ----                                     ----
             STORAGE =           0.0000               STORAGE =           0.0000
       CONSTANT HEAD =           0.0000         CONSTANT HEAD =           0.0000
               WELLS =    19219019.7201                 WELLS =      105021.9657
            RECHARGE =           0.0000              RECHARGE =           0.0000
      STREAM LEAKAGE =    38263529.3872        STREAM LEAKAGE =      162534.5913

           TOTAL OUT =    57482549.1072             TOTAL OUT =      267556.5570

            IN - OUT =          -0.6188              IN - OUT =      -5.2976E-03

 PERCENT DISCREPANCY =          -0.00     PERCENT DISCREPANCY =          -0.00






         TIME SUMMARY AT END OF TIME STEP    1 IN STRESS PERIOD    2
                    SECONDS     MINUTES      HOURS       DAYS        YEARS
                    -----------------------------------------------------------
   TIME STEP LENGTH 7.86240E+06 1.31040E+05  2184.0      91.000     0.24914    
 STRESS PERIOD TIME 7.86240E+06 1.31040E+05  2184.0      91.000     0.24914    
         TOTAL TIME 1.58112E+07 2.63520E+05  4392.0      183.00     0.50103    
1
1
                            STRESS PERIOD NO.    3, LENGTH =   91.00000    
                            -----------------------------------------------

                              NUMBER OF TIME STEPS =     1

                               MULTIPLIER FOR DELT =     1.500

                            INITIAL TIME STEP SIZE =   91.00000    

 WELL NO.  LAYER   ROW   COL   STRESS RATE         
 --------------------------------------------------
      1      1     23      9     -0.3450E+05
      2      1      3      9     -0.3774E+05
      3      1      3     14     -0.3278E+05

      3 WELLS

                 RECHARGE =   0.00000    

 REUSING STREAM SEGMENT DATA FROM LAST STRESS PERIOD
 
 SOLVING FOR HEAD 


     7 CALLS TO PCG ROUTINE FOR TIME STEP   1 IN STRESS PERIOD    3
    27 TOTAL ITERATIONS

 OUTPUT CONTROL FOR STRESS PERIOD    3   TIME STEP    1
    SAVE BUDGET
    SAVE HEAD FOR ALL LAYERS
    PRINT HEAD FOR ALL LAYERS
 UBDSV2 SAVING "STREAMFLOW OUT  " ON UNIT  50 AT TIME STEP  1, STRESS PERIOD   3



 STREAM LISTING     PERIOD      3   STEP        1

 LAYER ROW COL. STREAM  RCH.  FLOW INTO     FLOW TO   FLOW OUT OF   OVRLND.     DIRECT     STREAM       STREAM     STREAM     STREAM   STREAMBED  STREAMBED
                SEG.NO.  NO.  STRM. RCH.    AQUIFER    STRM. RCH.    RUNOFF     PRECIP       ET          HEAD       DEPTH      WIDTH   CONDCTNC.   GRADIENT

   1   13    1     1     1    1.0000E+05 -2.4436E+03   1.0244E+05  0.000E+00  0.000E+00  0.000E+00  4.84071E+01  1.457E-01  2.000E+01  2.000E+04 -1.222E-01
   1   13    2     1     2    1.0244E+05 -4.1790E+03   1.0662E+05  0.000E+00  0.000E+00  0.000E+00  4.79326E+01  1.486E-01  2.000E+01  2.000E+04 -2.089E-01
   1   14    3     1     3    1.0662E+05 -3.2756E+03   1.0990E+05  0.000E+00  0.000E+00  0.000E+00  4.74585E+01  1.517E-01  2.000E+01  2.000E+04 -1.638E-01
   1   15    4     1     4    1.0990E+05 -3.1448E+03   1.1304E+05  0.000E+00  0.000E+00  0.000E+00  4.69839E+01  1.544E-01  2.000E+01  2.000E+04 -1.572E-01
   1   16    5     1     5    1.1304E+05 -3.2907E+03   1.1633E+05  0.000E+00  0.000E+00  0.000E+00  4.65093E+01  1.570E-01  2.000E+01  2.000E+04 -1.645E-01
   1   16    6     1     6    1.1633E+05 -2.4898E+03   1.1882E+05  0.000E+00  0.000E+00  0.000E+00  4.60344E+01  1.594E-01  2.000E+01  2.000E+04 -1.245E-01
   1   16    7     1     7    1.1882E+05 -2.4580E+03   1.2128E+05  0.000E+00  0.000E+00  0.000E+00  4.55591E+01  1.614E-01  2.000E+01  2.000E+04 -1.229E-01
   1   16    8     1     8    1.2128E+05 -2.4239E+03   1.2371E+05  0.000E+00  0.000E+00  0.000E+00  4.50838E+01  1.634E-01  2.000E+01  2.000E+04 -1.212E-01
   1   16    9     1     9    1.2371E+05 -2.3999E+03   1.2611E+05  0.000E+00  0.000E+00  0.000E+00  4.46085E+01  1.653E-01  2.000E+01  2.000E+04 -1.200E-01
   1   16   10     1    10    1.2611E+05 -2.4028E+03   1.2851E+05  0.000E+00  0.000E+00  0.000E+00  4.41331E+01  1.672E-01  2.000E+01  2.000E+04 -1.201E-01
   1   16   11     1    11    1.2851E+05 -2.4527E+03   1.3096E+05  0.000E+00  0.000E+00  0.000E+00  4.36577E+01  1.691E-01  2.000E+01  2.000E+04 -1.226E-01
   1   16   12     1    12    1.3096E+05 -3.5076E+03   1.3447E+05  0.000E+00  0.000E+00  0.000E+00  4.31828E+01  1.714E-01  2.000E+01  2.000E+04 -1.754E-01
   1   15   13     1    13    1.3447E+05 -3.3845E+03   1.3785E+05  0.000E+00  0.000E+00  0.000E+00  4.27082E+01  1.741E-01  2.000E+01  2.000E+04 -1.692E-01
   1   14   14     1    14    1.3785E+05 -3.4233E+03   1.4128E+05  0.000E+00  0.000E+00  0.000E+00  4.22335E+01  1.767E-01  2.000E+01  2.000E+04 -1.712E-01
   1   13   15     1    15    1.4128E+05 -3.5831E+03   1.4486E+05  0.000E+00  0.000E+00  0.000E+00  4.17589E+01  1.793E-01  2.000E+01  2.000E+04 -1.792E-01
   1   12   16     1    16    1.4486E+05 -4.4340E+03   1.4929E+05  0.000E+00  0.000E+00  0.000E+00  4.12846E+01  1.823E-01  2.000E+01  2.000E+04 -2.217E-01
   1   12   17     1    17    1.4929E+05 -3.0815E+03   1.5237E+05  0.000E+00  0.000E+00  0.000E+00  4.08101E+01  1.851E-01  2.000E+01  2.000E+04 -1.541E-01
   1   12   18     1    18    1.5237E+05 -3.0614E+03   1.5544E+05  0.000E+00  0.000E+00  0.000E+00  4.03351E+01  1.874E-01  2.000E+01  2.000E+04 -1.531E-01
   1   12   19     1    19    1.5544E+05 -4.0906E+03   1.5953E+05  0.000E+00  0.000E+00  0.000E+00  3.98604E+01  1.900E-01  2.000E+01  2.000E+04 -2.045E-01
   1   13   20     1    20    1.5953E+05 -2.8898E+03   1.6242E+05  0.000E+00  0.000E+00  0.000E+00  3.93857E+01  1.925E-01  2.000E+01  2.000E+04 -1.445E-01
   1   14   21     1    21    1.6242E+05 -2.3240E+03   1.6474E+05  0.000E+00  0.000E+00  0.000E+00  3.89102E+01  1.943E-01  2.000E+01  2.000E+04 -1.162E-01
   1   14   22     1    22    1.6474E+05  4.9955E+03   1.5975E+05  0.000E+00  0.000E+00  0.000E+00  3.84320E+01  1.934E-01  2.000E+01  2.000E+04  2.498E-01
   1    9   30     2     1    5.0000E+04 -2.6651E+03   5.2665E+04  0.000E+00  0.000E+00  0.000E+00  4.02427E+01  1.177E-01  2.000E+01  2.000E+04 -1.333E-01
   1    9   29     2     2    5.2665E+04 -2.9937E+03   5.5659E+04  0.000E+00  0.000E+00  0.000E+00  3.99966E+01  1.216E-01  2.000E+01  2.000E+04 -1.497E-01
   1    9   28     2     3    5.5659E+04 -3.3657E+03   5.9024E+04  0.000E+00  0.000E+00  0.000E+00  3.97508E+01  1.258E-01  2.000E+01  2.000E+04 -1.683E-01
   1    9   27     2     4    5.9024E+04 -6.0205E+03   6.5045E+04  0.000E+00  0.000E+00  0.000E+00  3.95069E+01  1.319E-01  2.000E+01  2.000E+04 -3.010E-01
   1   10   26     2     5    6.5045E+04 -3.6216E+03   6.8666E+04  0.000E+00  0.000E+00  0.000E+00  3.92629E+01  1.379E-01  2.000E+01  2.000E+04 -1.811E-01
   1   11   25     2     6    6.8666E+04 -2.5627E+03   7.1229E+04  0.000E+00  0.000E+00  0.000E+00  3.90167E+01  1.417E-01  2.000E+01  2.000E+04 -1.281E-01
   1   12   24     2     7    7.1229E+04 -1.7242E+03   7.2953E+04  0.000E+00  0.000E+00  0.000E+00  3.87693E+01  1.443E-01  2.000E+01  2.000E+04 -8.621E-02
   1   13   23     2     8    7.2953E+04 -9.5339E+02   7.3907E+04  0.000E+00  0.000E+00  0.000E+00  3.85209E+01  1.459E-01  2.000E+01  2.000E+04 -4.767E-02
   1   14   22     2     9    7.3907E+04  1.7637E+03   7.2143E+04  0.000E+00  0.000E+00  0.000E+00  3.82704E+01  1.454E-01  2.000E+01  2.000E+04  8.818E-02
   1   14   22     3     1    2.3189E+05 -8.5137E+03   2.4040E+05  0.000E+00  0.000E+00  0.000E+00  3.77566E+01  2.010E-01  2.000E+01  2.000E+04 -4.257E-01
   1   15   23     3     2    2.4040E+05 -3.0623E+03   2.4346E+05  0.000E+00  0.000E+00  0.000E+00  3.68706E+01  2.039E-01  2.000E+01  2.000E+04 -1.531E-01
   1   15   24     3     3    2.4346E+05 -2.0736E+03   2.4554E+05  0.000E+00  0.000E+00  0.000E+00  3.59830E+01  2.052E-01  2.000E+01  2.000E+04 -1.037E-01
   1   15   25     3     4    2.4554E+05 -1.9305E+03   2.4747E+05  0.000E+00  0.000E+00  0.000E+00  3.50951E+01  2.062E-01  2.000E+01  2.000E+04 -9.653E-02
   1   15   26     3     5    2.4747E+05 -2.2540E+03   2.4972E+05  0.000E+00  0.000E+00  0.000E+00  3.42073E+01  2.073E-01  2.000E+01  2.000E+04 -1.127E-01
   1   16   27     3     6    2.4972E+05 -3.2262E+03   2.5295E+05  0.000E+00  0.000E+00  0.000E+00  3.33198E+01  2.087E-01  2.000E+01  2.000E+04 -1.613E-01
   1   17   28     3     7    2.5295E+05 -4.0542E+03   2.5700E+05  0.000E+00  0.000E+00  0.000E+00  3.24327E+01  2.105E-01  2.000E+01  2.000E+04 -2.027E-01
   1   18   29     3     8    2.5700E+05 -5.7461E+03   2.6275E+05  0.000E+00  0.000E+00  0.000E+00  3.15462E+01  2.129E-01  2.000E+01  2.000E+04 -2.873E-01
   1   18   30     3     9    2.6275E+05 -4.7669E+03   2.6752E+05  0.000E+00  0.000E+00  0.000E+00  3.06599E+01  2.155E-01  2.000E+01  2.000E+04 -2.383E-01



1
              HEAD IN LAYER   1 AT END OF TIME STEP   1 IN STRESS PERIOD    3
  ---------------------------------------------------------------------------

          1      2      3      4      5      6      7      8      9     10
         11     12     13     14     15     16     17     18     19     20
         21     22     23     24     25     26     27     28     29     30
 .........................................................................
   1  ****** ****** ****** ****** ****** ****** ****** ****** ****** ******
      ****** ****** ****** ****** ****** ****** ****** ****** ****** ******
      ****** ****** ****** ****** ****** ****** ****** ****** ****** ******
   2  ****** ****** ****** ****** ****** ****** ****** ****** ****** ******
      ****** ****** ****** ****** ****** ****** ****** ****** ****** ******
      ****** ****** ****** ****** ****** ****** ****** ****** ****** ******
   3  ****** ****** ****** ****** ****** ****** ****** ****** ****** ******
      ****** ****** ****** ****** ****** ****** ****** ****** ****** ******
      ****** ****** ****** ****** ****** ****** ****** ****** ****** ******
   4  ****** ****** ****** ****** ****** ****** ****** ****** ****** ******
      ****** ****** ****** ****** ****** ****** ****** ****** ****** ******
      ****** ****** ****** ****** ****** ****** ****** ****** ****** ******
   5  ****** ****** ****** ****** ****** ****** ****** ****** ****** ******
      ****** ****** ****** ****** ****** ****** ****** ****** ****** ******
      ****** ****** ****** ****** ****** ****** ****** ****** ****** ******
   6  ****** ****** ****** ****** ****** ****** ****** ****** ****** ******
      ****** ****** ****** ****** ****** ****** ****** ****** ****** ******
      ****** ****** ****** ****** ****** ****** ****** ****** ****** ******
   7  ****** ****** ****** ****** ****** ****** ****** ****** ****** ******
      ****** ****** ****** ****** ****** ****** ****** ****** ****** ******
      ****** ****** ****** ****** ****** ****** ****** ****** ****** ******
   8  ****** ****** ****** ****** ****** ****** ****** ****** ****** ******
      ****** ****** ****** ****** ****** ****** ****** ****** ****** ******
      ****** ****** ****** ****** ****** ****** ****** ****** ****** ******
   9  ****** ****** ****** ****** ****** ****** ****** ****** ****** ******
      ****** ****** ****** ****** ****** ****** ****** ****** ****** ******
      ****** ****** ****** ****** ****** ****** ****** ****** ****** ******
  10  ****** ****** ****** ****** ****** ****** ****** ****** ****** ******
      ****** ****** ****** ****** ****** ****** ****** ****** ****** ******
      ****** ****** ****** ****** ****** ****** ****** ****** ****** ******
  11  ****** ****** ****** ****** ****** ****** ****** ****** ****** ******
      ****** ****** ****** ****** ****** ****** ****** ****** ****** ******
      ****** ****** ****** ****** ****** ****** ****** ****** ****** ******
  12  ****** ****** ****** ****** ****** ****** ****** ****** ****** ******
      ****** ****** ****** ****** ****** ****** ****** ****** ****** ******
      ****** ****** ****** ****** ****** ****** ****** ****** ****** ******
  13  ****** ****** ****** ****** ****** ****** ****** ****** ****** ******
      ****** ****** ****** ****** ****** ****** ****** ****** ****** ******
      ****** ****** ****** ****** ****** ****** ****** ****** ****** ******
  14  ****** ****** ****** ****** ****** ****** ****** ****** ****** ******
      ****** ****** ****** ****** ****** ****** ****** ****** ****** ******
      ****** ****** ****** ****** ****** ****** ****** ****** ****** ******
  15  ****** ****** ****** ****** ****** ****** ****** ****** ****** ******
      ****** ****** ****** ****** ****** ****** ****** ****** ****** ******
      ****** ****** ****** ****** ****** ****** ****** ****** ****** ******
  16  ****** ****** ****** ****** ****** ****** ****** ****** ****** ******
      ****** ****** ****** ****** ****** ****** ****** ****** ****** ******
      ****** ****** ****** ****** ****** ****** ****** ****** ****** ******
  17  ****** ****** ****** ****** ****** ****** ****** ****** ****** ******
      ****** ****** ****** ****** ****** ****** ****** ****** ****** ******
      ****** ****** ****** ****** ****** ****** ****** ****** ****** ******
  18  ****** ****** ****** ****** ****** ****** ****** ****** ****** ******
      ****** ****** ****** ****** ****** ****** ****** ****** ****** ******
      ****** ****** ****** ****** ****** ****** ****** ****** ****** ******
  19  ****** ****** ****** ****** ****** ****** ****** ****** ****** ******
      ****** ****** ****** ****** ****** ****** ****** ****** ****** ******
      ****** ****** ****** ****** ****** ****** ****** ****** ****** ******
  20  ****** ****** ****** ****** ****** ****** ****** ****** ****** ******
      ****** ****** ****** ****** ****** ****** ****** ****** ****** ******
      ****** ****** ****** ****** ****** ****** ****** ****** ****** ******
  21  ****** ****** ****** ****** ****** ****** ****** ****** ****** ******
      ****** ****** ****** ****** ****** ****** ****** ****** ****** ******
      ****** ****** ****** ****** ****** ****** ****** ****** ****** ******
  22  ****** ****** ****** ****** ****** ****** ****** ****** ****** ******
      ****** ****** ****** ****** ****** ****** ****** ****** ****** ******
      ****** ****** ****** ****** ****** ****** ****** ****** ****** ******
  23  ****** ****** ****** ****** ****** ****** ****** ****** ****** ******
      ****** ****** ****** ****** ****** ****** ****** ****** ****** ******
      ****** ****** ****** ****** ****** ****** ****** ****** ****** ******
  24  ****** ****** ****** ****** ****** ****** ****** ****** ****** ******
      ****** ****** ****** ****** ****** ****** ****** ****** ****** ******
      ****** ****** ****** ****** ****** ****** ****** ****** ****** ******
  25  ****** ****** ****** ****** ****** ****** ****** ****** ****** ******
      ****** ****** ****** ****** ****** ****** ****** ****** ****** ******
      ****** ****** ****** ****** ****** ****** ****** ****** ****** ******

 HEAD WILL BE SAVED ON UNIT   51 AT END OF TIME STEP    1, STRESS PERIOD    3
1
  VOLUMETRIC BUDGET FOR ENTIRE MODEL AT END OF TIME STEP    1, STRESS PERIOD   3
  ------------------------------------------------------------------------------

     CUMULATIVE VOLUMES      L**3       RATES FOR THIS TIME STEP      L**3/T
     ------------------                 ------------------------

           IN:                                      IN:
           ---                                      ---
             STORAGE =    23704239.6984               STORAGE =       27893.1993
       CONSTANT HEAD =    46705999.4037         CONSTANT HEAD =      194644.5923
               WELLS =           0.0000                 WELLS =           0.0000
            RECHARGE =     6292800.0000              RECHARGE =           0.0000
      STREAM LEAKAGE =     1645538.4173        STREAM LEAKAGE =        6759.2307

            TOTAL IN =    78348577.5193              TOTAL IN =      229297.0223

          OUT:                                     OUT:
          ----                                     ----
             STORAGE =           0.0000               STORAGE =           0.0000
       CONSTANT HEAD =           0.0000         CONSTANT HEAD =           0.0000
               WELLS =    28776018.5973                 WELLS =      105021.9657
            RECHARGE =           0.0000              RECHARGE =           0.0000
      STREAM LEAKAGE =    49572559.7976        STREAM LEAKAGE =      124275.0595

           TOTAL OUT =    78348578.3949             TOTAL OUT =      229297.0251

            IN - OUT =          -0.8756              IN - OUT =      -2.8222E-03

 PERCENT DISCREPANCY =          -0.00     PERCENT DISCREPANCY =          -0.00






         TIME SUMMARY AT END OF TIME STEP    1 IN STRESS PERIOD    3
                    SECONDS     MINUTES      HOURS       DAYS        YEARS
                    -----------------------------------------------------------
   TIME STEP LENGTH 7.86240E+06 1.31040E+05  2184.0      91.000     0.24914    
 STRESS PERIOD TIME 7.86240E+06 1.31040E+05  2184.0      91.000     0.24914    
         TOTAL TIME 2.36736E+07 3.94560E+05  6576.0      274.00     0.75017    
1
1
                            STRESS PERIOD NO.    4, LENGTH =   91.00000    
                            -----------------------------------------------

                              NUMBER OF TIME STEPS =     1

                               MULTIPLIER FOR DELT =     1.500

                            INITIAL TIME STEP SIZE =   91.00000    

 WELL NO.  LAYER   ROW   COL   STRESS RATE         
 --------------------------------------------------
      1      1     23      9     -0.3450E+05
      2      1      3      9     -0.3774E+05
      3      1      3     14     -0.3278E+05

      3 WELLS

                 RECHARGE =  1.000000E-03

 REUSING STREAM SEGMENT DATA FROM LAST STRESS PERIOD
 
 SOLVING FOR HEAD 


     5 CALLS TO PCG ROUTINE FOR TIME STEP   1 IN STRESS PERIOD    4
    17 TOTAL ITERATIONS

 OUTPUT CONTROL FOR STRESS PERIOD    4   TIME STEP    1
    SAVE BUDGET
    SAVE HEAD FOR ALL LAYERS
    PRINT HEAD FOR ALL LAYERS
 UBDSV2 SAVING "STREAMFLOW OUT  " ON UNIT  50 AT TIME STEP  1, STRESS PERIOD   4



 STREAM LISTING     PERIOD      4   STEP        1

 LAYER ROW COL. STREAM  RCH.  FLOW INTO     FLOW TO   FLOW OUT OF   OVRLND.     DIRECT     STREAM       STREAM     STREAM     STREAM   STREAMBED  STREAMBED
                SEG.NO.  NO.  STRM. RCH.    AQUIFER    STRM. RCH.    RUNOFF     PRECIP       ET          HEAD       DEPTH      WIDTH   CONDCTNC.   GRADIENT

   1   13    1     1     1    1.0000E+05 -2.4147E+03   1.0241E+05  0.000E+00  0.000E+00  0.000E+00  4.84071E+01  1.457E-01  2.000E+01  2.000E+04 -1.207E-01
   1   13    2     1     2    1.0241E+05 -4.0889E+03   1.0650E+05  0.000E+00  0.000E+00  0.000E+00  4.79326E+01  1.485E-01  2.000E+01  2.000E+04 -2.044E-01
   1   14    3     1     3    1.0650E+05 -3.2629E+03   1.0977E+05  0.000E+00  0.000E+00  0.000E+00  4.74584E+01  1.516E-01  2.000E+01  2.000E+04 -1.631E-01
   1   15    4     1     4    1.0977E+05 -3.1599E+03   1.1293E+05  0.000E+00  0.000E+00  0.000E+00  4.69838E+01  1.543E-01  2.000E+01  2.000E+04 -1.580E-01
   1   16    5     1     5    1.1293E+05 -3.3293E+03   1.1626E+05  0.000E+00  0.000E+00  0.000E+00  4.65092E+01  1.570E-01  2.000E+01  2.000E+04 -1.665E-01
   1   16    6     1     6    1.1626E+05 -2.5088E+03   1.1876E+05  0.000E+00  0.000E+00  0.000E+00  4.60344E+01  1.594E-01  2.000E+01  2.000E+04 -1.254E-01
   1   16    7     1     7    1.1876E+05 -2.4697E+03   1.2123E+05  0.000E+00  0.000E+00  0.000E+00  4.55591E+01  1.614E-01  2.000E+01  2.000E+04 -1.235E-01
   1   16    8     1     8    1.2123E+05 -2.4319E+03   1.2367E+05  0.000E+00  0.000E+00  0.000E+00  4.50838E+01  1.633E-01  2.000E+01  2.000E+04 -1.216E-01
   1   16    9     1     9    1.2367E+05 -2.4074E+03   1.2607E+05  0.000E+00  0.000E+00  0.000E+00  4.46085E+01  1.653E-01  2.000E+01  2.000E+04 -1.204E-01
   1   16   10     1    10    1.2607E+05 -2.4131E+03   1.2849E+05  0.000E+00  0.000E+00  0.000E+00  4.41331E+01  1.672E-01  2.000E+01  2.000E+04 -1.207E-01
   1   16   11     1    11    1.2849E+05 -2.4687E+03   1.3096E+05  0.000E+00  0.000E+00  0.000E+00  4.36577E+01  1.691E-01  2.000E+01  2.000E+04 -1.234E-01
   1   16   12     1    12    1.3096E+05 -3.5338E+03   1.3449E+05  0.000E+00  0.000E+00  0.000E+00  4.31828E+01  1.714E-01  2.000E+01  2.000E+04 -1.767E-01
   1   15   13     1    13    1.3449E+05 -3.3903E+03   1.3788E+05  0.000E+00  0.000E+00  0.000E+00  4.27082E+01  1.741E-01  2.000E+01  2.000E+04 -1.695E-01
   1   14   14     1    14    1.3788E+05 -3.4127E+03   1.4129E+05  0.000E+00  0.000E+00  0.000E+00  4.22335E+01  1.767E-01  2.000E+01  2.000E+04 -1.706E-01
   1   13   15     1    15    1.4129E+05 -3.5592E+03   1.4485E+05  0.000E+00  0.000E+00  0.000E+00  4.17589E+01  1.793E-01  2.000E+01  2.000E+04 -1.780E-01
   1   12   16     1    16    1.4485E+05 -4.3635E+03   1.4921E+05  0.000E+00  0.000E+00  0.000E+00  4.12846E+01  1.823E-01  2.000E+01  2.000E+04 -2.182E-01
   1   12   17     1    17    1.4921E+05 -3.0807E+03   1.5230E+05  0.000E+00  0.000E+00  0.000E+00  4.08100E+01  1.850E-01  2.000E+01  2.000E+04 -1.540E-01
   1   12   18     1    18    1.5230E+05 -3.0760E+03   1.5537E+05  0.000E+00  0.000E+00  0.000E+00  4.03350E+01  1.873E-01  2.000E+01  2.000E+04 -1.538E-01
   1   12   19     1    19    1.5537E+05 -4.1152E+03   1.5949E+05  0.000E+00  0.000E+00  0.000E+00  3.98604E+01  1.899E-01  2.000E+01  2.000E+04 -2.058E-01
   1   13   20     1    20    1.5949E+05 -2.9683E+03   1.6246E+05  0.000E+00  0.000E+00  0.000E+00  3.93857E+01  1.925E-01  2.000E+01  2.000E+04 -1.484E-01
   1   14   21     1    21    1.6246E+05 -2.3930E+03   1.6485E+05  0.000E+00  0.000E+00  0.000E+00  3.89103E+01  1.944E-01  2.000E+01  2.000E+04 -1.197E-01
   1   14   22     1    22    1.6485E+05  4.9588E+03   1.5989E+05  0.000E+00  0.000E+00  0.000E+00  3.84321E+01  1.935E-01  2.000E+01  2.000E+04  2.479E-01
   1    9   30     2     1    5.0000E+04 -2.7737E+03   5.2774E+04  0.000E+00  0.000E+00  0.000E+00  4.02428E+01  1.178E-01  2.000E+01  2.000E+04 -1.387E-01
   1    9   29     2     2    5.2774E+04 -3.1000E+03   5.5874E+04  0.000E+00  0.000E+00  0.000E+00  3.99968E+01  1.218E-01  2.000E+01  2.000E+04 -1.550E-01
   1    9   28     2     3    5.5874E+04 -3.4665E+03   5.9340E+04  0.000E+00  0.000E+00  0.000E+00  3.97511E+01  1.261E-01  2.000E+01  2.000E+04 -1.733E-01
   1    9   27     2     4    5.9340E+04 -6.1160E+03   6.5456E+04  0.000E+00  0.000E+00  0.000E+00  3.95073E+01  1.323E-01  2.000E+01  2.000E+04 -3.058E-01
   1   10   26     2     5    6.5456E+04 -3.7352E+03   6.9191E+04  0.000E+00  0.000E+00  0.000E+00  3.92635E+01  1.385E-01  2.000E+01  2.000E+04 -1.868E-01
   1   11   25     2     6    6.9191E+04 -2.6767E+03   7.1868E+04  0.000E+00  0.000E+00  0.000E+00  3.90174E+01  1.424E-01  2.000E+01  2.000E+04 -1.338E-01
   1   12   24     2     7    7.1868E+04 -1.8364E+03   7.3705E+04  0.000E+00  0.000E+00  0.000E+00  3.87701E+01  1.451E-01  2.000E+01  2.000E+04 -9.182E-02
   1   13   23     2     8    7.3705E+04 -1.0569E+03   7.4761E+04  0.000E+00  0.000E+00  0.000E+00  3.85219E+01  1.469E-01  2.000E+01  2.000E+04 -5.284E-02
   1   14   22     2     9    7.4761E+04  1.7458E+03   7.3016E+04  0.000E+00  0.000E+00  0.000E+00  3.82715E+01  1.465E-01  2.000E+01  2.000E+04  8.729E-02
   1   14   22     3     1    2.3290E+05 -8.5417E+03   2.4145E+05  0.000E+00  0.000E+00  0.000E+00  3.77571E+01  2.015E-01  2.000E+01  2.000E+04 -4.271E-01
   1   15   23     3     2    2.4145E+05 -3.1367E+03   2.4458E+05  0.000E+00  0.000E+00  0.000E+00  3.68712E+01  2.045E-01  2.000E+01  2.000E+04 -1.568E-01
   1   15   24     3     3    2.4458E+05 -2.1571E+03   2.4674E+05  0.000E+00  0.000E+00  0.000E+00  3.59836E+01  2.058E-01  2.000E+01  2.000E+04 -1.079E-01
   1   15   25     3     4    2.4674E+05 -2.0263E+03   2.4877E+05  0.000E+00  0.000E+00  0.000E+00  3.50958E+01  2.069E-01  2.000E+01  2.000E+04 -1.013E-01
   1   15   26     3     5    2.4877E+05 -2.3833E+03   2.5115E+05  0.000E+00  0.000E+00  0.000E+00  3.42080E+01  2.080E-01  2.000E+01  2.000E+04 -1.192E-01
   1   16   27     3     6    2.5115E+05 -3.3656E+03   2.5452E+05  0.000E+00  0.000E+00  0.000E+00  3.33205E+01  2.094E-01  2.000E+01  2.000E+04 -1.683E-01
   1   17   28     3     7    2.5452E+05 -4.1941E+03   2.5871E+05  0.000E+00  0.000E+00  0.000E+00  3.24335E+01  2.113E-01  2.000E+01  2.000E+04 -2.097E-01
   1   18   29     3     8    2.5871E+05 -5.8713E+03   2.6458E+05  0.000E+00  0.000E+00  0.000E+00  3.15471E+01  2.138E-01  2.000E+01  2.000E+04 -2.936E-01
   1   18   30     3     9    2.6458E+05 -4.8776E+03   2.6946E+05  0.000E+00  0.000E+00  0.000E+00  3.06608E+01  2.164E-01  2.000E+01  2.000E+04 -2.439E-01



1
              HEAD IN LAYER   1 AT END OF TIME STEP   1 IN STRESS PERIOD    4
  ---------------------------------------------------------------------------

          1      2      3      4      5      6      7      8      9     10
         11     12     13     14     15     16     17     18     19     20
         21     22     23     24     25     26     27     28     29     30
 .........................................................................
   1  ****** ****** ****** ****** ****** ****** ****** ****** ****** ******
      ****** ****** ****** ****** ****** ****** ****** ****** ****** ******
      ****** ****** ****** ****** ****** ****** ****** ****** ****** ******
   2  ****** ****** ****** ****** ****** ****** ****** ****** ****** ******
      ****** ****** ****** ****** ****** ****** ****** ****** ****** ******
      ****** ****** ****** ****** ****** ****** ****** ****** ****** ******
   3  ****** ****** ****** ****** ****** ****** ****** ****** ****** ******
      ****** ****** ****** ****** ****** ****** ****** ****** ****** ******
      ****** ****** ****** ****** ****** ****** ****** ****** ****** ******
   4  ****** ****** ****** ****** ****** ****** ****** ****** ****** ******
      ****** ****** ****** ****** ****** ****** ****** ****** ****** ******
      ****** ****** ****** ****** ****** ****** ****** ****** ****** ******
   5  ****** ****** ****** ****** ****** ****** ****** ****** ****** ******
      ****** ****** ****** ****** ****** ****** ****** ****** ****** ******
      ****** ****** ****** ****** ****** ****** ****** ****** ****** ******
   6  ****** ****** ****** ****** ****** ****** ****** ****** ****** ******
      ****** ****** ****** ****** ****** ****** ****** ****** ****** ******
      ****** ****** ****** ****** ****** ****** ****** ****** ****** ******
   7  ****** ****** ****** ****** ****** ****** ****** ****** ****** ******
      ****** ****** ****** ****** ****** ****** ****** ****** ****** ******
      ****** ****** ****** ****** ****** ****** ****** ****** ****** ******
   8  ****** ****** ****** ****** ****** ****** ****** ****** ****** ******
      ****** ****** ****** ****** ****** ****** ****** ****** ****** ******
      ****** ****** ****** ****** ****** ****** ****** ****** ****** ******
   9  ****** ****** ****** ****** ****** ****** ****** ****** ****** ******
      ****** ****** ****** ****** ****** ****** ****** ****** ****** ******
      ****** ****** ****** ****** ****** ****** ****** ****** ****** ******
  10  ****** ****** ****** ****** ****** ****** ****** ****** ****** ******
      ****** ****** ****** ****** ****** ****** ****** ****** ****** ******
      ****** ****** ****** ****** ****** ****** ****** ****** ****** ******
  11  ****** ****** ****** ****** ****** ****** ****** ****** ****** ******
      ****** ****** ****** ****** ****** ****** ****** ****** ****** ******
      ****** ****** ****** ****** ****** ****** ****** ****** ****** ******
  12  ****** ****** ****** ****** ****** ****** ****** ****** ****** ******
      ****** ****** ****** ****** ****** ****** ****** ****** ****** ******
      ****** ****** ****** ****** ****** ****** ****** ****** ****** ******
  13  ****** ****** ****** ****** ****** ****** ****** ****** ****** ******
      ****** ****** ****** ****** ****** ****** ****** ****** ****** ******
      ****** ****** ****** ****** ****** ****** ****** ****** ****** ******
  14  ****** ****** ****** ****** ****** ****** ****** ****** ****** ******
      ****** ****** ****** ****** ****** ****** ****** ****** ****** ******
      ****** ****** ****** ****** ****** ****** ****** ****** ****** ******
  15  ****** ****** ****** ****** ****** ****** ****** ****** ****** ******
      ****** ****** ****** ****** ****** ****** ****** ****** ****** ******
      ****** ****** ****** ****** ****** ****** ****** ****** ****** ******
  16  ****** ****** ****** ****** ****** ****** ****** ****** ****** ******
      ****** ****** ****** ****** ****** ****** ****** ****** ****** ******
      ****** ****** ****** ****** ****** ****** ****** ****** ****** ******
  17  ****** ****** ****** ****** ****** ****** ****** ****** ****** ******
      ****** ****** ****** ****** ****** ****** ****** ****** ****** ******
      ****** ****** ****** ****** ****** ****** ****** ****** ****** ******
  18  ****** ****** ****** ****** ****** ****** ****** ****** ****** ******
      ****** ****** ****** ****** ****** ****** ****** ****** ****** ******
      ****** ****** ****** ****** ****** ****** ****** ****** ****** ******
  19  ****** ****** ****** ****** ****** ****** ****** ****** ****** ******
      ****** ****** ****** ****** ****** ****** ****** ****** ****** ******
      ****** ****** ****** ****** ****** ****** ****** ****** ****** ******
  20  ****** ****** ****** ****** ****** ****** ****** ****** ****** ******
      ****** ****** ****** ****** ****** ****** ****** ****** ****** ******
      ****** ****** ****** ****** ****** ****** ****** ****** ****** ******
  21  ****** ****** ****** ****** ****** ****** ****** ****** ****** ******
      ****** ****** ****** ****** ****** ****** ****** ****** ****** ******
      ****** ****** ****** ****** ****** ****** ****** ****** ****** ******
  22  ****** ****** ****** ****** ****** ****** ****** ****** ****** ******
      ****** ****** ****** ****** ****** ****** ****** ****** ****** ******
      ****** ****** ****** ****** ****** ****** ****** ****** ****** ******
  23  ****** ****** ****** ****** ****** ****** ****** ****** ****** ******
      ****** ****** ****** ****** ****** ****** ****** ****** ****** ******
      ****** ****** ****** ****** ****** ****** ****** ****** ****** ******
  24  ****** ****** ****** ****** ****** ****** ****** ****** ****** ******
      ****** ****** ****** ****** ****** ****** ****** ****** ****** ******
      ****** ****** ****** ****** ****** ****** ****** ****** ****** ******
  25  ****** ****** ****** ****** ****** ****** ****** ****** ****** ******
      ****** ****** ****** ****** ****** ****** ****** ****** ****** ******
      ****** ****** ****** ****** ****** ****** ****** ****** ****** ******

 HEAD WILL BE SAVED ON UNIT   51 AT END OF TIME STEP    1, STRESS PERIOD    4
1
  VOLUMETRIC BUDGET FOR ENTIRE MODEL AT END OF TIME STEP    1, STRESS PERIOD   4
  ------------------------------------------------------------------------------

     CUMULATIVE VOLUMES      L**3       RATES FOR THIS TIME STEP      L**3/T
     ------------------                 ------------------------

           IN:                                      IN:
           ---                                      ---
             STORAGE =    23924639.1168               STORAGE =        2421.9716
       CONSTANT HEAD =    64427239.2220         CONSTANT HEAD =      194738.8991
               WELLS =           0.0000                 WELLS =           0.0000
            RECHARGE =     8804400.0000              RECHARGE =       27600.0000
      STREAM LEAKAGE =     2255655.8454        STREAM LEAKAGE =        6704.5871

            TOTAL IN =    99411934.1842              TOTAL IN =      231465.4579

          OUT:                                     OUT:
          ----                                     ----
             STORAGE =       25521.1069               STORAGE =         280.4517
       CONSTANT HEAD =           0.0000         CONSTANT HEAD =           0.0000
               WELLS =    38333017.4745                 WELLS =      105021.9657
            RECHARGE =           0.0000              RECHARGE =           0.0000
      STREAM LEAKAGE =    61053396.5012        STREAM LEAKAGE =      126163.0407

           TOTAL OUT =    99411935.0826             TOTAL OUT =      231465.4581

            IN - OUT =          -0.8985              IN - OUT =      -2.5085E-04

 PERCENT DISCREPANCY =          -0.00     PERCENT DISCREPANCY =          -0.00






         TIME SUMMARY AT END OF TIME STEP    1 IN STRESS PERIOD    4
                    SECONDS     MINUTES      HOURS       DAYS        YEARS
                    -----------------------------------------------------------
   TIME STEP LENGTH 7.86240E+06 1.31040E+05  2184.0      91.000     0.24914    
 STRESS PERIOD TIME 7.86240E+06 1.31040E+05  2184.0      91.000     0.24914    
         TOTAL TIME 3.15360E+07 5.25600E+05  8760.0      365.00     0.99932    
1
1
                            STRESS PERIOD NO.    5, LENGTH =   92.00000    
                            -----------------------------------------------

                              NUMBER OF TIME STEPS =     1

                               MULTIPLIER FOR DELT =     1.500

                            INITIAL TIME STEP SIZE =   92.00000    

 WELL NO.  LAYER   ROW   COL   STRESS RATE         
 --------------------------------------------------
      1      1     23      9     -0.3450E+05
      2      1      3      9     -0.3774E+05
      3      1      3     14     -0.3278E+05

      3 WELLS

                 RECHARGE =  5.000000E-04

 REUSING STREAM SEGMENT DATA FROM LAST STRESS PERIOD
 
 SOLVING FOR HEAD 


     6 CALLS TO PCG ROUTINE FOR TIME STEP   1 IN STRESS PERIOD    5
    23 TOTAL ITERATIONS

 OUTPUT CONTROL FOR STRESS PERIOD    5   TIME STEP    1
    SAVE BUDGET
    SAVE HEAD FOR ALL LAYERS
    PRINT HEAD FOR ALL LAYERS
 UBDSV2 SAVING "STREAMFLOW OUT  " ON UNIT  50 AT TIME STEP  1, STRESS PERIOD   5



 STREAM LISTING     PERIOD      5   STEP        1

 LAYER ROW COL. STREAM  RCH.  FLOW INTO     FLOW TO   FLOW OUT OF   OVRLND.     DIRECT     STREAM       STREAM     STREAM     STREAM   STREAMBED  STREAMBED
                SEG.NO.  NO.  STRM. RCH.    AQUIFER    STRM. RCH.    RUNOFF     PRECIP       ET          HEAD       DEPTH      WIDTH   CONDCTNC.   GRADIENT

   1   13    1     1     1    1.0000E+05 -2.2170E+03   1.0222E+05  0.000E+00  0.000E+00  0.000E+00  4.84070E+01  1.456E-01  2.000E+01  2.000E+04 -1.109E-01
   1   13    2     1     2    1.0222E+05 -3.8096E+03   1.0603E+05  0.000E+00  0.000E+00  0.000E+00  4.79323E+01  1.482E-01  2.000E+01  2.000E+04 -1.905E-01
   1   14    3     1     3    1.0603E+05 -3.0115E+03   1.0904E+05  0.000E+00  0.000E+00  0.000E+00  4.74579E+01  1.511E-01  2.000E+01  2.000E+04 -1.506E-01
   1   15    4     1     4    1.0904E+05 -2.9253E+03   1.1196E+05  0.000E+00  0.000E+00  0.000E+00  4.69831E+01  1.536E-01  2.000E+01  2.000E+04 -1.463E-01
   1   16    5     1     5    1.1196E+05 -3.1305E+03   1.1509E+05  0.000E+00  0.000E+00  0.000E+00  4.65084E+01  1.561E-01  2.000E+01  2.000E+04 -1.565E-01
   1   16    6     1     6    1.1509E+05 -2.3422E+03   1.1744E+05  0.000E+00  0.000E+00  0.000E+00  4.60333E+01  1.583E-01  2.000E+01  2.000E+04 -1.171E-01
   1   16    7     1     7    1.1744E+05 -2.2972E+03   1.1973E+05  0.000E+00  0.000E+00  0.000E+00  4.55580E+01  1.602E-01  2.000E+01  2.000E+04 -1.149E-01
   1   16    8     1     8    1.1973E+05 -2.2565E+03   1.2199E+05  0.000E+00  0.000E+00  0.000E+00  4.50825E+01  1.621E-01  2.000E+01  2.000E+04 -1.128E-01
   1   16    9     1     9    1.2199E+05 -2.2322E+03   1.2422E+05  0.000E+00  0.000E+00  0.000E+00  4.46070E+01  1.639E-01  2.000E+01  2.000E+04 -1.116E-01
   1   16   10     1    10    1.2422E+05 -2.2409E+03   1.2646E+05  0.000E+00  0.000E+00  0.000E+00  4.41316E+01  1.656E-01  2.000E+01  2.000E+04 -1.120E-01
   1   16   11     1    11    1.2646E+05 -2.3018E+03   1.2876E+05  0.000E+00  0.000E+00  0.000E+00  4.36561E+01  1.674E-01  2.000E+01  2.000E+04 -1.151E-01
   1   16   12     1    12    1.2876E+05 -3.3290E+03   1.3209E+05  0.000E+00  0.000E+00  0.000E+00  4.31810E+01  1.696E-01  2.000E+01  2.000E+04 -1.665E-01
   1   15   13     1    13    1.3209E+05 -3.1519E+03   1.3525E+05  0.000E+00  0.000E+00  0.000E+00  4.27063E+01  1.722E-01  2.000E+01  2.000E+04 -1.576E-01
   1   14   14     1    14    1.3525E+05 -3.1623E+03   1.3841E+05  0.000E+00  0.000E+00  0.000E+00  4.22314E+01  1.746E-01  2.000E+01  2.000E+04 -1.581E-01
   1   13   15     1    15    1.3841E+05 -3.3065E+03   1.4171E+05  0.000E+00  0.000E+00  0.000E+00  4.17566E+01  1.771E-01  2.000E+01  2.000E+04 -1.653E-01
   1   12   16     1    16    1.4171E+05 -4.1059E+03   1.4582E+05  0.000E+00  0.000E+00  0.000E+00  4.12821E+01  1.799E-01  2.000E+01  2.000E+04 -2.053E-01
   1   12   17     1    17    1.4582E+05 -2.9072E+03   1.4873E+05  0.000E+00  0.000E+00  0.000E+00  4.08075E+01  1.825E-01  2.000E+01  2.000E+04 -1.454E-01
   1   12   18     1    18    1.4873E+05 -2.9114E+03   1.5164E+05  0.000E+00  0.000E+00  0.000E+00  4.03324E+01  1.846E-01  2.000E+01  2.000E+04 -1.456E-01
   1   12   19     1    19    1.5164E+05 -3.9184E+03   1.5556E+05  0.000E+00  0.000E+00  0.000E+00  3.98576E+01  1.871E-01  2.000E+01  2.000E+04 -1.959E-01
   1   13   20     1    20    1.5556E+05 -2.7932E+03   1.5835E+05  0.000E+00  0.000E+00  0.000E+00  3.93828E+01  1.896E-01  2.000E+01  2.000E+04 -1.397E-01
   1   14   21     1    21    1.5835E+05 -2.2357E+03   1.6059E+05  0.000E+00  0.000E+00  0.000E+00  3.89073E+01  1.914E-01  2.000E+01  2.000E+04 -1.118E-01
   1   14   22     1    22    1.6059E+05  4.9825E+03   1.5560E+05  0.000E+00  0.000E+00  0.000E+00  3.84290E+01  1.904E-01  2.000E+01  2.000E+04  2.491E-01
   1    9   30     2     1    5.0000E+04 -2.6565E+03   5.2657E+04  0.000E+00  0.000E+00  0.000E+00  4.02427E+01  1.177E-01  2.000E+01  2.000E+04 -1.328E-01
   1    9   29     2     2    5.2657E+04 -2.9829E+03   5.5639E+04  0.000E+00  0.000E+00  0.000E+00  3.99965E+01  1.215E-01  2.000E+01  2.000E+04 -1.491E-01
   1    9   28     2     3    5.5639E+04 -3.3479E+03   5.8987E+04  0.000E+00  0.000E+00  0.000E+00  3.97508E+01  1.258E-01  2.000E+01  2.000E+04 -1.674E-01
   1    9   27     2     4    5.8987E+04 -5.9482E+03   6.4936E+04  0.000E+00  0.000E+00  0.000E+00  3.95068E+01  1.318E-01  2.000E+01  2.000E+04 -2.974E-01
   1   10   26     2     5    6.4936E+04 -3.5627E+03   6.8498E+04  0.000E+00  0.000E+00  0.000E+00  3.92628E+01  1.378E-01  2.000E+01  2.000E+04 -1.781E-01
   1   11   25     2     6    6.8498E+04 -2.5102E+03   7.1008E+04  0.000E+00  0.000E+00  0.000E+00  3.90165E+01  1.415E-01  2.000E+01  2.000E+04 -1.255E-01
   1   12   24     2     7    7.1008E+04 -1.6883E+03   7.2697E+04  0.000E+00  0.000E+00  0.000E+00  3.87690E+01  1.440E-01  2.000E+01  2.000E+04 -8.441E-02
   1   13   23     2     8    7.2697E+04 -9.4121E+02   7.3638E+04  0.000E+00  0.000E+00  0.000E+00  3.85206E+01  1.456E-01  2.000E+01  2.000E+04 -4.706E-02
   1   14   22     2     9    7.3638E+04  1.8034E+03   7.1835E+04  0.000E+00  0.000E+00  0.000E+00  3.82701E+01  1.451E-01  2.000E+01  2.000E+04  9.017E-02
   1   14   22     3     1    2.2744E+05 -8.5128E+03   2.3595E+05  0.000E+00  0.000E+00  0.000E+00  3.77543E+01  1.987E-01  2.000E+01  2.000E+04 -4.256E-01
   1   15   23     3     2    2.3595E+05 -2.9936E+03   2.3894E+05  0.000E+00  0.000E+00  0.000E+00  3.68683E+01  2.017E-01  2.000E+01  2.000E+04 -1.497E-01
   1   15   24     3     3    2.3894E+05 -2.0578E+03   2.4100E+05  0.000E+00  0.000E+00  0.000E+00  3.59807E+01  2.030E-01  2.000E+01  2.000E+04 -1.029E-01
   1   15   25     3     4    2.4100E+05 -1.9295E+03   2.4293E+05  0.000E+00  0.000E+00  0.000E+00  3.50929E+01  2.040E-01  2.000E+01  2.000E+04 -9.648E-02
   1   15   26     3     5    2.4293E+05 -2.2634E+03   2.4520E+05  0.000E+00  0.000E+00  0.000E+00  3.42050E+01  2.050E-01  2.000E+01  2.000E+04 -1.132E-01
   1   16   27     3     6    2.4520E+05 -3.2125E+03   2.4841E+05  0.000E+00  0.000E+00  0.000E+00  3.33175E+01  2.064E-01  2.000E+01  2.000E+04 -1.606E-01
   1   17   28     3     7    2.4841E+05 -4.0379E+03   2.5245E+05  0.000E+00  0.000E+00  0.000E+00  3.24304E+01  2.082E-01  2.000E+01  2.000E+04 -2.019E-01
   1   18   29     3     8    2.5245E+05 -5.7244E+03   2.5817E+05  0.000E+00  0.000E+00  0.000E+00  3.15440E+01  2.106E-01  2.000E+01  2.000E+04 -2.862E-01
   1   18   30     3     9    2.5817E+05 -4.7689E+03   2.6294E+05  0.000E+00  0.000E+00  0.000E+00  3.06577E+01  2.132E-01  2.000E+01  2.000E+04 -2.384E-01



1
              HEAD IN LAYER   1 AT END OF TIME STEP   1 IN STRESS PERIOD    5
  ---------------------------------------------------------------------------

          1      2      3      4      5      6      7      8      9     10
         11     12     13     14     15     16     17     18     19     20
         21     22     23     24     25     26     27     28     29     30
 .........................................................................
   1  ****** ****** ****** ****** ****** ****** ****** ****** ****** ******
      ****** ****** ****** ****** ****** ****** ****** ****** ****** ******
      ****** ****** ****** ****** ****** ****** ****** ****** ****** ******
   2  ****** ****** ****** ****** ****** ****** ****** ****** ****** ******
      ****** ****** ****** ****** ****** ****** ****** ****** ****** ******
      ****** ****** ****** ****** ****** ****** ****** ****** ****** ******
   3  ****** ****** ****** ****** ****** ****** ****** ****** ****** ******
      ****** ****** ****** ****** ****** ****** ****** ****** ****** ******
      ****** ****** ****** ****** ****** ****** ****** ****** ****** ******
   4  ****** ****** ****** ****** ****** ****** ****** ****** ****** ******
      ****** ****** ****** ****** ****** ****** ****** ****** ****** ******
      ****** ****** ****** ****** ****** ****** ****** ****** ****** ******
   5  ****** ****** ****** ****** ****** ****** ****** ****** ****** ******
      ****** ****** ****** ****** ****** ****** ****** ****** ****** ******
      ****** ****** ****** ****** ****** ****** ****** ****** ****** ******
   6  ****** ****** ****** ****** ****** ****** ****** ****** ****** ******
      ****** ****** ****** ****** ****** ****** ****** ****** ****** ******
      ****** ****** ****** ****** ****** ****** ****** ****** ****** ******
   7  ****** ****** ****** ****** ****** ****** ****** ****** ****** ******
      ****** ****** ****** ****** ****** ****** ****** ****** ****** ******
      ****** ****** ****** ****** ****** ****** ****** ****** ****** ******
   8  ****** ****** ****** ****** ****** ****** ****** ****** ****** ******
      ****** ****** ****** ****** ****** ****** ****** ****** ****** ******
      ****** ****** ****** ****** ****** ****** ****** ****** ****** ******
   9  ****** ****** ****** ****** ****** ****** ****** ****** ****** ******
      ****** ****** ****** ****** ****** ****** ****** ****** ****** ******
      ****** ****** ****** ****** ****** ****** ****** ****** ****** ******
  10  ****** ****** ****** ****** ****** ****** ****** ****** ****** ******
      ****** ****** ****** ****** ****** ****** ****** ****** ****** ******
      ****** ****** ****** ****** ****** ****** ****** ****** ****** ******
  11  ****** ****** ****** ****** ****** ****** ****** ****** ****** ******
      ****** ****** ****** ****** ****** ****** ****** ****** ****** ******
      ****** ****** ****** ****** ****** ****** ****** ****** ****** ******
  12  ****** ****** ****** ****** ****** ****** ****** ****** ****** ******
      ****** ****** ****** ****** ****** ****** ****** ****** ****** ******
      ****** ****** ****** ****** ****** ****** ****** ****** ****** ******
  13  ****** ****** ****** ****** ****** ****** ****** ****** ****** ******
      ****** ****** ****** ****** ****** ****** ****** ****** ****** ******
      ****** ****** ****** ****** ****** ****** ****** ****** ****** ******
  14  ****** ****** ****** ****** ****** ****** ****** ****** ****** ******
      ****** ****** ****** ****** ****** ****** ****** ****** ****** ******
      ****** ****** ****** ****** ****** ****** ****** ****** ****** ******
  15  ****** ****** ****** ****** ****** ****** ****** ****** ****** ******
      ****** ****** ****** ****** ****** ****** ****** ****** ****** ******
      ****** ****** ****** ****** ****** ****** ****** ****** ****** ******
  16  ****** ****** ****** ****** ****** ****** ****** ****** ****** ******
      ****** ****** ****** ****** ****** ****** ****** ****** ****** ******
      ****** ****** ****** ****** ****** ****** ****** ****** ****** ******
  17  ****** ****** ****** ****** ****** ****** ****** ****** ****** ******
      ****** ****** ****** ****** ****** ****** ****** ****** ****** ******
      ****** ****** ****** ****** ****** ****** ****** ****** ****** ******
  18  ****** ****** ****** ****** ****** ****** ****** ****** ****** ******
      ****** ****** ****** ****** ****** ****** ****** ****** ****** ******
      ****** ****** ****** ****** ****** ****** ****** ****** ****** ******
  19  ****** ****** ****** ****** ****** ****** ****** ****** ****** ******
      ****** ****** ****** ****** ****** ****** ****** ****** ****** ******
      ****** ****** ****** ****** ****** ****** ****** ****** ****** ******
  20  ****** ****** ****** ****** ****** ****** ****** ****** ****** ******
      ****** ****** ****** ****** ****** ****** ****** ****** ****** ******
      ****** ****** ****** ****** ****** ****** ****** ****** ****** ******
  21  ****** ****** ****** ****** ****** ****** ****** ****** ****** ******
      ****** ****** ****** ****** ****** ****** ****** ****** ****** ******
      ****** ****** ****** ****** ****** ****** ****** ****** ****** ******
  22  ****** ****** ****** ****** ****** ****** ****** ****** ****** ******
      ****** ****** ****** ****** ****** ****** ****** ****** ****** ******
      ****** ****** ****** ****** ****** ****** ****** ****** ****** ******
  23  ****** ****** ****** ****** ****** ****** ****** ****** ****** ******
      ****** ****** ****** ****** ****** ****** ****** ****** ****** ******
      ****** ****** ****** ****** ****** ****** ****** ****** ****** ******
  24  ****** ****** ****** ****** ****** ****** ****** ****** ****** ******
      ****** ****** ****** ****** ****** ****** ****** ****** ****** ******
      ****** ****** ****** ****** ****** ****** ****** ****** ****** ******
  25  ****** ****** ****** ****** ****** ****** ****** ****** ****** ******
      ****** ****** ****** ****** ****** ****** ****** ****** ****** ******
      ****** ****** ****** ****** ****** ****** ****** ****** ****** ******

 HEAD WILL BE SAVED ON UNIT   51 AT END OF TIME STEP    1, STRESS PERIOD    5
1
  VOLUMETRIC BUDGET FOR ENTIRE MODEL AT END OF TIME STEP    1, STRESS PERIOD   5
  ------------------------------------------------------------------------------

     CUMULATIVE VOLUMES      L**3       RATES FOR THIS TIME STEP      L**3/T
     ------------------                 ------------------------

           IN:                                      IN:
           ---                                      ---
             STORAGE =    24371746.8464               STORAGE =        4859.8666
       CONSTANT HEAD =    82762983.9084         CONSTANT HEAD =      199301.5727
               WELLS =           0.0000                 WELLS =           0.0000
            RECHARGE =    10074000.0000              RECHARGE =       13800.0000
      STREAM LEAKAGE =     2879951.6555        STREAM LEAKAGE =        6785.8240

            TOTAL IN =   120088682.4103              TOTAL IN =      224747.2633

          OUT:                                     OUT:
          ----                                     ----
             STORAGE =       25521.1069               STORAGE =           0.0000
       CONSTANT HEAD =           0.0000         CONSTANT HEAD =           0.0000
               WELLS =    47995038.3174                 WELLS =      105021.9657
            RECHARGE =           0.0000              RECHARGE =           0.0000
      STREAM LEAKAGE =    72068123.9630        STREAM LEAKAGE =      119725.2985

           TOTAL OUT =   120088683.3874             TOTAL OUT =      224747.2642

            IN - OUT =          -0.9771              IN - OUT =      -8.5469E-04

 PERCENT DISCREPANCY =          -0.00     PERCENT DISCREPANCY =          -0.00






         TIME SUMMARY AT END OF TIME STEP    1 IN STRESS PERIOD    5
                    SECONDS     MINUTES      HOURS       DAYS        YEARS
                    -----------------------------------------------------------
   TIME STEP LENGTH 7.94880E+06 1.32480E+05  2208.0      92.000     0.25188    
 STRESS PERIOD TIME 7.94880E+06 1.32480E+05  2208.0      92.000     0.25188    
         TOTAL TIME 3.94848E+07 6.58080E+05  10968.      457.00      1.2512    
1
1
                            STRESS PERIOD NO.    6, LENGTH =   91.00000    
                            -----------------------------------------------

                              NUMBER OF TIME STEPS =     1

                               MULTIPLIER FOR DELT =     1.500

                            INITIAL TIME STEP SIZE =   91.00000    

 WELL NO.  LAYER   ROW   COL   STRESS RATE         
 --------------------------------------------------
      1      1     23      9     -0.3450E+05
      2      1      3      9     -0.3774E+05
      3      1      3     14     -0.3278E+05

      3 WELLS

                 RECHARGE =  2.000000E-03

 REUSING STREAM SEGMENT DATA FROM LAST STRESS PERIOD
 
 SOLVING FOR HEAD 


     7 CALLS TO PCG ROUTINE FOR TIME STEP   1 IN STRESS PERIOD    6
    26 TOTAL ITERATIONS

 OUTPUT CONTROL FOR STRESS PERIOD    6   TIME STEP    1
    SAVE BUDGET
    SAVE HEAD FOR ALL LAYERS
    PRINT HEAD FOR ALL LAYERS
 UBDSV2 SAVING "STREAMFLOW OUT  " ON UNIT  50 AT TIME STEP  1, STRESS PERIOD   6



 STREAM LISTING     PERIOD      6   STEP        1

 LAYER ROW COL. STREAM  RCH.  FLOW INTO     FLOW TO   FLOW OUT OF   OVRLND.     DIRECT     STREAM       STREAM     STREAM     STREAM   STREAMBED  STREAMBED
                SEG.NO.  NO.  STRM. RCH.    AQUIFER    STRM. RCH.    RUNOFF     PRECIP       ET          HEAD       DEPTH      WIDTH   CONDCTNC.   GRADIENT

   1   13    1     1     1    1.0000E+05 -2.6061E+03   1.0261E+05  0.000E+00  0.000E+00  0.000E+00  4.84071E+01  1.458E-01  2.000E+01  2.000E+04 -1.303E-01
   1   13    2     1     2    1.0261E+05 -4.3182E+03   1.0692E+05  0.000E+00  0.000E+00  0.000E+00  4.79328E+01  1.487E-01  2.000E+01  2.000E+04 -2.159E-01
   1   14    3     1     3    1.0692E+05 -3.5393E+03   1.1046E+05  0.000E+00  0.000E+00  0.000E+00  4.74589E+01  1.521E-01  2.000E+01  2.000E+04 -1.770E-01
   1   15    4     1     4    1.1046E+05 -3.4532E+03   1.1392E+05  0.000E+00  0.000E+00  0.000E+00  4.69845E+01  1.550E-01  2.000E+01  2.000E+04 -1.727E-01
   1   16    5     1     5    1.1392E+05 -3.6243E+03   1.1754E+05  0.000E+00  0.000E+00  0.000E+00  4.65102E+01  1.579E-01  2.000E+01  2.000E+04 -1.812E-01
   1   16    6     1     6    1.1754E+05 -2.7286E+03   1.2027E+05  0.000E+00  0.000E+00  0.000E+00  4.60355E+01  1.605E-01  2.000E+01  2.000E+04 -1.364E-01
   1   16    7     1     7    1.2027E+05 -2.6886E+03   1.2296E+05  0.000E+00  0.000E+00  0.000E+00  4.55604E+01  1.627E-01  2.000E+01  2.000E+04 -1.344E-01
   1   16    8     1     8    1.2296E+05 -2.6510E+03   1.2561E+05  0.000E+00  0.000E+00  0.000E+00  4.50853E+01  1.648E-01  2.000E+01  2.000E+04 -1.326E-01
   1   16    9     1     9    1.2561E+05 -2.6267E+03   1.2824E+05  0.000E+00  0.000E+00  0.000E+00  4.46101E+01  1.669E-01  2.000E+01  2.000E+04 -1.313E-01
   1   16   10     1    10    1.2824E+05 -2.6324E+03   1.3087E+05  0.000E+00  0.000E+00  0.000E+00  4.41349E+01  1.690E-01  2.000E+01  2.000E+04 -1.316E-01
   1   16   11     1    11    1.3087E+05 -2.6892E+03   1.3356E+05  0.000E+00  0.000E+00  0.000E+00  4.36597E+01  1.710E-01  2.000E+01  2.000E+04 -1.345E-01
   1   16   12     1    12    1.3356E+05 -3.8312E+03   1.3739E+05  0.000E+00  0.000E+00  0.000E+00  4.31849E+01  1.736E-01  2.000E+01  2.000E+04 -1.916E-01
   1   15   13     1    13    1.3739E+05 -3.6926E+03   1.4108E+05  0.000E+00  0.000E+00  0.000E+00  4.27105E+01  1.764E-01  2.000E+01  2.000E+04 -1.846E-01
   1   14   14     1    14    1.4108E+05 -3.7106E+03   1.4479E+05  0.000E+00  0.000E+00  0.000E+00  4.22360E+01  1.792E-01  2.000E+01  2.000E+04 -1.855E-01
   1   13   15     1    15    1.4479E+05 -3.8438E+03   1.4864E+05  0.000E+00  0.000E+00  0.000E+00  4.17616E+01  1.821E-01  2.000E+01  2.000E+04 -1.922E-01
   1   12   16     1    16    1.4864E+05 -4.6154E+03   1.5325E+05  0.000E+00  0.000E+00  0.000E+00  4.12875E+01  1.852E-01  2.000E+01  2.000E+04 -2.308E-01
   1   12   17     1    17    1.5325E+05 -3.2919E+03   1.5654E+05  0.000E+00  0.000E+00  0.000E+00  4.08131E+01  1.881E-01  2.000E+01  2.000E+04 -1.646E-01
   1   12   18     1    18    1.5654E+05 -3.2912E+03   1.5983E+05  0.000E+00  0.000E+00  0.000E+00  4.03382E+01  1.905E-01  2.000E+01  2.000E+04 -1.646E-01
   1   12   19     1    19    1.5983E+05 -4.3820E+03   1.6422E+05  0.000E+00  0.000E+00  0.000E+00  3.98637E+01  1.932E-01  2.000E+01  2.000E+04 -2.191E-01
   1   13   20     1    20    1.6422E+05 -3.2505E+03   1.6747E+05  0.000E+00  0.000E+00  0.000E+00  3.93891E+01  1.959E-01  2.000E+01  2.000E+04 -1.625E-01
   1   14   21     1    21    1.6747E+05 -2.6584E+03   1.7013E+05  0.000E+00  0.000E+00  0.000E+00  3.89139E+01  1.980E-01  2.000E+01  2.000E+04 -1.329E-01
   1   14   22     1    22    1.7013E+05  4.9026E+03   1.6522E+05  0.000E+00  0.000E+00  0.000E+00  3.84359E+01  1.972E-01  2.000E+01  2.000E+04  2.451E-01
   1    9   30     2     1    5.0000E+04 -3.0129E+03   5.3013E+04  0.000E+00  0.000E+00  0.000E+00  4.02429E+01  1.179E-01  2.000E+01  2.000E+04 -1.506E-01
   1    9   29     2     2    5.3013E+04 -3.3363E+03   5.6349E+04  0.000E+00  0.000E+00  0.000E+00  3.99973E+01  1.223E-01  2.000E+01  2.000E+04 -1.668E-01
   1    9   28     2     3    5.6349E+04 -3.6988E+03   6.0048E+04  0.000E+00  0.000E+00  0.000E+00  3.97519E+01  1.269E-01  2.000E+01  2.000E+04 -1.849E-01
   1    9   27     2     4    6.0048E+04 -6.4150E+03   6.6463E+04  0.000E+00  0.000E+00  0.000E+00  3.95084E+01  1.334E-01  2.000E+01  2.000E+04 -3.207E-01
   1   10   26     2     5    6.6463E+04 -4.0459E+03   7.0509E+04  0.000E+00  0.000E+00  0.000E+00  3.92649E+01  1.399E-01  2.000E+01  2.000E+04 -2.023E-01
   1   11   25     2     6    7.0509E+04 -2.9724E+03   7.3481E+04  0.000E+00  0.000E+00  0.000E+00  3.90192E+01  1.442E-01  2.000E+01  2.000E+04 -1.486E-01
   1   12   24     2     7    7.3481E+04 -2.0967E+03   7.5578E+04  0.000E+00  0.000E+00  0.000E+00  3.87722E+01  1.472E-01  2.000E+01  2.000E+04 -1.048E-01
   1   13   23     2     8    7.5578E+04 -1.2600E+03   7.6838E+04  0.000E+00  0.000E+00  0.000E+00  3.85242E+01  1.492E-01  2.000E+01  2.000E+04 -6.300E-02
   1   14   22     2     9    7.6838E+04  1.6642E+03   7.5174E+04  0.000E+00  0.000E+00  0.000E+00  3.82740E+01  1.490E-01  2.000E+01  2.000E+04  8.321E-02
   1   14   22     3     1    2.4040E+05 -8.5971E+03   2.4899E+05  0.000E+00  0.000E+00  0.000E+00  3.77609E+01  2.053E-01  2.000E+01  2.000E+04 -4.299E-01
   1   15   23     3     2    2.4899E+05 -3.3896E+03   2.5238E+05  0.000E+00  0.000E+00  0.000E+00  3.68750E+01  2.083E-01  2.000E+01  2.000E+04 -1.695E-01
   1   15   24     3     3    2.5238E+05 -2.3447E+03   2.5473E+05  0.000E+00  0.000E+00  0.000E+00  3.59875E+01  2.098E-01  2.000E+01  2.000E+04 -1.172E-01
   1   15   25     3     4    2.5473E+05 -2.2173E+03   2.5695E+05  0.000E+00  0.000E+00  0.000E+00  3.50998E+01  2.109E-01  2.000E+01  2.000E+04 -1.109E-01
   1   15   26     3     5    2.5695E+05 -2.6346E+03   2.5958E+05  0.000E+00  0.000E+00  0.000E+00  3.42121E+01  2.121E-01  2.000E+01  2.000E+04 -1.317E-01
   1   16   27     3     6    2.5958E+05 -3.6781E+03   2.6326E+05  0.000E+00  0.000E+00  0.000E+00  3.33248E+01  2.136E-01  2.000E+01  2.000E+04 -1.839E-01
   1   17   28     3     7    2.6326E+05 -4.5133E+03   2.6777E+05  0.000E+00  0.000E+00  0.000E+00  3.24379E+01  2.157E-01  2.000E+01  2.000E+04 -2.257E-01
   1   18   29     3     8    2.6777E+05 -6.1706E+03   2.7394E+05  0.000E+00  0.000E+00  0.000E+00  3.15516E+01  2.182E-01  2.000E+01  2.000E+04 -3.085E-01
   1   18   30     3     9    2.7394E+05 -5.1056E+03   2.7905E+05  0.000E+00  0.000E+00  0.000E+00  3.06654E+01  2.210E-01  2.000E+01  2.000E+04 -2.553E-01



1
              HEAD IN LAYER   1 AT END OF TIME STEP   1 IN STRESS PERIOD    6
  ---------------------------------------------------------------------------

          1      2      3      4      5      6      7      8      9     10
         11     12     13     14     15     16     17     18     19     20
         21     22     23     24     25     26     27     28     29     30
 .........................................................................
   1  ****** ****** ****** ****** ****** ****** ****** ****** ****** ******
      ****** ****** ****** ****** ****** ****** ****** ****** ****** ******
      ****** ****** ****** ****** ****** ****** ****** ****** ****** ******
   2  ****** ****** ****** ****** ****** ****** ****** ****** ****** ******
      ****** ****** ****** ****** ****** ****** ****** ****** ****** ******
      ****** ****** ****** ****** ****** ****** ****** ****** ****** ******
   3  ****** ****** ****** ****** ****** ****** ****** ****** ****** ******
      ****** ****** ****** ****** ****** ****** ****** ****** ****** ******
      ****** ****** ****** ****** ****** ****** ****** ****** ****** ******
   4  ****** ****** ****** ****** ****** ****** ****** ****** ****** ******
      ****** ****** ****** ****** ****** ****** ****** ****** ****** ******
      ****** ****** ****** ****** ****** ****** ****** ****** ****** ******
   5  ****** ****** ****** ****** ****** ****** ****** ****** ****** ******
      ****** ****** ****** ****** ****** ****** ****** ****** ****** ******
      ****** ****** ****** ****** ****** ****** ****** ****** ****** ******
   6  ****** ****** ****** ****** ****** ****** ****** ****** ****** ******
      ****** ****** ****** ****** ****** ****** ****** ****** ****** ******
      ****** ****** ****** ****** ****** ****** ****** ****** ****** ******
   7  ****** ****** ****** ****** ****** ****** ****** ****** ****** ******
      ****** ****** ****** ****** ****** ****** ****** ****** ****** ******
      ****** ****** ****** ****** ****** ****** ****** ****** ****** ******
   8  ****** ****** ****** ****** ****** ****** ****** ****** ****** ******
      ****** ****** ****** ****** ****** ****** ****** ****** ****** ******
      ****** ****** ****** ****** ****** ****** ****** ****** ****** ******
   9  ****** ****** ****** ****** ****** ****** ****** ****** ****** ******
      ****** ****** ****** ****** ****** ****** ****** ****** ****** ******
      ****** ****** ****** ****** ****** ****** ****** ****** ****** ******
  10  ****** ****** ****** ****** ****** ****** ****** ****** ****** ******
      ****** ****** ****** ****** ****** ****** ****** ****** ****** ******
      ****** ****** ****** ****** ****** ****** ****** ****** ****** ******
  11  ****** ****** ****** ****** ****** ****** ****** ****** ****** ******
      ****** ****** ****** ****** ****** ****** ****** ****** ****** ******
      ****** ****** ****** ****** ****** ****** ****** ****** ****** ******
  12  ****** ****** ****** ****** ****** ****** ****** ****** ****** ******
      ****** ****** ****** ****** ****** ****** ****** ****** ****** ******
      ****** ****** ****** ****** ****** ****** ****** ****** ****** ******
  13  ****** ****** ****** ****** ****** ****** ****** ****** ****** ******
      ****** ****** ****** ****** ****** ****** ****** ****** ****** ******
      ****** ****** ****** ****** ****** ****** ****** ****** ****** ******
  14  ****** ****** ****** ****** ****** ****** ****** ****** ****** ******
      ****** ****** ****** ****** ****** ****** ****** ****** ****** ******
      ****** ****** ****** ****** ****** ****** ****** ****** ****** ******
  15  ****** ****** ****** ****** ****** ****** ****** ****** ****** ******
      ****** ****** ****** ****** ****** ****** ****** ****** ****** ******
      ****** ****** ****** ****** ****** ****** ****** ****** ****** ******
  16  ****** ****** ****** ****** ****** ****** ****** ****** ****** ******
      ****** ****** ****** ****** ****** ****** ****** ****** ****** ******
      ****** ****** ****** ****** ****** ****** ****** ****** ****** ******
  17  ****** ****** ****** ****** ****** ****** ****** ****** ****** ******
      ****** ****** ****** ****** ****** ****** ****** ****** ****** ******
      ****** ****** ****** ****** ****** ****** ****** ****** ****** ******
  18  ****** ****** ****** ****** ****** ****** ****** ****** ****** ******
      ****** ****** ****** ****** ****** ****** ****** ****** ****** ******
      ****** ****** ****** ****** ****** ****** ****** ****** ****** ******
  19  ****** ****** ****** ****** ****** ****** ****** ****** ****** ******
      ****** ****** ****** ****** ****** ****** ****** ****** ****** ******
      ****** ****** ****** ****** ****** ****** ****** ****** ****** ******
  20  ****** ****** ****** ****** ****** ****** ****** ****** ****** ******
      ****** ****** ****** ****** ****** ****** ****** ****** ****** ******
      ****** ****** ****** ****** ****** ****** ****** ****** ****** ******
  21  ****** ****** ****** ****** ****** ****** ****** ****** ****** ******
      ****** ****** ****** ****** ****** ****** ****** ****** ****** ******
      ****** ****** ****** ****** ****** ****** ****** ****** ****** ******
  22  ****** ****** ****** ****** ****** ****** ****** ****** ****** ******
      ****** ****** ****** ****** ****** ****** ****** ****** ****** ******
      ****** ****** ****** ****** ****** ****** ****** ****** ****** ******
  23  ****** ****** ****** ****** ****** ****** ****** ****** ****** ******
      ****** ****** ****** ****** ****** ****** ****** ****** ****** ******
      ****** ****** ****** ****** ****** ****** ****** ****** ****** ******
  24  ****** ****** ****** ****** ****** ****** ****** ****** ****** ******
      ****** ****** ****** ****** ****** ****** ****** ****** ****** ******
      ****** ****** ****** ****** ****** ****** ****** ****** ****** ******
  25  ****** ****** ****** ****** ****** ****** ****** ****** ****** ******
      ****** ****** ****** ****** ****** ****** ****** ****** ****** ******
      ****** ****** ****** ****** ****** ****** ****** ****** ****** ******

 HEAD WILL BE SAVED ON UNIT   51 AT END OF TIME STEP    1, STRESS PERIOD    6
1
  VOLUMETRIC BUDGET FOR ENTIRE MODEL AT END OF TIME STEP    1, STRESS PERIOD   6
  ------------------------------------------------------------------------------

     CUMULATIVE VOLUMES      L**3       RATES FOR THIS TIME STEP      L**3/T
     ------------------                 ------------------------

           IN:                                      IN:
           ---                                      ---
             STORAGE =    24371746.8464               STORAGE =           0.0000
       CONSTANT HEAD =    99941849.7863         CONSTANT HEAD =      188778.7459
               WELLS =           0.0000                 WELLS =           0.0000
            RECHARGE =    15097200.0000              RECHARGE =       55200.0000
      STREAM LEAKAGE =     3477531.9431        STREAM LEAKAGE =        6566.8163

            TOTAL IN =   142888328.5758              TOTAL IN =      250545.5623

          OUT:                                     OUT:
          ----                                     ----
             STORAGE =      927272.8044               STORAGE =        9909.3593
       CONSTANT HEAD =           0.0000         CONSTANT HEAD =           0.0000
               WELLS =    57552037.1946                 WELLS =      105021.9657
            RECHARGE =           0.0000              RECHARGE =           0.0000
      STREAM LEAKAGE =    84409019.4018        STREAM LEAKAGE =      135614.2356

           TOTAL OUT =   142888329.4008             TOTAL OUT =      250545.5606

            IN - OUT =          -0.8250              IN - OUT =       1.6712E-03

 PERCENT DISCREPANCY =          -0.00     PERCENT DISCREPANCY =           0.00






         TIME SUMMARY AT END OF TIME STEP    1 IN STRESS PERIOD    6
                    SECONDS     MINUTES      HOURS       DAYS        YEARS
                    -----------------------------------------------------------
   TIME STEP LENGTH 7.86240E+06 1.31040E+05  2184.0      91.000     0.24914    
 STRESS PERIOD TIME 7.86240E+06 1.31040E+05  2184.0      91.000     0.24914    
         TOTAL TIME 4.73472E+07 7.89120E+05  13152.      548.00      1.5003    
1
1
                            STRESS PERIOD NO.    7, LENGTH =   91.00000    
                            -----------------------------------------------

                              NUMBER OF TIME STEPS =     1

                               MULTIPLIER FOR DELT =     1.500

                            INITIAL TIME STEP SIZE =   91.00000    

 WELL NO.  LAYER   ROW   COL   STRESS RATE         
 --------------------------------------------------
      1      1     23      9     -0.3450E+05
      2      1      3      9     -0.3774E+05
      3      1      3     14     -0.3278E+05

      3 WELLS

                 RECHARGE =   0.00000    

 REUSING STREAM SEGMENT DATA FROM LAST STRESS PERIOD
 
 SOLVING FOR HEAD 


     7 CALLS TO PCG ROUTINE FOR TIME STEP   1 IN STRESS PERIOD    7
    26 TOTAL ITERATIONS

 OUTPUT CONTROL FOR STRESS PERIOD    7   TIME STEP    1
    SAVE BUDGET
    SAVE HEAD FOR ALL LAYERS
    PRINT HEAD FOR ALL LAYERS
 UBDSV2 SAVING "STREAMFLOW OUT  " ON UNIT  50 AT TIME STEP  1, STRESS PERIOD   7



 STREAM LISTING     PERIOD      7   STEP        1

 LAYER ROW COL. STREAM  RCH.  FLOW INTO     FLOW TO   FLOW OUT OF   OVRLND.     DIRECT     STREAM       STREAM     STREAM     STREAM   STREAMBED  STREAMBED
                SEG.NO.  NO.  STRM. RCH.    AQUIFER    STRM. RCH.    RUNOFF     PRECIP       ET          HEAD       DEPTH      WIDTH   CONDCTNC.   GRADIENT

   1   13    1     1     1    1.0000E+05 -2.1075E+03   1.0211E+05  0.000E+00  0.000E+00  0.000E+00  4.84069E+01  1.456E-01  2.000E+01  2.000E+04 -1.054E-01
   1   13    2     1     2    1.0211E+05 -3.6623E+03   1.0577E+05  0.000E+00  0.000E+00  0.000E+00  4.79321E+01  1.480E-01  2.000E+01  2.000E+04 -1.831E-01
   1   14    3     1     3    1.0577E+05 -2.8684E+03   1.0864E+05  0.000E+00  0.000E+00  0.000E+00  4.74576E+01  1.508E-01  2.000E+01  2.000E+04 -1.434E-01
   1   15    4     1     4    1.0864E+05 -2.7888E+03   1.1143E+05  0.000E+00  0.000E+00  0.000E+00  4.69827E+01  1.532E-01  2.000E+01  2.000E+04 -1.394E-01
   1   16    5     1     5    1.1143E+05 -3.0148E+03   1.1444E+05  0.000E+00  0.000E+00  0.000E+00  4.65079E+01  1.556E-01  2.000E+01  2.000E+04 -1.507E-01
   1   16    6     1     6    1.1444E+05 -2.2446E+03   1.1669E+05  0.000E+00  0.000E+00  0.000E+00  4.60328E+01  1.578E-01  2.000E+01  2.000E+04 -1.122E-01
   1   16    7     1     7    1.1669E+05 -2.1969E+03   1.1888E+05  0.000E+00  0.000E+00  0.000E+00  4.55573E+01  1.596E-01  2.000E+01  2.000E+04 -1.098E-01
   1   16    8     1     8    1.1888E+05 -2.1550E+03   1.2104E+05  0.000E+00  0.000E+00  0.000E+00  4.50818E+01  1.613E-01  2.000E+01  2.000E+04 -1.078E-01
   1   16    9     1     9    1.2104E+05 -2.1309E+03   1.2317E+05  0.000E+00  0.000E+00  0.000E+00  4.46062E+01  1.631E-01  2.000E+01  2.000E+04 -1.065E-01
   1   16   10     1    10    1.2317E+05 -2.1412E+03   1.2531E+05  0.000E+00  0.000E+00  0.000E+00  4.41307E+01  1.648E-01  2.000E+01  2.000E+04 -1.071E-01
   1   16   11     1    11    1.2531E+05 -2.2051E+03   1.2752E+05  0.000E+00  0.000E+00  0.000E+00  4.36551E+01  1.665E-01  2.000E+01  2.000E+04 -1.103E-01
   1   16   12     1    12    1.2752E+05 -3.2136E+03   1.3073E+05  0.000E+00  0.000E+00  0.000E+00  4.31800E+01  1.686E-01  2.000E+01  2.000E+04 -1.607E-01
   1   15   13     1    13    1.3073E+05 -3.0169E+03   1.3375E+05  0.000E+00  0.000E+00  0.000E+00  4.27051E+01  1.711E-01  2.000E+01  2.000E+04 -1.508E-01
   1   14   14     1    14    1.3375E+05 -3.0220E+03   1.3677E+05  0.000E+00  0.000E+00  0.000E+00  4.22302E+01  1.734E-01  2.000E+01  2.000E+04 -1.511E-01
   1   13   15     1    15    1.3677E+05 -3.1662E+03   1.3993E+05  0.000E+00  0.000E+00  0.000E+00  4.17553E+01  1.758E-01  2.000E+01  2.000E+04 -1.583E-01
   1   12   16     1    16    1.3993E+05 -3.9708E+03   1.4391E+05  0.000E+00  0.000E+00  0.000E+00  4.12807E+01  1.785E-01  2.000E+01  2.000E+04 -1.985E-01
   1   12   17     1    17    1.4391E+05 -2.8093E+03   1.4671E+05  0.000E+00  0.000E+00  0.000E+00  4.08060E+01  1.810E-01  2.000E+01  2.000E+04 -1.405E-01
   1   12   18     1    18    1.4671E+05 -2.8165E+03   1.4953E+05  0.000E+00  0.000E+00  0.000E+00  4.03308E+01  1.831E-01  2.000E+01  2.000E+04 -1.408E-01
   1   12   19     1    19    1.4953E+05 -3.8038E+03   1.5333E+05  0.000E+00  0.000E+00  0.000E+00  3.98560E+01  1.855E-01  2.000E+01  2.000E+04 -1.902E-01
   1   13   20     1    20    1.5333E+05 -2.6821E+03   1.5602E+05  0.000E+00  0.000E+00  0.000E+00  3.93811E+01  1.879E-01  2.000E+01  2.000E+04 -1.341E-01
   1   14   21     1    21    1.5602E+05 -2.1390E+03   1.5816E+05  0.000E+00  0.000E+00  0.000E+00  3.89056E+01  1.897E-01  2.000E+01  2.000E+04 -1.069E-01
   1   14   22     1    22    1.5816E+05  5.0023E+03   1.5315E+05  0.000E+00  0.000E+00  0.000E+00  3.84273E+01  1.886E-01  2.000E+01  2.000E+04  2.501E-01
   1    9   30     2     1    5.0000E+04 -2.5698E+03   5.2570E+04  0.000E+00  0.000E+00  0.000E+00  4.02426E+01  1.176E-01  2.000E+01  2.000E+04 -1.285E-01
   1    9   29     2     2    5.2570E+04 -2.8969E+03   5.5467E+04  0.000E+00  0.000E+00  0.000E+00  3.99964E+01  1.214E-01  2.000E+01  2.000E+04 -1.448E-01
   1    9   28     2     3    5.5467E+04 -3.2626E+03   5.8729E+04  0.000E+00  0.000E+00  0.000E+00  3.97505E+01  1.255E-01  2.000E+01  2.000E+04 -1.631E-01
   1    9   27     2     4    5.8729E+04 -5.8387E+03   6.4568E+04  0.000E+00  0.000E+00  0.000E+00  3.95064E+01  1.314E-01  2.000E+01  2.000E+04 -2.919E-01
   1   10   26     2     5    6.4568E+04 -3.4440E+03   6.8012E+04  0.000E+00  0.000E+00  0.000E+00  3.92622E+01  1.372E-01  2.000E+01  2.000E+04 -1.722E-01
   1   11   25     2     6    6.8012E+04 -2.3938E+03   7.0406E+04  0.000E+00  0.000E+00  0.000E+00  3.90158E+01  1.408E-01  2.000E+01  2.000E+04 -1.197E-01
   1   12   24     2     7    7.0406E+04 -1.5817E+03   7.1987E+04  0.000E+00  0.000E+00  0.000E+00  3.87682E+01  1.432E-01  2.000E+01  2.000E+04 -7.908E-02
   1   13   23     2     8    7.1987E+04 -8.5432E+02   7.2842E+04  0.000E+00  0.000E+00  0.000E+00  3.85197E+01  1.447E-01  2.000E+01  2.000E+04 -4.272E-02
   1   14   22     2     9    7.2842E+04  1.8390E+03   7.1003E+04  0.000E+00  0.000E+00  0.000E+00  3.82691E+01  1.441E-01  2.000E+01  2.000E+04  9.195E-02
   1   14   22     3     1    2.2416E+05 -8.4916E+03   2.3265E+05  0.000E+00  0.000E+00  0.000E+00  3.77526E+01  1.970E-01  2.000E+01  2.000E+04 -4.246E-01
   1   15   23     3     2    2.3265E+05 -2.9047E+03   2.3555E+05  0.000E+00  0.000E+00  0.000E+00  3.68666E+01  2.000E-01  2.000E+01  2.000E+04 -1.452E-01
   1   15   24     3     3    2.3555E+05 -1.9879E+03   2.3754E+05  0.000E+00  0.000E+00  0.000E+00  3.59790E+01  2.012E-01  2.000E+01  2.000E+04 -9.940E-02
   1   15   25     3     4    2.3754E+05 -1.8573E+03   2.3940E+05  0.000E+00  0.000E+00  0.000E+00  3.50911E+01  2.022E-01  2.000E+01  2.000E+04 -9.286E-02
   1   15   26     3     5    2.3940E+05 -2.1693E+03   2.4157E+05  0.000E+00  0.000E+00  0.000E+00  3.42032E+01  2.032E-01  2.000E+01  2.000E+04 -1.085E-01
   1   16   27     3     6    2.4157E+05 -3.1001E+03   2.4467E+05  0.000E+00  0.000E+00  0.000E+00  3.33157E+01  2.045E-01  2.000E+01  2.000E+04 -1.550E-01
   1   17   28     3     7    2.4467E+05 -3.9247E+03   2.4859E+05  0.000E+00  0.000E+00  0.000E+00  3.24285E+01  2.063E-01  2.000E+01  2.000E+04 -1.962E-01
   1   18   29     3     8    2.4859E+05 -5.6216E+03   2.5421E+05  0.000E+00  0.000E+00  0.000E+00  3.15420E+01  2.087E-01  2.000E+01  2.000E+04 -2.811E-01
   1   18   30     3     9    2.5421E+05 -4.6874E+03   2.5890E+05  0.000E+00  0.000E+00  0.000E+00  3.06557E+01  2.113E-01  2.000E+01  2.000E+04 -2.344E-01



1
              HEAD IN LAYER   1 AT END OF TIME STEP   1 IN STRESS PERIOD    7
  ---------------------------------------------------------------------------

          1      2      3      4      5      6      7      8      9     10
         11     12     13     14     15     16     17     18     19     20
         21     22     23     24     25     26     27     28     29     30
 .........................................................................
   1  ****** ****** ****** ****** ****** ****** ****** ****** ****** ******
      ****** ****** ****** ****** ****** ****** ****** ****** ****** ******
      ****** ****** ****** ****** ****** ****** ****** ****** ****** ******
   2  ****** ****** ****** ****** ****** ****** ****** ****** ****** ******
      ****** ****** ****** ****** ****** ****** ****** ****** ****** ******
      ****** ****** ****** ****** ****** ****** ****** ****** ****** ******
   3  ****** ****** ****** ****** ****** ****** ****** ****** ****** ******
      ****** ****** ****** ****** ****** ****** ****** ****** ****** ******
      ****** ****** ****** ****** ****** ****** ****** ****** ****** ******
   4  ****** ****** ****** ****** ****** ****** ****** ****** ****** ******
      ****** ****** ****** ****** ****** ****** ****** ****** ****** ******
      ****** ****** ****** ****** ****** ****** ****** ****** ****** ******
   5  ****** ****** ****** ****** ****** ****** ****** ****** ****** ******
      ****** ****** ****** ****** ****** ****** ****** ****** ****** ******
      ****** ****** ****** ****** ****** ****** ****** ****** ****** ******
   6  ****** ****** ****** ****** ****** ****** ****** ****** ****** ******
      ****** ****** ****** ****** ****** ****** ****** ****** ****** ******
      ****** ****** ****** ****** ****** ****** ****** ****** ****** ******
   7  ****** ****** ****** ****** ****** ****** ****** ****** ****** ******
      ****** ****** ****** ****** ****** ****** ****** ****** ****** ******
      ****** ****** ****** ****** ****** ****** ****** ****** ****** ******
   8  ****** ****** ****** ****** ****** ****** ****** ****** ****** ******
      ****** ****** ****** ****** ****** ****** ****** ****** ****** ******
      ****** ****** ****** ****** ****** ****** ****** ****** ****** ******
   9  ****** ****** ****** ****** ****** ****** ****** ****** ****** ******
      ****** ****** ****** ****** ****** ****** ****** ****** ****** ******
      ****** ****** ****** ****** ****** ****** ****** ****** ****** ******
  10  ****** ****** ****** ****** ****** ****** ****** ****** ****** ******
      ****** ****** ****** ****** ****** ****** ****** ****** ****** ******
      ****** ****** ****** ****** ****** ****** ****** ****** ****** ******
  11  ****** ****** ****** ****** ****** ****** ****** ****** ****** ******
      ****** ****** ****** ****** ****** ****** ****** ****** ****** ******
      ****** ****** ****** ****** ****** ****** ****** ****** ****** ******
  12  ****** ****** ****** ****** ****** ****** ****** ****** ****** ******
      ****** ****** ****** ****** ****** ****** ****** ****** ****** ******
      ****** ****** ****** ****** ****** ****** ****** ****** ****** ******
  13  ****** ****** ****** ****** ****** ****** ****** ****** ****** ******
      ****** ****** ****** ****** ****** ****** ****** ****** ****** ******
      ****** ****** ****** ****** ****** ****** ****** ****** ****** ******
  14  ****** ****** ****** ****** ****** ****** ****** ****** ****** ******
      ****** ****** ****** ****** ****** ****** ****** ****** ****** ******
      ****** ****** ****** ****** ****** ****** ****** ****** ****** ******
  15  ****** ****** ****** ****** ****** ****** ****** ****** ****** ******
      ****** ****** ****** ****** ****** ****** ****** ****** ****** ******
      ****** ****** ****** ****** ****** ****** ****** ****** ****** ******
  16  ****** ****** ****** ****** ****** ****** ****** ****** ****** ******
      ****** ****** ****** ****** ****** ****** ****** ****** ****** ******
      ****** ****** ****** ****** ****** ****** ****** ****** ****** ******
  17  ****** ****** ****** ****** ****** ****** ****** ****** ****** ******
      ****** ****** ****** ****** ****** ****** ****** ****** ****** ******
      ****** ****** ****** ****** ****** ****** ****** ****** ****** ******
  18  ****** ****** ****** ****** ****** ****** ****** ****** ****** ******
      ****** ****** ****** ****** ****** ****** ****** ****** ****** ******
      ****** ****** ****** ****** ****** ****** ****** ****** ****** ******
  19  ****** ****** ****** ****** ****** ****** ****** ****** ****** ******
      ****** ****** ****** ****** ****** ****** ****** ****** ****** ******
      ****** ****** ****** ****** ****** ****** ****** ****** ****** ******
  20  ****** ****** ****** ****** ****** ****** ****** ****** ****** ******
      ****** ****** ****** ****** ****** ****** ****** ****** ****** ******
      ****** ****** ****** ****** ****** ****** ****** ****** ****** ******
  21  ****** ****** ****** ****** ****** ****** ****** ****** ****** ******
      ****** ****** ****** ****** ****** ****** ****** ****** ****** ******
      ****** ****** ****** ****** ****** ****** ****** ****** ****** ******
  22  ****** ****** ****** ****** ****** ****** ****** ****** ****** ******
      ****** ****** ****** ****** ****** ****** ****** ****** ****** ******
      ****** ****** ****** ****** ****** ****** ****** ****** ****** ******
  23  ****** ****** ****** ****** ****** ****** ****** ****** ****** ******
      ****** ****** ****** ****** ****** ****** ****** ****** ****** ******
      ****** ****** ****** ****** ****** ****** ****** ****** ****** ******
  24  ****** ****** ****** ****** ****** ****** ****** ****** ****** ******
      ****** ****** ****** ****** ****** ****** ****** ****** ****** ******
      ****** ****** ****** ****** ****** ****** ****** ****** ****** ******
  25  ****** ****** ****** ****** ****** ****** ****** ****** ****** ******
      ****** ****** ****** ****** ****** ****** ****** ****** ****** ******
      ****** ****** ****** ****** ****** ****** ****** ****** ****** ******

 HEAD WILL BE SAVED ON UNIT   51 AT END OF TIME STEP    1, STRESS PERIOD    7
1
  VOLUMETRIC BUDGET FOR ENTIRE MODEL AT END OF TIME STEP    1, STRESS PERIOD   7
  ------------------------------------------------------------------------------

     CUMULATIVE VOLUMES      L**3       RATES FOR THIS TIME STEP      L**3/T
     ------------------                 ------------------------

           IN:                                      IN:
           ---                                      ---
             STORAGE =    25480769.6122               STORAGE =       12187.0634
       CONSTANT HEAD =   118299800.1774         CONSTANT HEAD =      201735.7186
               WELLS =           0.0000                 WELLS =           0.0000
            RECHARGE =    15097200.0000              RECHARGE =           0.0000
      STREAM LEAKAGE =     4100086.7385        STREAM LEAKAGE =        6841.2615

            TOTAL IN =   162977856.5281              TOTAL IN =      220764.0434

          OUT:                                     OUT:
          ----                                     ----
             STORAGE =      927272.8044               STORAGE =           0.0000
       CONSTANT HEAD =           0.0000         CONSTANT HEAD =           0.0000
               WELLS =    67109036.0718                 WELLS =      105021.9657
            RECHARGE =           0.0000              RECHARGE =           0.0000
      STREAM LEAKAGE =    94941548.6798        STREAM LEAKAGE =      115742.0800

           TOTAL OUT =   162977857.5560             TOTAL OUT =      220764.0457

            IN - OUT =          -1.0279              IN - OUT =      -2.2297E-03

 PERCENT DISCREPANCY =          -0.00     PERCENT DISCREPANCY =          -0.00






         TIME SUMMARY AT END OF TIME STEP    1 IN STRESS PERIOD    7
                    SECONDS     MINUTES      HOURS       DAYS        YEARS
                    -----------------------------------------------------------
   TIME STEP LENGTH 7.86240E+06 1.31040E+05  2184.0      91.000     0.24914    
 STRESS PERIOD TIME 7.86240E+06 1.31040E+05  2184.0      91.000     0.24914    
         TOTAL TIME 5.52096E+07 9.20160E+05  15336.      639.00      1.7495    
1
1
                            STRESS PERIOD NO.    8, LENGTH =   91.00000    
                            -----------------------------------------------

                              NUMBER OF TIME STEPS =     1

                               MULTIPLIER FOR DELT =     1.500

                            INITIAL TIME STEP SIZE =   91.00000    

 WELL NO.  LAYER   ROW   COL   STRESS RATE         
 --------------------------------------------------
      1      1     23      9     -0.3450E+05
      2      1      3      9     -0.3774E+05
      3      1      3     14     -0.3278E+05

      3 WELLS

                 RECHARGE =  1.000000E-03

 REUSING STREAM SEGMENT DATA FROM LAST STRESS PERIOD
 
 SOLVING FOR HEAD 


     6 CALLS TO PCG ROUTINE FOR TIME STEP   1 IN STRESS PERIOD    8
    23 TOTAL ITERATIONS

 OUTPUT CONTROL FOR STRESS PERIOD    8   TIME STEP    1
    SAVE BUDGET
    SAVE HEAD FOR ALL LAYERS
    PRINT HEAD FOR ALL LAYERS
 UBDSV2 SAVING "STREAMFLOW OUT  " ON UNIT  50 AT TIME STEP  1, STRESS PERIOD   8



 STREAM LISTING     PERIOD      8   STEP        1

 LAYER ROW COL. STREAM  RCH.  FLOW INTO     FLOW TO   FLOW OUT OF   OVRLND.     DIRECT     STREAM       STREAM     STREAM     STREAM   STREAMBED  STREAMBED
                SEG.NO.  NO.  STRM. RCH.    AQUIFER    STRM. RCH.    RUNOFF     PRECIP       ET          HEAD       DEPTH      WIDTH   CONDCTNC.   GRADIENT

   1   13    1     1     1    1.0000E+05 -2.2749E+03   1.0227E+05  0.000E+00  0.000E+00  0.000E+00  4.84070E+01  1.456E-01  2.000E+01  2.000E+04 -1.137E-01
   1   13    2     1     2    1.0227E+05 -3.8706E+03   1.0615E+05  0.000E+00  0.000E+00  0.000E+00  4.79324E+01  1.483E-01  2.000E+01  2.000E+04 -1.935E-01
   1   14    3     1     3    1.0615E+05 -3.1007E+03   1.0925E+05  0.000E+00  0.000E+00  0.000E+00  4.74581E+01  1.512E-01  2.000E+01  2.000E+04 -1.550E-01
   1   15    4     1     4    1.0925E+05 -3.0248E+03   1.1227E+05  0.000E+00  0.000E+00  0.000E+00  4.69833E+01  1.538E-01  2.000E+01  2.000E+04 -1.512E-01
   1   16    5     1     5    1.1227E+05 -3.2344E+03   1.1551E+05  0.000E+00  0.000E+00  0.000E+00  4.65087E+01  1.564E-01  2.000E+01  2.000E+04 -1.617E-01
   1   16    6     1     6    1.1551E+05 -2.4185E+03   1.1792E+05  0.000E+00  0.000E+00  0.000E+00  4.60337E+01  1.587E-01  2.000E+01  2.000E+04 -1.209E-01
   1   16    7     1     7    1.1792E+05 -2.3723E+03   1.2030E+05  0.000E+00  0.000E+00  0.000E+00  4.55584E+01  1.607E-01  2.000E+01  2.000E+04 -1.186E-01
   1   16    8     1     8    1.2030E+05 -2.3314E+03   1.2263E+05  0.000E+00  0.000E+00  0.000E+00  4.50830E+01  1.626E-01  2.000E+01  2.000E+04 -1.166E-01
   1   16    9     1     9    1.2263E+05 -2.3073E+03   1.2493E+05  0.000E+00  0.000E+00  0.000E+00  4.46076E+01  1.644E-01  2.000E+01  2.000E+04 -1.154E-01
   1   16   10     1    10    1.2493E+05 -2.3166E+03   1.2725E+05  0.000E+00  0.000E+00  0.000E+00  4.41322E+01  1.662E-01  2.000E+01  2.000E+04 -1.158E-01
   1   16   11     1    11    1.2725E+05 -2.3789E+03   1.2963E+05  0.000E+00  0.000E+00  0.000E+00  4.36567E+01  1.681E-01  2.000E+01  2.000E+04 -1.189E-01
   1   16   12     1    12    1.2963E+05 -3.4335E+03   1.3306E+05  0.000E+00  0.000E+00  0.000E+00  4.31817E+01  1.704E-01  2.000E+01  2.000E+04 -1.717E-01
   1   15   13     1    13    1.3306E+05 -3.2555E+03   1.3632E+05  0.000E+00  0.000E+00  0.000E+00  4.27070E+01  1.730E-01  2.000E+01  2.000E+04 -1.628E-01
   1   14   14     1    14    1.3632E+05 -3.2625E+03   1.3958E+05  0.000E+00  0.000E+00  0.000E+00  4.22323E+01  1.755E-01  2.000E+01  2.000E+04 -1.631E-01
   1   13   15     1    15    1.3958E+05 -3.4008E+03   1.4298E+05  0.000E+00  0.000E+00  0.000E+00  4.17575E+01  1.780E-01  2.000E+01  2.000E+04 -1.700E-01
   1   12   16     1    16    1.4298E+05 -4.1833E+03   1.4717E+05  0.000E+00  0.000E+00  0.000E+00  4.12831E+01  1.808E-01  2.000E+01  2.000E+04 -2.092E-01
   1   12   17     1    17    1.4717E+05 -2.9794E+03   1.5015E+05  0.000E+00  0.000E+00  0.000E+00  4.08085E+01  1.835E-01  2.000E+01  2.000E+04 -1.490E-01
   1   12   18     1    18    1.5015E+05 -2.9867E+03   1.5313E+05  0.000E+00  0.000E+00  0.000E+00  4.03334E+01  1.857E-01  2.000E+01  2.000E+04 -1.493E-01
   1   12   19     1    19    1.5313E+05 -4.0116E+03   1.5714E+05  0.000E+00  0.000E+00  0.000E+00  3.98587E+01  1.883E-01  2.000E+01  2.000E+04 -2.006E-01
   1   13   20     1    20    1.5714E+05 -2.8989E+03   1.6004E+05  0.000E+00  0.000E+00  0.000E+00  3.93839E+01  1.908E-01  2.000E+01  2.000E+04 -1.449E-01
   1   14   21     1    21    1.6004E+05 -2.3344E+03   1.6238E+05  0.000E+00  0.000E+00  0.000E+00  3.89086E+01  1.926E-01  2.000E+01  2.000E+04 -1.167E-01
   1   14   22     1    22    1.6238E+05  4.9587E+03   1.5742E+05  0.000E+00  0.000E+00  0.000E+00  3.84303E+01  1.917E-01  2.000E+01  2.000E+04  2.479E-01
   1    9   30     2     1    5.0000E+04 -2.7487E+03   5.2749E+04  0.000E+00  0.000E+00  0.000E+00  4.02428E+01  1.178E-01  2.000E+01  2.000E+04 -1.374E-01
   1    9   29     2     2    5.2749E+04 -3.0739E+03   5.5823E+04  0.000E+00  0.000E+00  0.000E+00  3.99967E+01  1.217E-01  2.000E+01  2.000E+04 -1.537E-01
   1    9   28     2     3    5.5823E+04 -3.4369E+03   5.9260E+04  0.000E+00  0.000E+00  0.000E+00  3.97511E+01  1.261E-01  2.000E+01  2.000E+04 -1.718E-01
   1    9   27     2     4    5.9260E+04 -6.0576E+03   6.5317E+04  0.000E+00  0.000E+00  0.000E+00  3.95072E+01  1.322E-01  2.000E+01  2.000E+04 -3.029E-01
   1   10   26     2     5    6.5317E+04 -3.6799E+03   6.8997E+04  0.000E+00  0.000E+00  0.000E+00  3.92633E+01  1.383E-01  2.000E+01  2.000E+04 -1.840E-01
   1   11   25     2     6    6.8997E+04 -2.6233E+03   7.1620E+04  0.000E+00  0.000E+00  0.000E+00  3.90172E+01  1.422E-01  2.000E+01  2.000E+04 -1.312E-01
   1   12   24     2     7    7.1620E+04 -1.7901E+03   7.3410E+04  0.000E+00  0.000E+00  0.000E+00  3.87698E+01  1.448E-01  2.000E+01  2.000E+04 -8.950E-02
   1   13   23     2     8    7.3410E+04 -1.0237E+03   7.4434E+04  0.000E+00  0.000E+00  0.000E+00  3.85215E+01  1.465E-01  2.000E+01  2.000E+04 -5.118E-02
   1   14   22     2     9    7.4434E+04  1.7730E+03   7.2661E+04  0.000E+00  0.000E+00  0.000E+00  3.82711E+01  1.461E-01  2.000E+01  2.000E+04  8.865E-02
   1   14   22     3     1    2.3008E+05 -8.5353E+03   2.3861E+05  0.000E+00  0.000E+00  0.000E+00  3.77556E+01  2.001E-01  2.000E+01  2.000E+04 -4.268E-01
   1   15   23     3     2    2.3861E+05 -3.0883E+03   2.4170E+05  0.000E+00  0.000E+00  0.000E+00  3.68697E+01  2.030E-01  2.000E+01  2.000E+04 -1.544E-01
   1   15   24     3     3    2.4170E+05 -2.1318E+03   2.4384E+05  0.000E+00  0.000E+00  0.000E+00  3.59821E+01  2.044E-01  2.000E+01  2.000E+04 -1.066E-01
   1   15   25     3     4    2.4384E+05 -2.0061E+03   2.4584E+05  0.000E+00  0.000E+00  0.000E+00  3.50943E+01  2.054E-01  2.000E+01  2.000E+04 -1.003E-01
   1   15   26     3     5    2.4584E+05 -2.3640E+03   2.4821E+05  0.000E+00  0.000E+00  0.000E+00  3.42065E+01  2.065E-01  2.000E+01  2.000E+04 -1.182E-01
   1   16   27     3     6    2.4821E+05 -3.3340E+03   2.5154E+05  0.000E+00  0.000E+00  0.000E+00  3.33190E+01  2.079E-01  2.000E+01  2.000E+04 -1.667E-01
   1   17   28     3     7    2.5154E+05 -4.1611E+03   2.5570E+05  0.000E+00  0.000E+00  0.000E+00  3.24320E+01  2.098E-01  2.000E+01  2.000E+04 -2.081E-01
   1   18   29     3     8    2.5570E+05 -5.8377E+03   2.6154E+05  0.000E+00  0.000E+00  0.000E+00  3.15456E+01  2.123E-01  2.000E+01  2.000E+04 -2.919E-01
   1   18   30     3     9    2.6154E+05 -4.8579E+03   2.6640E+05  0.000E+00  0.000E+00  0.000E+00  3.06593E+01  2.149E-01  2.000E+01  2.000E+04 -2.429E-01



1
              HEAD IN LAYER   1 AT END OF TIME STEP   1 IN STRESS PERIOD    8
  ---------------------------------------------------------------------------

          1      2      3      4      5      6      7      8      9     10
         11     12     13     14     15     16     17     18     19     20
         21     22     23     24     25     26     27     28     29     30
 .........................................................................
   1  ****** ****** ****** ****** ****** ****** ****** ****** ****** ******
      ****** ****** ****** ****** ****** ****** ****** ****** ****** ******
      ****** ****** ****** ****** ****** ****** ****** ****** ****** ******
   2  ****** ****** ****** ****** ****** ****** ****** ****** ****** ******
      ****** ****** ****** ****** ****** ****** ****** ****** ****** ******
      ****** ****** ****** ****** ****** ****** ****** ****** ****** ******
   3  ****** ****** ****** ****** ****** ****** ****** ****** ****** ******
      ****** ****** ****** ****** ****** ****** ****** ****** ****** ******
      ****** ****** ****** ****** ****** ****** ****** ****** ****** ******
   4  ****** ****** ****** ****** ****** ****** ****** ****** ****** ******
      ****** ****** ****** ****** ****** ****** ****** ****** ****** ******
      ****** ****** ****** ****** ****** ****** ****** ****** ****** ******
   5  ****** ****** ****** ****** ****** ****** ****** ****** ****** ******
      ****** ****** ****** ****** ****** ****** ****** ****** ****** ******
      ****** ****** ****** ****** ****** ****** ****** ****** ****** ******
   6  ****** ****** ****** ****** ****** ****** ****** ****** ****** ******
      ****** ****** ****** ****** ****** ****** ****** ****** ****** ******
      ****** ****** ****** ****** ****** ****** ****** ****** ****** ******
   7  ****** ****** ****** ****** ****** ****** ****** ****** ****** ******
      ****** ****** ****** ****** ****** ****** ****** ****** ****** ******
      ****** ****** ****** ****** ****** ****** ****** ****** ****** ******
   8  ****** ****** ****** ****** ****** ****** ****** ****** ****** ******
      ****** ****** ****** ****** ****** ****** ****** ****** ****** ******
      ****** ****** ****** ****** ****** ****** ****** ****** ****** ******
   9  ****** ****** ****** ****** ****** ****** ****** ****** ****** ******
      ****** ****** ****** ****** ****** ****** ****** ****** ****** ******
      ****** ****** ****** ****** ****** ****** ****** ****** ****** ******
  10  ****** ****** ****** ****** ****** ****** ****** ****** ****** ******
      ****** ****** ****** ****** ****** ****** ****** ****** ****** ******
      ****** ****** ****** ****** ****** ****** ****** ****** ****** ******
  11  ****** ****** ****** ****** ****** ****** ****** ****** ****** ******
      ****** ****** ****** ****** ****** ****** ****** ****** ****** ******
      ****** ****** ****** ****** ****** ****** ****** ****** ****** ******
  12  ****** ****** ****** ****** ****** ****** ****** ****** ****** ******
      ****** ****** ****** ****** ****** ****** ****** ****** ****** ******
      ****** ****** ****** ****** ****** ****** ****** ****** ****** ******
  13  ****** ****** ****** ****** ****** ****** ****** ****** ****** ******
      ****** ****** ****** ****** ****** ****** ****** ****** ****** ******
      ****** ****** ****** ****** ****** ****** ****** ****** ****** ******
  14  ****** ****** ****** ****** ****** ****** ****** ****** ****** ******
      ****** ****** ****** ****** ****** ****** ****** ****** ****** ******
      ****** ****** ****** ****** ****** ****** ****** ****** ****** ******
  15  ****** ****** ****** ****** ****** ****** ****** ****** ****** ******
      ****** ****** ****** ****** ****** ****** ****** ****** ****** ******
      ****** ****** ****** ****** ****** ****** ****** ****** ****** ******
  16  ****** ****** ****** ****** ****** ****** ****** ****** ****** ******
      ****** ****** ****** ****** ****** ****** ****** ****** ****** ******
      ****** ****** ****** ****** ****** ****** ****** ****** ****** ******
  17  ****** ****** ****** ****** ****** ****** ****** ****** ****** ******
      ****** ****** ****** ****** ****** ****** ****** ****** ****** ******
      ****** ****** ****** ****** ****** ****** ****** ****** ****** ******
  18  ****** ****** ****** ****** ****** ****** ****** ****** ****** ******
      ****** ****** ****** ****** ****** ****** ****** ****** ****** ******
      ****** ****** ****** ****** ****** ****** ****** ****** ****** ******
  19  ****** ****** ****** ****** ****** ****** ****** ****** ****** ******
      ****** ****** ****** ****** ****** ****** ****** ****** ****** ******
      ****** ****** ****** ****** ****** ****** ****** ****** ****** ******
  20  ****** ****** ****** ****** ****** ****** ****** ****** ****** ******
      ****** ****** ****** ****** ****** ****** ****** ****** ****** ******
      ****** ****** ****** ****** ****** ****** ****** ****** ****** ******
  21  ****** ****** ****** ****** ****** ****** ****** ****** ****** ******
      ****** ****** ****** ****** ****** ****** ****** ****** ****** ******
      ****** ****** ****** ****** ****** ****** ****** ****** ****** ******
  22  ****** ****** ****** ****** ****** ****** ****** ****** ****** ******
      ****** ****** ****** ****** ****** ****** ****** ****** ****** ******
      ****** ****** ****** ****** ****** ****** ****** ****** ****** ******
  23  ****** ****** ****** ****** ****** ****** ****** ****** ****** ******
      ****** ****** ****** ****** ****** ****** ****** ****** ****** ******
      ****** ****** ****** ****** ****** ****** ****** ****** ****** ******
  24  ****** ****** ****** ****** ****** ****** ****** ****** ****** ******
      ****** ****** ****** ****** ****** ****** ****** ****** ****** ******
      ****** ****** ****** ****** ****** ****** ****** ****** ****** ******
  25  ****** ****** ****** ****** ****** ****** ****** ****** ****** ******
      ****** ****** ****** ****** ****** ****** ****** ****** ****** ******
      ****** ****** ****** ****** ****** ****** ****** ****** ****** ******

 HEAD WILL BE SAVED ON UNIT   51 AT END OF TIME STEP    1, STRESS PERIOD    8
1
  VOLUMETRIC BUDGET FOR ENTIRE MODEL AT END OF TIME STEP    1, STRESS PERIOD   8
  ------------------------------------------------------------------------------

     CUMULATIVE VOLUMES      L**3       RATES FOR THIS TIME STEP      L**3/T
     ------------------                 ------------------------

           IN:                                      IN:
           ---                                      ---
             STORAGE =    25480769.6122               STORAGE =           0.0000
       CONSTANT HEAD =   136264599.9519         CONSTANT HEAD =      197415.3821
               WELLS =           0.0000                 WELLS =           0.0000
            RECHARGE =    17608800.0000              RECHARGE =       27600.0000
      STREAM LEAKAGE =     4712665.3745        STREAM LEAKAGE =        6731.6334

            TOTAL IN =   184066834.9386              TOTAL IN =      231747.0155

          OUT:                                     OUT:
          ----                                     ----
             STORAGE =     1254660.5423               STORAGE =        3597.6674
       CONSTANT HEAD =           0.0000         CONSTANT HEAD =           0.0000
               WELLS =    76666034.9490                 WELLS =      105021.9657
            RECHARGE =           0.0000              RECHARGE =           0.0000
      STREAM LEAKAGE =   106146140.3984        STREAM LEAKAGE =      123127.3815

           TOTAL OUT =   184066835.8898             TOTAL OUT =      231747.0147

            IN - OUT =          -0.9512              IN - OUT =       8.4328E-04

 PERCENT DISCREPANCY =          -0.00     PERCENT DISCREPANCY =           0.00






         TIME SUMMARY AT END OF TIME STEP    1 IN STRESS PERIOD    8
                    SECONDS     MINUTES      HOURS       DAYS        YEARS
                    -----------------------------------------------------------
   TIME STEP LENGTH 7.86240E+06 1.31040E+05  2184.0      91.000     0.24914    
 STRESS PERIOD TIME 7.86240E+06 1.31040E+05  2184.0      91.000     0.24914    
         TOTAL TIME 6.30720E+07 1.05120E+06  17520.      730.00      1.9986    
1
1
                            STRESS PERIOD NO.    9, LENGTH =   92.00000    
                            -----------------------------------------------

                              NUMBER OF TIME STEPS =     1

                               MULTIPLIER FOR DELT =     1.500

                            INITIAL TIME STEP SIZE =   92.00000    

 WELL NO.  LAYER   ROW   COL   STRESS RATE         
 --------------------------------------------------
      1      1     23      9     -0.3450E+05
      2      1      3      9     -0.3774E+05
      3      1      3     14     -0.3278E+05

      3 WELLS

                 RECHARGE =  5.000000E-04

 REUSING STREAM SEGMENT DATA FROM LAST STRESS PERIOD
 
 SOLVING FOR HEAD 


     6 CALLS TO PCG ROUTINE FOR TIME STEP   1 IN STRESS PERIOD    9
    22 TOTAL ITERATIONS

 OUTPUT CONTROL FOR STRESS PERIOD    9   TIME STEP    1
    SAVE BUDGET
    SAVE HEAD FOR ALL LAYERS
    PRINT HEAD FOR ALL LAYERS
 UBDSV2 SAVING "STREAMFLOW OUT  " ON UNIT  50 AT TIME STEP  1, STRESS PERIOD   9



 STREAM LISTING     PERIOD      9   STEP        1

 LAYER ROW COL. STREAM  RCH.  FLOW INTO     FLOW TO   FLOW OUT OF   OVRLND.     DIRECT     STREAM       STREAM     STREAM     STREAM   STREAMBED  STREAMBED
                SEG.NO.  NO.  STRM. RCH.    AQUIFER    STRM. RCH.    RUNOFF     PRECIP       ET          HEAD       DEPTH      WIDTH   CONDCTNC.   GRADIENT

   1   13    1     1     1    1.0000E+05 -2.1585E+03   1.0216E+05  0.000E+00  0.000E+00  0.000E+00  4.84070E+01  1.456E-01  2.000E+01  2.000E+04 -1.079E-01
   1   13    2     1     2    1.0216E+05 -3.7172E+03   1.0588E+05  0.000E+00  0.000E+00  0.000E+00  4.79322E+01  1.481E-01  2.000E+01  2.000E+04 -1.859E-01
   1   14    3     1     3    1.0588E+05 -2.9456E+03   1.0882E+05  0.000E+00  0.000E+00  0.000E+00  4.74578E+01  1.509E-01  2.000E+01  2.000E+04 -1.473E-01
   1   15    4     1     4    1.0882E+05 -2.8724E+03   1.1169E+05  0.000E+00  0.000E+00  0.000E+00  4.69829E+01  1.534E-01  2.000E+01  2.000E+04 -1.436E-01
   1   16    5     1     5    1.1169E+05 -3.0967E+03   1.1479E+05  0.000E+00  0.000E+00  0.000E+00  4.65081E+01  1.559E-01  2.000E+01  2.000E+04 -1.548E-01
   1   16    6     1     6    1.1479E+05 -2.3077E+03   1.1710E+05  0.000E+00  0.000E+00  0.000E+00  4.60331E+01  1.581E-01  2.000E+01  2.000E+04 -1.154E-01
   1   16    7     1     7    1.1710E+05 -2.2597E+03   1.1936E+05  0.000E+00  0.000E+00  0.000E+00  4.55577E+01  1.599E-01  2.000E+01  2.000E+04 -1.130E-01
   1   16    8     1     8    1.1936E+05 -2.2177E+03   1.2158E+05  0.000E+00  0.000E+00  0.000E+00  4.50822E+01  1.618E-01  2.000E+01  2.000E+04 -1.109E-01
   1   16    9     1     9    1.2158E+05 -2.1937E+03   1.2377E+05  0.000E+00  0.000E+00  0.000E+00  4.46067E+01  1.635E-01  2.000E+01  2.000E+04 -1.097E-01
   1   16   10     1    10    1.2377E+05 -2.2041E+03   1.2597E+05  0.000E+00  0.000E+00  0.000E+00  4.41312E+01  1.653E-01  2.000E+01  2.000E+04 -1.102E-01
   1   16   11     1    11    1.2597E+05 -2.2681E+03   1.2824E+05  0.000E+00  0.000E+00  0.000E+00  4.36557E+01  1.670E-01  2.000E+01  2.000E+04 -1.134E-01
   1   16   12     1    12    1.2824E+05 -3.2938E+03   1.3154E+05  0.000E+00  0.000E+00  0.000E+00  4.31806E+01  1.692E-01  2.000E+01  2.000E+04 -1.647E-01
   1   15   13     1    13    1.3154E+05 -3.1010E+03   1.3464E+05  0.000E+00  0.000E+00  0.000E+00  4.27058E+01  1.717E-01  2.000E+01  2.000E+04 -1.551E-01
   1   14   14     1    14    1.3464E+05 -3.1046E+03   1.3774E+05  0.000E+00  0.000E+00  0.000E+00  4.22309E+01  1.741E-01  2.000E+01  2.000E+04 -1.552E-01
   1   13   15     1    15    1.3774E+05 -3.2448E+03   1.4099E+05  0.000E+00  0.000E+00  0.000E+00  4.17561E+01  1.765E-01  2.000E+01  2.000E+04 -1.622E-01
   1   12   16     1    16    1.4099E+05 -4.0347E+03   1.4502E+05  0.000E+00  0.000E+00  0.000E+00  4.12816E+01  1.793E-01  2.000E+01  2.000E+04 -2.017E-01
   1   12   17     1    17    1.4502E+05 -2.8686E+03   1.4789E+05  0.000E+00  0.000E+00  0.000E+00  4.08069E+01  1.819E-01  2.000E+01  2.000E+04 -1.434E-01
   1   12   18     1    18    1.4789E+05 -2.8780E+03   1.5077E+05  0.000E+00  0.000E+00  0.000E+00  4.03317E+01  1.840E-01  2.000E+01  2.000E+04 -1.439E-01
   1   12   19     1    19    1.5077E+05 -3.8797E+03   1.5465E+05  0.000E+00  0.000E+00  0.000E+00  3.98569E+01  1.865E-01  2.000E+01  2.000E+04 -1.940E-01
   1   13   20     1    20    1.5465E+05 -2.7691E+03   1.5742E+05  0.000E+00  0.000E+00  0.000E+00  3.93821E+01  1.889E-01  2.000E+01  2.000E+04 -1.385E-01
   1   14   21     1    21    1.5742E+05 -2.2167E+03   1.5963E+05  0.000E+00  0.000E+00  0.000E+00  3.89066E+01  1.907E-01  2.000E+01  2.000E+04 -1.108E-01
   1   14   22     1    22    1.5963E+05  4.9816E+03   1.5465E+05  0.000E+00  0.000E+00  0.000E+00  3.84284E+01  1.897E-01  2.000E+01  2.000E+04  2.491E-01
   1    9   30     2     1    5.0000E+04 -2.6491E+03   5.2649E+04  0.000E+00  0.000E+00  0.000E+00  4.02427E+01  1.177E-01  2.000E+01  2.000E+04 -1.325E-01
   1    9   29     2     2    5.2649E+04 -2.9750E+03   5.5624E+04  0.000E+00  0.000E+00  0.000E+00  3.99965E+01  1.215E-01  2.000E+01  2.000E+04 -1.488E-01
   1    9   28     2     3    5.5624E+04 -3.3385E+03   5.8963E+04  0.000E+00  0.000E+00  0.000E+00  3.97507E+01  1.257E-01  2.000E+01  2.000E+04 -1.669E-01
   1    9   27     2     4    5.8963E+04 -5.9281E+03   6.4891E+04  0.000E+00  0.000E+00  0.000E+00  3.95067E+01  1.317E-01  2.000E+01  2.000E+04 -2.964E-01
   1   10   26     2     5    6.4891E+04 -3.5438E+03   6.8435E+04  0.000E+00  0.000E+00  0.000E+00  3.92627E+01  1.377E-01  2.000E+01  2.000E+04 -1.772E-01
   1   11   25     2     6    6.8435E+04 -2.4917E+03   7.0926E+04  0.000E+00  0.000E+00  0.000E+00  3.90164E+01  1.414E-01  2.000E+01  2.000E+04 -1.246E-01
   1   12   24     2     7    7.0926E+04 -1.6719E+03   7.2598E+04  0.000E+00  0.000E+00  0.000E+00  3.87689E+01  1.439E-01  2.000E+01  2.000E+04 -8.359E-02
   1   13   23     2     8    7.2598E+04 -9.2924E+02   7.3527E+04  0.000E+00  0.000E+00  0.000E+00  3.85205E+01  1.455E-01  2.000E+01  2.000E+04 -4.646E-02
   1   14   22     2     9    7.3527E+04  1.8135E+03   7.1714E+04  0.000E+00  0.000E+00  0.000E+00  3.82699E+01  1.449E-01  2.000E+01  2.000E+04  9.068E-02
   1   14   22     3     1    2.2636E+05 -8.5109E+03   2.3488E+05  0.000E+00  0.000E+00  0.000E+00  3.77537E+01  1.982E-01  2.000E+01  2.000E+04 -4.255E-01
   1   15   23     3     2    2.3488E+05 -2.9786E+03   2.3785E+05  0.000E+00  0.000E+00  0.000E+00  3.68678E+01  2.011E-01  2.000E+01  2.000E+04 -1.489E-01
   1   15   24     3     3    2.3785E+05 -2.0501E+03   2.3990E+05  0.000E+00  0.000E+00  0.000E+00  3.59802E+01  2.024E-01  2.000E+01  2.000E+04 -1.025E-01
   1   15   25     3     4    2.3990E+05 -1.9236E+03   2.4183E+05  0.000E+00  0.000E+00  0.000E+00  3.50923E+01  2.034E-01  2.000E+01  2.000E+04 -9.618E-02
   1   15   26     3     5    2.4183E+05 -2.2585E+03   2.4409E+05  0.000E+00  0.000E+00  0.000E+00  3.42045E+01  2.045E-01  2.000E+01  2.000E+04 -1.129E-01
   1   16   27     3     6    2.4409E+05 -3.2039E+03   2.4729E+05  0.000E+00  0.000E+00  0.000E+00  3.33170E+01  2.058E-01  2.000E+01  2.000E+04 -1.602E-01
   1   17   28     3     7    2.4729E+05 -4.0288E+03   2.5132E+05  0.000E+00  0.000E+00  0.000E+00  3.24299E+01  2.077E-01  2.000E+01  2.000E+04 -2.014E-01
   1   18   29     3     8    2.5132E+05 -5.7148E+03   2.5703E+05  0.000E+00  0.000E+00  0.000E+00  3.15434E+01  2.101E-01  2.000E+01  2.000E+04 -2.857E-01
   1   18   30     3     9    2.5703E+05 -4.7636E+03   2.6180E+05  0.000E+00  0.000E+00  0.000E+00  3.06571E+01  2.127E-01  2.000E+01  2.000E+04 -2.382E-01



1
              HEAD IN LAYER   1 AT END OF TIME STEP   1 IN STRESS PERIOD    9
  ---------------------------------------------------------------------------

          1      2      3      4      5      6      7      8      9     10
         11     12     13     14     15     16     17     18     19     20
         21     22     23     24     25     26     27     28     29     30
 .........................................................................
   1  ****** ****** ****** ****** ****** ****** ****** ****** ****** ******
      ****** ****** ****** ****** ****** ****** ****** ****** ****** ******
      ****** ****** ****** ****** ****** ****** ****** ****** ****** ******
   2  ****** ****** ****** ****** ****** ****** ****** ****** ****** ******
      ****** ****** ****** ****** ****** ****** ****** ****** ****** ******
      ****** ****** ****** ****** ****** ****** ****** ****** ****** ******
   3  ****** ****** ****** ****** ****** ****** ****** ****** ****** ******
      ****** ****** ****** ****** ****** ****** ****** ****** ****** ******
      ****** ****** ****** ****** ****** ****** ****** ****** ****** ******
   4  ****** ****** ****** ****** ****** ****** ****** ****** ****** ******
      ****** ****** ****** ****** ****** ****** ****** ****** ****** ******
      ****** ****** ****** ****** ****** ****** ****** ****** ****** ******
   5  ****** ****** ****** ****** ****** ****** ****** ****** ****** ******
      ****** ****** ****** ****** ****** ****** ****** ****** ****** ******
      ****** ****** ****** ****** ****** ****** ****** ****** ****** ******
   6  ****** ****** ****** ****** ****** ****** ****** ****** ****** ******
      ****** ****** ****** ****** ****** ****** ****** ****** ****** ******
      ****** ****** ****** ****** ****** ****** ****** ****** ****** ******
   7  ****** ****** ****** ****** ****** ****** ****** ****** ****** ******
      ****** ****** ****** ****** ****** ****** ****** ****** ****** ******
      ****** ****** ****** ****** ****** ****** ****** ****** ****** ******
   8  ****** ****** ****** ****** ****** ****** ****** ****** ****** ******
      ****** ****** ****** ****** ****** ****** ****** ****** ****** ******
      ****** ****** ****** ****** ****** ****** ****** ****** ****** ******
   9  ****** ****** ****** ****** ****** ****** ****** ****** ****** ******
      ****** ****** ****** ****** ****** ****** ****** ****** ****** ******
      ****** ****** ****** ****** ****** ****** ****** ****** ****** ******
  10  ****** ****** ****** ****** ****** ****** ****** ****** ****** ******
      ****** ****** ****** ****** ****** ****** ****** ****** ****** ******
      ****** ****** ****** ****** ****** ****** ****** ****** ****** ******
  11  ****** ****** ****** ****** ****** ****** ****** ****** ****** ******
      ****** ****** ****** ****** ****** ****** ****** ****** ****** ******
      ****** ****** ****** ****** ****** ****** ****** ****** ****** ******
  12  ****** ****** ****** ****** ****** ****** ****** ****** ****** ******
      ****** ****** ****** ****** ****** ****** ****** ****** ****** ******
      ****** ****** ****** ****** ****** ****** ****** ****** ****** ******
  13  ****** ****** ****** ****** ****** ****** ****** ****** ****** ******
      ****** ****** ****** ****** ****** ****** ****** ****** ****** ******
      ****** ****** ****** ****** ****** ****** ****** ****** ****** ******
  14  ****** ****** ****** ****** ****** ****** ****** ****** ****** ******
      ****** ****** ****** ****** ****** ****** ****** ****** ****** ******
      ****** ****** ****** ****** ****** ****** ****** ****** ****** ******
  15  ****** ****** ****** ****** ****** ****** ****** ****** ****** ******
      ****** ****** ****** ****** ****** ****** ****** ****** ****** ******
      ****** ****** ****** ****** ****** ****** ****** ****** ****** ******
  16  ****** ****** ****** ****** ****** ****** ****** ****** ****** ******
      ****** ****** ****** ****** ****** ****** ****** ****** ****** ******
      ****** ****** ****** ****** ****** ****** ****** ****** ****** ******
  17  ****** ****** ****** ****** ****** ****** ****** ****** ****** ******
      ****** ****** ****** ****** ****** ****** ****** ****** ****** ******
      ****** ****** ****** ****** ****** ****** ****** ****** ****** ******
  18  ****** ****** ****** ****** ****** ****** ****** ****** ****** ******
      ****** ****** ****** ****** ****** ****** ****** ****** ****** ******
      ****** ****** ****** ****** ****** ****** ****** ****** ****** ******
  19  ****** ****** ****** ****** ****** ****** ****** ****** ****** ******
      ****** ****** ****** ****** ****** ****** ****** ****** ****** ******
      ****** ****** ****** ****** ****** ****** ****** ****** ****** ******
  20  ****** ****** ****** ****** ****** ****** ****** ****** ****** ******
      ****** ****** ****** ****** ****** ****** ****** ****** ****** ******
      ****** ****** ****** ****** ****** ****** ****** ****** ****** ******
  21  ****** ****** ****** ****** ****** ****** ****** ****** ****** ******
      ****** ****** ****** ****** ****** ****** ****** ****** ****** ******
      ****** ****** ****** ****** ****** ****** ****** ****** ****** ******
  22  ****** ****** ****** ****** ****** ****** ****** ****** ****** ******
      ****** ****** ****** ****** ****** ****** ****** ****** ****** ******
      ****** ****** ****** ****** ****** ****** ****** ****** ****** ******
  23  ****** ****** ****** ****** ****** ****** ****** ****** ****** ******
      ****** ****** ****** ****** ****** ****** ****** ****** ****** ******
      ****** ****** ****** ****** ****** ****** ****** ****** ****** ******
  24  ****** ****** ****** ****** ****** ****** ****** ****** ****** ******
      ****** ****** ****** ****** ****** ****** ****** ****** ****** ******
      ****** ****** ****** ****** ****** ****** ****** ****** ****** ******
  25  ****** ****** ****** ****** ****** ****** ****** ****** ****** ******
      ****** ****** ****** ****** ****** ****** ****** ****** ****** ******
      ****** ****** ****** ****** ****** ****** ****** ****** ****** ******

 HEAD WILL BE SAVED ON UNIT   51 AT END OF TIME STEP    1, STRESS PERIOD    9
1
  VOLUMETRIC BUDGET FOR ENTIRE MODEL AT END OF TIME STEP    1, STRESS PERIOD   9
  ------------------------------------------------------------------------------

     CUMULATIVE VOLUMES      L**3       RATES FOR THIS TIME STEP      L**3/T
     ------------------                 ------------------------

           IN:                                      IN:
           ---                                      ---
             STORAGE =    25728805.8026               STORAGE =        2696.0455
       CONSTANT HEAD =   154694364.4645         CONSTANT HEAD =      200323.5273
               WELLS =           0.0000                 WELLS =           0.0000
            RECHARGE =    18878400.0000              RECHARGE =       13800.0000
      STREAM LEAKAGE =     5337814.0888        STREAM LEAKAGE =        6795.0947

            TOTAL IN =   204639384.3559              TOTAL IN =      223614.6676

          OUT:                                     OUT:
          ----                                     ----
             STORAGE =     1254660.5423               STORAGE =           0.0000
       CONSTANT HEAD =           0.0000         CONSTANT HEAD =           0.0000
               WELLS =    86328055.7919                 WELLS =      105021.9657
            RECHARGE =           0.0000              RECHARGE =           0.0000
      STREAM LEAKAGE =   117056669.2605        STREAM LEAKAGE =      118592.7050

           TOTAL OUT =   204639385.5947             TOTAL OUT =      223614.6707

            IN - OUT =          -1.2387              IN - OUT =      -3.1256E-03

 PERCENT DISCREPANCY =          -0.00     PERCENT DISCREPANCY =          -0.00






         TIME SUMMARY AT END OF TIME STEP    1 IN STRESS PERIOD    9
                    SECONDS     MINUTES      HOURS       DAYS        YEARS
                    -----------------------------------------------------------
   TIME STEP LENGTH 7.94880E+06 1.32480E+05  2208.0      92.000     0.25188    
 STRESS PERIOD TIME 7.94880E+06 1.32480E+05  2208.0      92.000     0.25188    
         TOTAL TIME 7.10208E+07 1.18368E+06  19728.      822.00      2.2505    
1
1
                            STRESS PERIOD NO.   10, LENGTH =   91.00000    
                            -----------------------------------------------

                              NUMBER OF TIME STEPS =     1

                               MULTIPLIER FOR DELT =     1.500

                            INITIAL TIME STEP SIZE =   91.00000    

 WELL NO.  LAYER   ROW   COL   STRESS RATE         
 --------------------------------------------------
      1      1     23      9     -0.3450E+05
      2      1      3      9     -0.3774E+05
      3      1      3     14     -0.3278E+05

      3 WELLS

                 RECHARGE =  2.000000E-03

 REUSING STREAM SEGMENT DATA FROM LAST STRESS PERIOD
 
 SOLVING FOR HEAD 


     7 CALLS TO PCG ROUTINE FOR TIME STEP   1 IN STRESS PERIOD   10
    26 TOTAL ITERATIONS

 OUTPUT CONTROL FOR STRESS PERIOD   10   TIME STEP    1
    SAVE BUDGET
    SAVE HEAD FOR ALL LAYERS
    PRINT HEAD FOR ALL LAYERS
 UBDSV2 SAVING "STREAMFLOW OUT  " ON UNIT  50 AT TIME STEP  1, STRESS PERIOD  10



 STREAM LISTING     PERIOD     10   STEP        1

 LAYER ROW COL. STREAM  RCH.  FLOW INTO     FLOW TO   FLOW OUT OF   OVRLND.     DIRECT     STREAM       STREAM     STREAM     STREAM   STREAMBED  STREAMBED
                SEG.NO.  NO.  STRM. RCH.    AQUIFER    STRM. RCH.    RUNOFF     PRECIP       ET          HEAD       DEPTH      WIDTH   CONDCTNC.   GRADIENT

   1   13    1     1     1    1.0000E+05 -2.5813E+03   1.0258E+05  0.000E+00  0.000E+00  0.000E+00  4.84071E+01  1.458E-01  2.000E+01  2.000E+04 -1.291E-01
   1   13    2     1     2    1.0258E+05 -4.2788E+03   1.0686E+05  0.000E+00  0.000E+00  0.000E+00  4.79328E+01  1.487E-01  2.000E+01  2.000E+04 -2.139E-01
   1   14    3     1     3    1.0686E+05 -3.5120E+03   1.1037E+05  0.000E+00  0.000E+00  0.000E+00  4.74588E+01  1.520E-01  2.000E+01  2.000E+04 -1.756E-01
   1   15    4     1     4    1.1037E+05 -3.4319E+03   1.1380E+05  0.000E+00  0.000E+00  0.000E+00  4.69844E+01  1.549E-01  2.000E+01  2.000E+04 -1.716E-01
   1   16    5     1     5    1.1380E+05 -3.6117E+03   1.1742E+05  0.000E+00  0.000E+00  0.000E+00  4.65101E+01  1.578E-01  2.000E+01  2.000E+04 -1.806E-01
   1   16    6     1     6    1.1742E+05 -2.7150E+03   1.2013E+05  0.000E+00  0.000E+00  0.000E+00  4.60354E+01  1.604E-01  2.000E+01  2.000E+04 -1.358E-01
   1   16    7     1     7    1.2013E+05 -2.6737E+03   1.2280E+05  0.000E+00  0.000E+00  0.000E+00  4.55603E+01  1.626E-01  2.000E+01  2.000E+04 -1.337E-01
   1   16    8     1     8    1.2280E+05 -2.6356E+03   1.2544E+05  0.000E+00  0.000E+00  0.000E+00  4.50851E+01  1.647E-01  2.000E+01  2.000E+04 -1.318E-01
   1   16    9     1     9    1.2544E+05 -2.6114E+03   1.2805E+05  0.000E+00  0.000E+00  0.000E+00  4.46099E+01  1.668E-01  2.000E+01  2.000E+04 -1.306E-01
   1   16   10     1    10    1.2805E+05 -2.6179E+03   1.3067E+05  0.000E+00  0.000E+00  0.000E+00  4.41347E+01  1.688E-01  2.000E+01  2.000E+04 -1.309E-01
   1   16   11     1    11    1.3067E+05 -2.6762E+03   1.3335E+05  0.000E+00  0.000E+00  0.000E+00  4.36595E+01  1.709E-01  2.000E+01  2.000E+04 -1.338E-01
   1   16   12     1    12    1.3335E+05 -3.8185E+03   1.3716E+05  0.000E+00  0.000E+00  0.000E+00  4.31848E+01  1.734E-01  2.000E+01  2.000E+04 -1.909E-01
   1   15   13     1    13    1.3716E+05 -3.6728E+03   1.4084E+05  0.000E+00  0.000E+00  0.000E+00  4.27103E+01  1.763E-01  2.000E+01  2.000E+04 -1.836E-01
   1   14   14     1    14    1.4084E+05 -3.6878E+03   1.4452E+05  0.000E+00  0.000E+00  0.000E+00  4.22359E+01  1.790E-01  2.000E+01  2.000E+04 -1.844E-01
   1   13   15     1    15    1.4452E+05 -3.8192E+03   1.4834E+05  0.000E+00  0.000E+00  0.000E+00  4.17614E+01  1.818E-01  2.000E+01  2.000E+04 -1.910E-01
   1   12   16     1    16    1.4834E+05 -4.5867E+03   1.5293E+05  0.000E+00  0.000E+00  0.000E+00  4.12872E+01  1.850E-01  2.000E+01  2.000E+04 -2.293E-01
   1   12   17     1    17    1.5293E+05 -3.2767E+03   1.5621E+05  0.000E+00  0.000E+00  0.000E+00  4.08128E+01  1.878E-01  2.000E+01  2.000E+04 -1.638E-01
   1   12   18     1    18    1.5621E+05 -3.2783E+03   1.5949E+05  0.000E+00  0.000E+00  0.000E+00  4.03380E+01  1.902E-01  2.000E+01  2.000E+04 -1.639E-01
   1   12   19     1    19    1.5949E+05 -4.3672E+03   1.6385E+05  0.000E+00  0.000E+00  0.000E+00  3.98634E+01  1.930E-01  2.000E+01  2.000E+04 -2.184E-01
   1   13   20     1    20    1.6385E+05 -3.2418E+03   1.6709E+05  0.000E+00  0.000E+00  0.000E+00  3.93889E+01  1.957E-01  2.000E+01  2.000E+04 -1.621E-01
   1   14   21     1    21    1.6709E+05 -2.6520E+03   1.6975E+05  0.000E+00  0.000E+00  0.000E+00  3.89137E+01  1.978E-01  2.000E+01  2.000E+04 -1.326E-01
   1   14   22     1    22    1.6975E+05  4.9020E+03   1.6484E+05  0.000E+00  0.000E+00  0.000E+00  3.84356E+01  1.970E-01  2.000E+01  2.000E+04  2.451E-01
   1    9   30     2     1    5.0000E+04 -3.0104E+03   5.3010E+04  0.000E+00  0.000E+00  0.000E+00  4.02429E+01  1.179E-01  2.000E+01  2.000E+04 -1.505E-01
   1    9   29     2     2    5.3010E+04 -3.3336E+03   5.6344E+04  0.000E+00  0.000E+00  0.000E+00  3.99973E+01  1.223E-01  2.000E+01  2.000E+04 -1.667E-01
   1    9   28     2     3    5.6344E+04 -3.6956E+03   6.0040E+04  0.000E+00  0.000E+00  0.000E+00  3.97519E+01  1.269E-01  2.000E+01  2.000E+04 -1.848E-01
   1    9   27     2     4    6.0040E+04 -6.4077E+03   6.6447E+04  0.000E+00  0.000E+00  0.000E+00  3.95084E+01  1.334E-01  2.000E+01  2.000E+04 -3.204E-01
   1   10   26     2     5    6.6447E+04 -4.0390E+03   7.0486E+04  0.000E+00  0.000E+00  0.000E+00  3.92649E+01  1.399E-01  2.000E+01  2.000E+04 -2.020E-01
   1   11   25     2     6    7.0486E+04 -2.9656E+03   7.3452E+04  0.000E+00  0.000E+00  0.000E+00  3.90192E+01  1.442E-01  2.000E+01  2.000E+04 -1.483E-01
   1   12   24     2     7    7.3452E+04 -2.0906E+03   7.5543E+04  0.000E+00  0.000E+00  0.000E+00  3.87722E+01  1.472E-01  2.000E+01  2.000E+04 -1.045E-01
   1   13   23     2     8    7.5543E+04 -1.2555E+03   7.6798E+04  0.000E+00  0.000E+00  0.000E+00  3.85242E+01  1.492E-01  2.000E+01  2.000E+04 -6.278E-02
   1   14   22     2     9    7.6798E+04  1.6681E+03   7.5130E+04  0.000E+00  0.000E+00  0.000E+00  3.82739E+01  1.489E-01  2.000E+01  2.000E+04  8.340E-02
   1   14   22     3     1    2.3997E+05 -8.5966E+03   2.4857E+05  0.000E+00  0.000E+00  0.000E+00  3.77607E+01  2.051E-01  2.000E+01  2.000E+04 -4.298E-01
   1   15   23     3     2    2.4857E+05 -3.3848E+03   2.5196E+05  0.000E+00  0.000E+00  0.000E+00  3.68748E+01  2.081E-01  2.000E+01  2.000E+04 -1.692E-01
   1   15   24     3     3    2.5196E+05 -2.3423E+03   2.5430E+05  0.000E+00  0.000E+00  0.000E+00  3.59873E+01  2.096E-01  2.000E+01  2.000E+04 -1.171E-01
   1   15   25     3     4    2.5430E+05 -2.2155E+03   2.5651E+05  0.000E+00  0.000E+00  0.000E+00  3.50996E+01  2.107E-01  2.000E+01  2.000E+04 -1.108E-01
   1   15   26     3     5    2.5651E+05 -2.6332E+03   2.5915E+05  0.000E+00  0.000E+00  0.000E+00  3.42119E+01  2.119E-01  2.000E+01  2.000E+04 -1.317E-01
   1   16   27     3     6    2.5915E+05 -3.6756E+03   2.6282E+05  0.000E+00  0.000E+00  0.000E+00  3.33245E+01  2.134E-01  2.000E+01  2.000E+04 -1.838E-01
   1   17   28     3     7    2.6282E+05 -4.5106E+03   2.6733E+05  0.000E+00  0.000E+00  0.000E+00  3.24377E+01  2.154E-01  2.000E+01  2.000E+04 -2.255E-01
   1   18   29     3     8    2.6733E+05 -6.1677E+03   2.7350E+05  0.000E+00  0.000E+00  0.000E+00  3.15514E+01  2.180E-01  2.000E+01  2.000E+04 -3.084E-01
   1   18   30     3     9    2.7350E+05 -5.1040E+03   2.7860E+05  0.000E+00  0.000E+00  0.000E+00  3.06652E+01  2.207E-01  2.000E+01  2.000E+04 -2.552E-01



1
              HEAD IN LAYER   1 AT END OF TIME STEP   1 IN STRESS PERIOD   10
  ---------------------------------------------------------------------------

          1      2      3      4      5      6      7      8      9     10
         11     12     13     14     15     16     17     18     19     20
         21     22     23     24     25     26     27     28     29     30
 .........................................................................
   1  ****** ****** ****** ****** ****** ****** ****** ****** ****** ******
      ****** ****** ****** ****** ****** ****** ****** ****** ****** ******
      ****** ****** ****** ****** ****** ****** ****** ****** ****** ******
   2  ****** ****** ****** ****** ****** ****** ****** ****** ****** ******
      ****** ****** ****** ****** ****** ****** ****** ****** ****** ******
      ****** ****** ****** ****** ****** ****** ****** ****** ****** ******
   3  ****** ****** ****** ****** ****** ****** ****** ****** ****** ******
      ****** ****** ****** ****** ****** ****** ****** ****** ****** ******
      ****** ****** ****** ****** ****** ****** ****** ****** ****** ******
   4  ****** ****** ****** ****** ****** ****** ****** ****** ****** ******
      ****** ****** ****** ****** ****** ****** ****** ****** ****** ******
      ****** ****** ****** ****** ****** ****** ****** ****** ****** ******
   5  ****** ****** ****** ****** ****** ****** ****** ****** ****** ******
      ****** ****** ****** ****** ****** ****** ****** ****** ****** ******
      ****** ****** ****** ****** ****** ****** ****** ****** ****** ******
   6  ****** ****** ****** ****** ****** ****** ****** ****** ****** ******
      ****** ****** ****** ****** ****** ****** ****** ****** ****** ******
      ****** ****** ****** ****** ****** ****** ****** ****** ****** ******
   7  ****** ****** ****** ****** ****** ****** ****** ****** ****** ******
      ****** ****** ****** ****** ****** ****** ****** ****** ****** ******
      ****** ****** ****** ****** ****** ****** ****** ****** ****** ******
   8  ****** ****** ****** ****** ****** ****** ****** ****** ****** ******
      ****** ****** ****** ****** ****** ****** ****** ****** ****** ******
      ****** ****** ****** ****** ****** ****** ****** ****** ****** ******
   9  ****** ****** ****** ****** ****** ****** ****** ****** ****** ******
      ****** ****** ****** ****** ****** ****** ****** ****** ****** ******
      ****** ****** ****** ****** ****** ****** ****** ****** ****** ******
  10  ****** ****** ****** ****** ****** ****** ****** ****** ****** ******
      ****** ****** ****** ****** ****** ****** ****** ****** ****** ******
      ****** ****** ****** ****** ****** ****** ****** ****** ****** ******
  11  ****** ****** ****** ****** ****** ****** ****** ****** ****** ******
      ****** ****** ****** ****** ****** ****** ****** ****** ****** ******
      ****** ****** ****** ****** ****** ****** ****** ****** ****** ******
  12  ****** ****** ****** ****** ****** ****** ****** ****** ****** ******
      ****** ****** ****** ****** ****** ****** ****** ****** ****** ******
      ****** ****** ****** ****** ****** ****** ****** ****** ****** ******
  13  ****** ****** ****** ****** ****** ****** ****** ****** ****** ******
      ****** ****** ****** ****** ****** ****** ****** ****** ****** ******
      ****** ****** ****** ****** ****** ****** ****** ****** ****** ******
  14  ****** ****** ****** ****** ****** ****** ****** ****** ****** ******
      ****** ****** ****** ****** ****** ****** ****** ****** ****** ******
      ****** ****** ****** ****** ****** ****** ****** ****** ****** ******
  15  ****** ****** ****** ****** ****** ****** ****** ****** ****** ******
      ****** ****** ****** ****** ****** ****** ****** ****** ****** ******
      ****** ****** ****** ****** ****** ****** ****** ****** ****** ******
  16  ****** ****** ****** ****** ****** ****** ****** ****** ****** ******
      ****** ****** ****** ****** ****** ****** ****** ****** ****** ******
      ****** ****** ****** ****** ****** ****** ****** ****** ****** ******
  17  ****** ****** ****** ****** ****** ****** ****** ****** ****** ******
      ****** ****** ****** ****** ****** ****** ****** ****** ****** ******
      ****** ****** ****** ****** ****** ****** ****** ****** ****** ******
  18  ****** ****** ****** ****** ****** ****** ****** ****** ****** ******
      ****** ****** ****** ****** ****** ****** ****** ****** ****** ******
      ****** ****** ****** ****** ****** ****** ****** ****** ****** ******
  19  ****** ****** ****** ****** ****** ****** ****** ****** ****** ******
      ****** ****** ****** ****** ****** ****** ****** ****** ****** ******
      ****** ****** ****** ****** ****** ****** ****** ****** ****** ******
  20  ****** ****** ****** ****** ****** ****** ****** ****** ****** ******
      ****** ****** ****** ****** ****** ****** ****** ****** ****** ******
      ****** ****** ****** ****** ****** ****** ****** ****** ****** ******
  21  ****** ****** ****** ****** ****** ****** ****** ****** ****** ******
      ****** ****** ****** ****** ****** ****** ****** ****** ****** ******
      ****** ****** ****** ****** ****** ****** ****** ****** ****** ******
  22  ****** ****** ****** ****** ****** ****** ****** ****** ****** ******
      ****** ****** ****** ****** ****** ****** ****** ****** ****** ******
      ****** ****** ****** ****** ****** ****** ****** ****** ****** ******
  23  ****** ****** ****** ****** ****** ****** ****** ****** ****** ******
      ****** ****** ****** ****** ****** ****** ****** ****** ****** ******
      ****** ****** ****** ****** ****** ****** ****** ****** ****** ******
  24  ****** ****** ****** ****** ****** ****** ****** ****** ****** ******
      ****** ****** ****** ****** ****** ****** ****** ****** ****** ******
      ****** ****** ****** ****** ****** ****** ****** ****** ****** ******
  25  ****** ****** ****** ****** ****** ****** ****** ****** ****** ******
      ****** ****** ****** ****** ****** ****** ****** ****** ****** ******
      ****** ****** ****** ****** ****** ****** ****** ****** ****** ******

 HEAD WILL BE SAVED ON UNIT   51 AT END OF TIME STEP    1, STRESS PERIOD   10
1
  VOLUMETRIC BUDGET FOR ENTIRE MODEL AT END OF TIME STEP    1, STRESS PERIOD  10
  ------------------------------------------------------------------------------

     CUMULATIVE VOLUMES      L**3       RATES FOR THIS TIME STEP      L**3/T
     ------------------                 ------------------------

           IN:                                      IN:
           ---                                      ---
             STORAGE =    25728805.8026               STORAGE =           0.0000
       CONSTANT HEAD =   171909636.4963         CONSTANT HEAD =      189178.8135
               WELLS =           0.0000                 WELLS =           0.0000
            RECHARGE =    23901600.0000              RECHARGE =       55200.0000
      STREAM LEAKAGE =     5935692.4781        STREAM LEAKAGE =        6570.0922

            TOTAL IN =   227475734.7770              TOTAL IN =      250948.9057

          OUT:                                     OUT:
          ----                                     ----
             STORAGE =     2233105.0232               STORAGE =       10752.1372
       CONSTANT HEAD =           0.0000         CONSTANT HEAD =           0.0000
               WELLS =    95885054.6691                 WELLS =      105021.9657
            RECHARGE =           0.0000              RECHARGE =           0.0000
      STREAM LEAKAGE =   129357576.1618        STREAM LEAKAGE =      135174.8011

           TOTAL OUT =   227475735.8541             TOTAL OUT =      250948.9039

            IN - OUT =          -1.0771              IN - OUT =       1.7766E-03

 PERCENT DISCREPANCY =          -0.00     PERCENT DISCREPANCY =           0.00






         TIME SUMMARY AT END OF TIME STEP    1 IN STRESS PERIOD   10
                    SECONDS     MINUTES      HOURS       DAYS        YEARS
                    -----------------------------------------------------------
   TIME STEP LENGTH 7.86240E+06 1.31040E+05  2184.0      91.000     0.24914    
 STRESS PERIOD TIME 7.86240E+06 1.31040E+05  2184.0      91.000     0.24914    
         TOTAL TIME 7.88832E+07 1.31472E+06  21912.      913.00      2.4997    
1
1
                            STRESS PERIOD NO.   11, LENGTH =   91.00000    
                            -----------------------------------------------

                              NUMBER OF TIME STEPS =     1

                               MULTIPLIER FOR DELT =     1.500

                            INITIAL TIME STEP SIZE =   91.00000    

 WELL NO.  LAYER   ROW   COL   STRESS RATE         
 --------------------------------------------------
      1      1     23      9     -0.3450E+05
      2      1      3      9     -0.3774E+05
      3      1      3     14     -0.3278E+05

      3 WELLS

                 RECHARGE =   0.00000    

 REUSING STREAM SEGMENT DATA FROM LAST STRESS PERIOD
 
 SOLVING FOR HEAD 


     7 CALLS TO PCG ROUTINE FOR TIME STEP   1 IN STRESS PERIOD   11
    26 TOTAL ITERATIONS

 OUTPUT CONTROL FOR STRESS PERIOD   11   TIME STEP    1
    SAVE BUDGET
    SAVE HEAD FOR ALL LAYERS
    PRINT HEAD FOR ALL LAYERS
 UBDSV2 SAVING "STREAMFLOW OUT  " ON UNIT  50 AT TIME STEP  1, STRESS PERIOD  11



 STREAM LISTING     PERIOD     11   STEP        1

 LAYER ROW COL. STREAM  RCH.  FLOW INTO     FLOW TO   FLOW OUT OF   OVRLND.     DIRECT     STREAM       STREAM     STREAM     STREAM   STREAMBED  STREAMBED
                SEG.NO.  NO.  STRM. RCH.    AQUIFER    STRM. RCH.    RUNOFF     PRECIP       ET          HEAD       DEPTH      WIDTH   CONDCTNC.   GRADIENT

   1   13    1     1     1    1.0000E+05 -2.0970E+03   1.0210E+05  0.000E+00  0.000E+00  0.000E+00  4.84069E+01  1.456E-01  2.000E+01  2.000E+04 -1.049E-01
   1   13    2     1     2    1.0210E+05 -3.6456E+03   1.0574E+05  0.000E+00  0.000E+00  0.000E+00  4.79321E+01  1.480E-01  2.000E+01  2.000E+04 -1.823E-01
   1   14    3     1     3    1.0574E+05 -2.8570E+03   1.0860E+05  0.000E+00  0.000E+00  0.000E+00  4.74576E+01  1.508E-01  2.000E+01  2.000E+04 -1.429E-01
   1   15    4     1     4    1.0860E+05 -2.7801E+03   1.1138E+05  0.000E+00  0.000E+00  0.000E+00  4.69827E+01  1.532E-01  2.000E+01  2.000E+04 -1.390E-01
   1   16    5     1     5    1.1138E+05 -3.0101E+03   1.1439E+05  0.000E+00  0.000E+00  0.000E+00  4.65078E+01  1.556E-01  2.000E+01  2.000E+04 -1.505E-01
   1   16    6     1     6    1.1439E+05 -2.2391E+03   1.1663E+05  0.000E+00  0.000E+00  0.000E+00  4.60327E+01  1.577E-01  2.000E+01  2.000E+04 -1.120E-01
   1   16    7     1     7    1.1663E+05 -2.1909E+03   1.1882E+05  0.000E+00  0.000E+00  0.000E+00  4.55573E+01  1.595E-01  2.000E+01  2.000E+04 -1.095E-01
   1   16    8     1     8    1.1882E+05 -2.1488E+03   1.2097E+05  0.000E+00  0.000E+00  0.000E+00  4.50817E+01  1.613E-01  2.000E+01  2.000E+04 -1.074E-01
   1   16    9     1     9    1.2097E+05 -2.1247E+03   1.2309E+05  0.000E+00  0.000E+00  0.000E+00  4.46062E+01  1.630E-01  2.000E+01  2.000E+04 -1.062E-01
   1   16   10     1    10    1.2309E+05 -2.1354E+03   1.2523E+05  0.000E+00  0.000E+00  0.000E+00  4.41306E+01  1.647E-01  2.000E+01  2.000E+04 -1.068E-01
   1   16   11     1    11    1.2523E+05 -2.1999E+03   1.2743E+05  0.000E+00  0.000E+00  0.000E+00  4.36551E+01  1.664E-01  2.000E+01  2.000E+04 -1.100E-01
   1   16   12     1    12    1.2743E+05 -3.2088E+03   1.3064E+05  0.000E+00  0.000E+00  0.000E+00  4.31799E+01  1.686E-01  2.000E+01  2.000E+04 -1.604E-01
   1   15   13     1    13    1.3064E+05 -3.0091E+03   1.3365E+05  0.000E+00  0.000E+00  0.000E+00  4.27051E+01  1.710E-01  2.000E+01  2.000E+04 -1.505E-01
   1   14   14     1    14    1.3365E+05 -3.0129E+03   1.3666E+05  0.000E+00  0.000E+00  0.000E+00  4.22301E+01  1.733E-01  2.000E+01  2.000E+04 -1.506E-01
   1   13   15     1    15    1.3666E+05 -3.1562E+03   1.3982E+05  0.000E+00  0.000E+00  0.000E+00  4.17552E+01  1.757E-01  2.000E+01  2.000E+04 -1.578E-01
   1   12   16     1    16    1.3982E+05 -3.9591E+03   1.4377E+05  0.000E+00  0.000E+00  0.000E+00  4.12806E+01  1.784E-01  2.000E+01  2.000E+04 -1.980E-01
   1   12   17     1    17    1.4377E+05 -2.8033E+03   1.4658E+05  0.000E+00  0.000E+00  0.000E+00  4.08059E+01  1.809E-01  2.000E+01  2.000E+04 -1.402E-01
   1   12   18     1    18    1.4658E+05 -2.8115E+03   1.4939E+05  0.000E+00  0.000E+00  0.000E+00  4.03307E+01  1.830E-01  2.000E+01  2.000E+04 -1.406E-01
   1   12   19     1    19    1.4939E+05 -3.7980E+03   1.5319E+05  0.000E+00  0.000E+00  0.000E+00  3.98559E+01  1.854E-01  2.000E+01  2.000E+04 -1.899E-01
   1   13   20     1    20    1.5319E+05 -2.6789E+03   1.5587E+05  0.000E+00  0.000E+00  0.000E+00  3.93810E+01  1.878E-01  2.000E+01  2.000E+04 -1.339E-01
   1   14   21     1    21    1.5587E+05 -2.1368E+03   1.5800E+05  0.000E+00  0.000E+00  0.000E+00  3.89055E+01  1.896E-01  2.000E+01  2.000E+04 -1.068E-01
   1   14   22     1    22    1.5800E+05  5.0019E+03   1.5300E+05  0.000E+00  0.000E+00  0.000E+00  3.84272E+01  1.885E-01  2.000E+01  2.000E+04  2.501E-01
   1    9   30     2     1    5.0000E+04 -2.5690E+03   5.2569E+04  0.000E+00  0.000E+00  0.000E+00  4.02426E+01  1.176E-01  2.000E+01  2.000E+04 -1.284E-01
   1    9   29     2     2    5.2569E+04 -2.8959E+03   5.5465E+04  0.000E+00  0.000E+00  0.000E+00  3.99964E+01  1.214E-01  2.000E+01  2.000E+04 -1.448E-01
   1    9   28     2     3    5.5465E+04 -3.2614E+03   5.8726E+04  0.000E+00  0.000E+00  0.000E+00  3.97505E+01  1.255E-01  2.000E+01  2.000E+04 -1.631E-01
   1    9   27     2     4    5.8726E+04 -5.8359E+03   6.4562E+04  0.000E+00  0.000E+00  0.000E+00  3.95064E+01  1.314E-01  2.000E+01  2.000E+04 -2.918E-01
   1   10   26     2     5    6.4562E+04 -3.4413E+03   6.8004E+04  0.000E+00  0.000E+00  0.000E+00  3.92622E+01  1.372E-01  2.000E+01  2.000E+04 -1.721E-01
   1   11   25     2     6    6.8004E+04 -2.3912E+03   7.0395E+04  0.000E+00  0.000E+00  0.000E+00  3.90158E+01  1.408E-01  2.000E+01  2.000E+04 -1.196E-01
   1   12   24     2     7    7.0395E+04 -1.5793E+03   7.1974E+04  0.000E+00  0.000E+00  0.000E+00  3.87682E+01  1.432E-01  2.000E+01  2.000E+04 -7.897E-02
   1   13   23     2     8    7.1974E+04 -8.5255E+02   7.2827E+04  0.000E+00  0.000E+00  0.000E+00  3.85197E+01  1.447E-01  2.000E+01  2.000E+04 -4.263E-02
   1   14   22     2     9    7.2827E+04  1.8405E+03   7.0986E+04  0.000E+00  0.000E+00  0.000E+00  3.82691E+01  1.441E-01  2.000E+01  2.000E+04  9.203E-02
   1   14   22     3     1    2.2399E+05 -8.4914E+03   2.3248E+05  0.000E+00  0.000E+00  0.000E+00  3.77525E+01  1.969E-01  2.000E+01  2.000E+04 -4.246E-01
   1   15   23     3     2    2.3248E+05 -2.9032E+03   2.3538E+05  0.000E+00  0.000E+00  0.000E+00  3.68665E+01  1.999E-01  2.000E+01  2.000E+04 -1.452E-01
   1   15   24     3     3    2.3538E+05 -1.9871E+03   2.3737E+05  0.000E+00  0.000E+00  0.000E+00  3.59789E+01  2.011E-01  2.000E+01  2.000E+04 -9.936E-02
   1   15   25     3     4    2.3737E+05 -1.8567E+03   2.3923E+05  0.000E+00  0.000E+00  0.000E+00  3.50910E+01  2.021E-01  2.000E+01  2.000E+04 -9.283E-02
   1   15   26     3     5    2.3923E+05 -2.1689E+03   2.4139E+05  0.000E+00  0.000E+00  0.000E+00  3.42031E+01  2.031E-01  2.000E+01  2.000E+04 -1.084E-01
   1   16   27     3     6    2.4139E+05 -3.0993E+03   2.4449E+05  0.000E+00  0.000E+00  0.000E+00  3.33156E+01  2.045E-01  2.000E+01  2.000E+04 -1.550E-01
   1   17   28     3     7    2.4449E+05 -3.9238E+03   2.4842E+05  0.000E+00  0.000E+00  0.000E+00  3.24284E+01  2.062E-01  2.000E+01  2.000E+04 -1.962E-01
   1   18   29     3     8    2.4842E+05 -5.6207E+03   2.5404E+05  0.000E+00  0.000E+00  0.000E+00  3.15419E+01  2.086E-01  2.000E+01  2.000E+04 -2.810E-01
   1   18   30     3     9    2.5404E+05 -4.6869E+03   2.5873E+05  0.000E+00  0.000E+00  0.000E+00  3.06556E+01  2.112E-01  2.000E+01  2.000E+04 -2.343E-01



1
              HEAD IN LAYER   1 AT END OF TIME STEP   1 IN STRESS PERIOD   11
  ---------------------------------------------------------------------------

          1      2      3      4      5      6      7      8      9     10
         11     12     13     14     15     16     17     18     19     20
         21     22     23     24     25     26     27     28     29     30
 .........................................................................
   1  ****** ****** ****** ****** ****** ****** ****** ****** ****** ******
      ****** ****** ****** ****** ****** ****** ****** ****** ****** ******
      ****** ****** ****** ****** ****** ****** ****** ****** ****** ******
   2  ****** ****** ****** ****** ****** ****** ****** ****** ****** ******
      ****** ****** ****** ****** ****** ****** ****** ****** ****** ******
      ****** ****** ****** ****** ****** ****** ****** ****** ****** ******
   3  ****** ****** ****** ****** ****** ****** ****** ****** ****** ******
      ****** ****** ****** ****** ****** ****** ****** ****** ****** ******
      ****** ****** ****** ****** ****** ****** ****** ****** ****** ******
   4  ****** ****** ****** ****** ****** ****** ****** ****** ****** ******
      ****** ****** ****** ****** ****** ****** ****** ****** ****** ******
      ****** ****** ****** ****** ****** ****** ****** ****** ****** ******
   5  ****** ****** ****** ****** ****** ****** ****** ****** ****** ******
      ****** ****** ****** ****** ****** ****** ****** ****** ****** ******
      ****** ****** ****** ****** ****** ****** ****** ****** ****** ******
   6  ****** ****** ****** ****** ****** ****** ****** ****** ****** ******
      ****** ****** ****** ****** ****** ****** ****** ****** ****** ******
      ****** ****** ****** ****** ****** ****** ****** ****** ****** ******
   7  ****** ****** ****** ****** ****** ****** ****** ****** ****** ******
      ****** ****** ****** ****** ****** ****** ****** ****** ****** ******
      ****** ****** ****** ****** ****** ****** ****** ****** ****** ******
   8  ****** ****** ****** ****** ****** ****** ****** ****** ****** ******
      ****** ****** ****** ****** ****** ****** ****** ****** ****** ******
      ****** ****** ****** ****** ****** ****** ****** ****** ****** ******
   9  ****** ****** ****** ****** ****** ****** ****** ****** ****** ******
      ****** ****** ****** ****** ****** ****** ****** ****** ****** ******
      ****** ****** ****** ****** ****** ****** ****** ****** ****** ******
  10  ****** ****** ****** ****** ****** ****** ****** ****** ****** ******
      ****** ****** ****** ****** ****** ****** ****** ****** ****** ******
      ****** ****** ****** ****** ****** ****** ****** ****** ****** ******
  11  ****** ****** ****** ****** ****** ****** ****** ****** ****** ******
      ****** ****** ****** ****** ****** ****** ****** ****** ****** ******
      ****** ****** ****** ****** ****** ****** ****** ****** ****** ******
  12  ****** ****** ****** ****** ****** ****** ****** ****** ****** ******
      ****** ****** ****** ****** ****** ****** ****** ****** ****** ******
      ****** ****** ****** ****** ****** ****** ****** ****** ****** ******
  13  ****** ****** ****** ****** ****** ****** ****** ****** ****** ******
      ****** ****** ****** ****** ****** ****** ****** ****** ****** ******
      ****** ****** ****** ****** ****** ****** ****** ****** ****** ******
  14  ****** ****** ****** ****** ****** ****** ****** ****** ****** ******
      ****** ****** ****** ****** ****** ****** ****** ****** ****** ******
      ****** ****** ****** ****** ****** ****** ****** ****** ****** ******
  15  ****** ****** ****** ****** ****** ****** ****** ****** ****** ******
      ****** ****** ****** ****** ****** ****** ****** ****** ****** ******
      ****** ****** ****** ****** ****** ****** ****** ****** ****** ******
  16  ****** ****** ****** ****** ****** ****** ****** ****** ****** ******
      ****** ****** ****** ****** ****** ****** ****** ****** ****** ******
      ****** ****** ****** ****** ****** ****** ****** ****** ****** ******
  17  ****** ****** ****** ****** ****** ****** ****** ****** ****** ******
      ****** ****** ****** ****** ****** ****** ****** ****** ****** ******
      ****** ****** ****** ****** ****** ****** ****** ****** ****** ******
  18  ****** ****** ****** ****** ****** ****** ****** ****** ****** ******
      ****** ****** ****** ****** ****** ****** ****** ****** ****** ******
      ****** ****** ****** ****** ****** ****** ****** ****** ****** ******
  19  ****** ****** ****** ****** ****** ****** ****** ****** ****** ******
      ****** ****** ****** ****** ****** ****** ****** ****** ****** ******
      ****** ****** ****** ****** ****** ****** ****** ****** ****** ******
  20  ****** ****** ****** ****** ****** ****** ****** ****** ****** ******
      ****** ****** ****** ****** ****** ****** ****** ****** ****** ******
      ****** ****** ****** ****** ****** ****** ****** ****** ****** ******
  21  ****** ****** ****** ****** ****** ****** ****** ****** ****** ******
      ****** ****** ****** ****** ****** ****** ****** ****** ****** ******
      ****** ****** ****** ****** ****** ****** ****** ****** ****** ******
  22  ****** ****** ****** ****** ****** ****** ****** ****** ****** ******
      ****** ****** ****** ****** ****** ****** ****** ****** ****** ******
      ****** ****** ****** ****** ****** ****** ****** ****** ****** ******
  23  ****** ****** ****** ****** ****** ****** ****** ****** ****** ******
      ****** ****** ****** ****** ****** ****** ****** ****** ****** ******
      ****** ****** ****** ****** ****** ****** ****** ****** ****** ******
  24  ****** ****** ****** ****** ****** ****** ****** ****** ****** ******
      ****** ****** ****** ****** ****** ****** ****** ****** ****** ******
      ****** ****** ****** ****** ****** ****** ****** ****** ****** ******
  25  ****** ****** ****** ****** ****** ****** ****** ****** ****** ******
      ****** ****** ****** ****** ****** ****** ****** ****** ****** ******
      ****** ****** ****** ****** ****** ****** ****** ****** ****** ******

 HEAD WILL BE SAVED ON UNIT   51 AT END OF TIME STEP    1, STRESS PERIOD   11
1
  VOLUMETRIC BUDGET FOR ENTIRE MODEL AT END OF TIME STEP    1, STRESS PERIOD  11
  ------------------------------------------------------------------------------

     CUMULATIVE VOLUMES      L**3       RATES FOR THIS TIME STEP      L**3/T
     ------------------                 ------------------------

           IN:                                      IN:
           ---                                      ---
             STORAGE =    26807382.9331               STORAGE =       11852.4959
       CONSTANT HEAD =   190282071.9841         CONSTANT HEAD =      201894.8955
               WELLS =           0.0000                 WELLS =           0.0000
            RECHARGE =    23901600.0000              RECHARGE =           0.0000
      STREAM LEAKAGE =     6558356.2924        STREAM LEAKAGE =        6842.4595

            TOTAL IN =   247549411.2097              TOTAL IN =      220589.8509

          OUT:                                     OUT:
          ----                                     ----
             STORAGE =     2233105.0232               STORAGE =           0.0000
       CONSTANT HEAD =           0.0000         CONSTANT HEAD =           0.0000
               WELLS =   105442053.5463                 WELLS =      105021.9657
            RECHARGE =           0.0000              RECHARGE =           0.0000
      STREAM LEAKAGE =   139874253.9165        STREAM LEAKAGE =      115567.8874

           TOTAL OUT =   247549412.4860             TOTAL OUT =      220589.8531

            IN - OUT =          -1.2763              IN - OUT =      -2.1899E-03

 PERCENT DISCREPANCY =          -0.00     PERCENT DISCREPANCY =          -0.00






         TIME SUMMARY AT END OF TIME STEP    1 IN STRESS PERIOD   11
                    SECONDS     MINUTES      HOURS       DAYS        YEARS
                    -----------------------------------------------------------
   TIME STEP LENGTH 7.86240E+06 1.31040E+05  2184.0      91.000     0.24914    
 STRESS PERIOD TIME 7.86240E+06 1.31040E+05  2184.0      91.000     0.24914    
         TOTAL TIME 8.67456E+07 1.44576E+06  24096.      1004.0      2.7488    
1
1
                            STRESS PERIOD NO.   12, LENGTH =   91.00000    
                            -----------------------------------------------

                              NUMBER OF TIME STEPS =     1

                               MULTIPLIER FOR DELT =     1.500

                            INITIAL TIME STEP SIZE =   91.00000    

 WELL NO.  LAYER   ROW   COL   STRESS RATE         
 --------------------------------------------------
      1      1     23      9     -0.3450E+05
      2      1      3      9     -0.3774E+05
      3      1      3     14     -0.3278E+05

      3 WELLS

                 RECHARGE =  1.000000E-03

 REUSING STREAM SEGMENT DATA FROM LAST STRESS PERIOD
 
 SOLVING FOR HEAD 


     6 CALLS TO PCG ROUTINE FOR TIME STEP   1 IN STRESS PERIOD   12
    23 TOTAL ITERATIONS

 OUTPUT CONTROL FOR STRESS PERIOD   12   TIME STEP    1
    SAVE BUDGET
    SAVE HEAD FOR ALL LAYERS
    PRINT HEAD FOR ALL LAYERS
 UBDSV2 SAVING "STREAMFLOW OUT  " ON UNIT  50 AT TIME STEP  1, STRESS PERIOD  12



 STREAM LISTING     PERIOD     12   STEP        1

 LAYER ROW COL. STREAM  RCH.  FLOW INTO     FLOW TO   FLOW OUT OF   OVRLND.     DIRECT     STREAM       STREAM     STREAM     STREAM   STREAMBED  STREAMBED
                SEG.NO.  NO.  STRM. RCH.    AQUIFER    STRM. RCH.    RUNOFF     PRECIP       ET          HEAD       DEPTH      WIDTH   CONDCTNC.   GRADIENT

   1   13    1     1     1    1.0000E+05 -2.2705E+03   1.0227E+05  0.000E+00  0.000E+00  0.000E+00  4.84070E+01  1.456E-01  2.000E+01  2.000E+04 -1.135E-01
   1   13    2     1     2    1.0227E+05 -3.8635E+03   1.0613E+05  0.000E+00  0.000E+00  0.000E+00  4.79324E+01  1.483E-01  2.000E+01  2.000E+04 -1.932E-01
   1   14    3     1     3    1.0613E+05 -3.0960E+03   1.0923E+05  0.000E+00  0.000E+00  0.000E+00  4.74580E+01  1.512E-01  2.000E+01  2.000E+04 -1.548E-01
   1   15    4     1     4    1.0923E+05 -3.0212E+03   1.1225E+05  0.000E+00  0.000E+00  0.000E+00  4.69833E+01  1.538E-01  2.000E+01  2.000E+04 -1.511E-01
   1   16    5     1     5    1.1225E+05 -3.2326E+03   1.1548E+05  0.000E+00  0.000E+00  0.000E+00  4.65086E+01  1.564E-01  2.000E+01  2.000E+04 -1.616E-01
   1   16    6     1     6    1.1548E+05 -2.4163E+03   1.1790E+05  0.000E+00  0.000E+00  0.000E+00  4.60337E+01  1.587E-01  2.000E+01  2.000E+04 -1.208E-01
   1   16    7     1     7    1.1790E+05 -2.3699E+03   1.2027E+05  0.000E+00  0.000E+00  0.000E+00  4.55584E+01  1.606E-01  2.000E+01  2.000E+04 -1.185E-01
   1   16    8     1     8    1.2027E+05 -2.3288E+03   1.2260E+05  0.000E+00  0.000E+00  0.000E+00  4.50830E+01  1.625E-01  2.000E+01  2.000E+04 -1.164E-01
   1   16    9     1     9    1.2260E+05 -2.3048E+03   1.2490E+05  0.000E+00  0.000E+00  0.000E+00  4.46076E+01  1.644E-01  2.000E+01  2.000E+04 -1.152E-01
   1   16   10     1    10    1.2490E+05 -2.3142E+03   1.2722E+05  0.000E+00  0.000E+00  0.000E+00  4.41321E+01  1.662E-01  2.000E+01  2.000E+04 -1.157E-01
   1   16   11     1    11    1.2722E+05 -2.3768E+03   1.2959E+05  0.000E+00  0.000E+00  0.000E+00  4.36567E+01  1.681E-01  2.000E+01  2.000E+04 -1.188E-01
   1   16   12     1    12    1.2959E+05 -3.4317E+03   1.3303E+05  0.000E+00  0.000E+00  0.000E+00  4.31817E+01  1.703E-01  2.000E+01  2.000E+04 -1.716E-01
   1   15   13     1    13    1.3303E+05 -3.2524E+03   1.3628E+05  0.000E+00  0.000E+00  0.000E+00  4.27070E+01  1.729E-01  2.000E+01  2.000E+04 -1.626E-01
   1   14   14     1    14    1.3628E+05 -3.2588E+03   1.3954E+05  0.000E+00  0.000E+00  0.000E+00  4.22322E+01  1.754E-01  2.000E+01  2.000E+04 -1.629E-01
   1   13   15     1    15    1.3954E+05 -3.3967E+03   1.4293E+05  0.000E+00  0.000E+00  0.000E+00  4.17575E+01  1.779E-01  2.000E+01  2.000E+04 -1.698E-01
   1   12   16     1    16    1.4293E+05 -4.1785E+03   1.4711E+05  0.000E+00  0.000E+00  0.000E+00  4.12831E+01  1.808E-01  2.000E+01  2.000E+04 -2.089E-01
   1   12   17     1    17    1.4711E+05 -2.9770E+03   1.5009E+05  0.000E+00  0.000E+00  0.000E+00  4.08085E+01  1.835E-01  2.000E+01  2.000E+04 -1.488E-01
   1   12   18     1    18    1.5009E+05 -2.9847E+03   1.5307E+05  0.000E+00  0.000E+00  0.000E+00  4.03334E+01  1.857E-01  2.000E+01  2.000E+04 -1.492E-01
   1   12   19     1    19    1.5307E+05 -4.0093E+03   1.5708E+05  0.000E+00  0.000E+00  0.000E+00  3.98587E+01  1.882E-01  2.000E+01  2.000E+04 -2.005E-01
   1   13   20     1    20    1.5708E+05 -2.8977E+03   1.5998E+05  0.000E+00  0.000E+00  0.000E+00  3.93839E+01  1.907E-01  2.000E+01  2.000E+04 -1.449E-01
   1   14   21     1    21    1.5998E+05 -2.3337E+03   1.6231E+05  0.000E+00  0.000E+00  0.000E+00  3.89085E+01  1.926E-01  2.000E+01  2.000E+04 -1.167E-01
   1   14   22     1    22    1.6231E+05  4.9585E+03   1.5736E+05  0.000E+00  0.000E+00  0.000E+00  3.84303E+01  1.917E-01  2.000E+01  2.000E+04  2.479E-01
   1    9   30     2     1    5.0000E+04 -2.7484E+03   5.2748E+04  0.000E+00  0.000E+00  0.000E+00  4.02428E+01  1.178E-01  2.000E+01  2.000E+04 -1.374E-01
   1    9   29     2     2    5.2748E+04 -3.0736E+03   5.5822E+04  0.000E+00  0.000E+00  0.000E+00  3.99967E+01  1.217E-01  2.000E+01  2.000E+04 -1.537E-01
   1    9   28     2     3    5.5822E+04 -3.4365E+03   5.9258E+04  0.000E+00  0.000E+00  0.000E+00  3.97511E+01  1.261E-01  2.000E+01  2.000E+04 -1.718E-01
   1    9   27     2     4    5.9258E+04 -6.0566E+03   6.5315E+04  0.000E+00  0.000E+00  0.000E+00  3.95072E+01  1.322E-01  2.000E+01  2.000E+04 -3.028E-01
   1   10   26     2     5    6.5315E+04 -3.6788E+03   6.8994E+04  0.000E+00  0.000E+00  0.000E+00  3.92633E+01  1.383E-01  2.000E+01  2.000E+04 -1.839E-01
   1   11   25     2     6    6.8994E+04 -2.6222E+03   7.1616E+04  0.000E+00  0.000E+00  0.000E+00  3.90172E+01  1.422E-01  2.000E+01  2.000E+04 -1.311E-01
   1   12   24     2     7    7.1616E+04 -1.7891E+03   7.3405E+04  0.000E+00  0.000E+00  0.000E+00  3.87698E+01  1.448E-01  2.000E+01  2.000E+04 -8.946E-02
   1   13   23     2     8    7.3405E+04 -1.0230E+03   7.4428E+04  0.000E+00  0.000E+00  0.000E+00  3.85215E+01  1.465E-01  2.000E+01  2.000E+04 -5.115E-02
   1   14   22     2     9    7.4428E+04  1.7736E+03   7.2655E+04  0.000E+00  0.000E+00  0.000E+00  3.82710E+01  1.460E-01  2.000E+01  2.000E+04  8.868E-02
   1   14   22     3     1    2.3001E+05 -8.5353E+03   2.3855E+05  0.000E+00  0.000E+00  0.000E+00  3.77556E+01  2.001E-01  2.000E+01  2.000E+04 -4.268E-01
   1   15   23     3     2    2.3855E+05 -3.0878E+03   2.4163E+05  0.000E+00  0.000E+00  0.000E+00  3.68697E+01  2.030E-01  2.000E+01  2.000E+04 -1.544E-01
   1   15   24     3     3    2.4163E+05 -2.1316E+03   2.4377E+05  0.000E+00  0.000E+00  0.000E+00  3.59821E+01  2.043E-01  2.000E+01  2.000E+04 -1.066E-01
   1   15   25     3     4    2.4377E+05 -2.0059E+03   2.4577E+05  0.000E+00  0.000E+00  0.000E+00  3.50943E+01  2.054E-01  2.000E+01  2.000E+04 -1.003E-01
   1   15   26     3     5    2.4577E+05 -2.3639E+03   2.4814E+05  0.000E+00  0.000E+00  0.000E+00  3.42065E+01  2.065E-01  2.000E+01  2.000E+04 -1.182E-01
   1   16   27     3     6    2.4814E+05 -3.3338E+03   2.5147E+05  0.000E+00  0.000E+00  0.000E+00  3.33190E+01  2.079E-01  2.000E+01  2.000E+04 -1.667E-01
   1   17   28     3     7    2.5147E+05 -4.1608E+03   2.5563E+05  0.000E+00  0.000E+00  0.000E+00  3.24320E+01  2.098E-01  2.000E+01  2.000E+04 -2.080E-01
   1   18   29     3     8    2.5563E+05 -5.8374E+03   2.6147E+05  0.000E+00  0.000E+00  0.000E+00  3.15456E+01  2.122E-01  2.000E+01  2.000E+04 -2.919E-01
   1   18   30     3     9    2.6147E+05 -4.8577E+03   2.6633E+05  0.000E+00  0.000E+00  0.000E+00  3.06593E+01  2.149E-01  2.000E+01  2.000E+04 -2.429E-01



1
              HEAD IN LAYER   1 AT END OF TIME STEP   1 IN STRESS PERIOD   12
  ---------------------------------------------------------------------------

          1      2      3      4      5      6      7      8      9     10
         11     12     13     14     15     16     17     18     19     20
         21     22     23     24     25     26     27     28     29     30
 .........................................................................
   1  ****** ****** ****** ****** ****** ****** ****** ****** ****** ******
      ****** ****** ****** ****** ****** ****** ****** ****** ****** ******
      ****** ****** ****** ****** ****** ****** ****** ****** ****** ******
   2  ****** ****** ****** ****** ****** ****** ****** ****** ****** ******
      ****** ****** ****** ****** ****** ****** ****** ****** ****** ******
      ****** ****** ****** ****** ****** ****** ****** ****** ****** ******
   3  ****** ****** ****** ****** ****** ****** ****** ****** ****** ******
      ****** ****** ****** ****** ****** ****** ****** ****** ****** ******
      ****** ****** ****** ****** ****** ****** ****** ****** ****** ******
   4  ****** ****** ****** ****** ****** ****** ****** ****** ****** ******
      ****** ****** ****** ****** ****** ****** ****** ****** ****** ******
      ****** ****** ****** ****** ****** ****** ****** ****** ****** ******
   5  ****** ****** ****** ****** ****** ****** ****** ****** ****** ******
      ****** ****** ****** ****** ****** ****** ****** ****** ****** ******
      ****** ****** ****** ****** ****** ****** ****** ****** ****** ******
   6  ****** ****** ****** ****** ****** ****** ****** ****** ****** ******
      ****** ****** ****** ****** ****** ****** ****** ****** ****** ******
      ****** ****** ****** ****** ****** ****** ****** ****** ****** ******
   7  ****** ****** ****** ****** ****** ****** ****** ****** ****** ******
      ****** ****** ****** ****** ****** ****** ****** ****** ****** ******
      ****** ****** ****** ****** ****** ****** ****** ****** ****** ******
   8  ****** ****** ****** ****** ****** ****** ****** ****** ****** ******
      ****** ****** ****** ****** ****** ****** ****** ****** ****** ******
      ****** ****** ****** ****** ****** ****** ****** ****** ****** ******
   9  ****** ****** ****** ****** ****** ****** ****** ****** ****** ******
      ****** ****** ****** ****** ****** ****** ****** ****** ****** ******
      ****** ****** ****** ****** ****** ****** ****** ****** ****** ******
  10  ****** ****** ****** ****** ****** ****** ****** ****** ****** ******
      ****** ****** ****** ****** ****** ****** ****** ****** ****** ******
      ****** ****** ****** ****** ****** ****** ****** ****** ****** ******
  11  ****** ****** ****** ****** ****** ****** ****** ****** ****** ******
      ****** ****** ****** ****** ****** ****** ****** ****** ****** ******
      ****** ****** ****** ****** ****** ****** ****** ****** ****** ******
  12  ****** ****** ****** ****** ****** ****** ****** ****** ****** ******
      ****** ****** ****** ****** ****** ****** ****** ****** ****** ******
      ****** ****** ****** ****** ****** ****** ****** ****** ****** ******
  13  ****** ****** ****** ****** ****** ****** ****** ****** ****** ******
      ****** ****** ****** ****** ****** ****** ****** ****** ****** ******
      ****** ****** ****** ****** ****** ****** ****** ****** ****** ******
  14  ****** ****** ****** ****** ****** ****** ****** ****** ****** ******
      ****** ****** ****** ****** ****** ****** ****** ****** ****** ******
      ****** ****** ****** ****** ****** ****** ****** ****** ****** ******
  15  ****** ****** ****** ****** ****** ****** ****** ****** ****** ******
      ****** ****** ****** ****** ****** ****** ****** ****** ****** ******
      ****** ****** ****** ****** ****** ****** ****** ****** ****** ******
  16  ****** ****** ****** ****** ****** ****** ****** ****** ****** ******
      ****** ****** ****** ****** ****** ****** ****** ****** ****** ******
      ****** ****** ****** ****** ****** ****** ****** ****** ****** ******
  17  ****** ****** ****** ****** ****** ****** ****** ****** ****** ******
      ****** ****** ****** ****** ****** ****** ****** ****** ****** ******
      ****** ****** ****** ****** ****** ****** ****** ****** ****** ******
  18  ****** ****** ****** ****** ****** ****** ****** ****** ****** ******
      ****** ****** ****** ****** ****** ****** ****** ****** ****** ******
      ****** ****** ****** ****** ****** ****** ****** ****** ****** ******
  19  ****** ****** ****** ****** ****** ****** ****** ****** ****** ******
      ****** ****** ****** ****** ****** ****** ****** ****** ****** ******
      ****** ****** ****** ****** ****** ****** ****** ****** ****** ******
  20  ****** ****** ****** ****** ****** ****** ****** ****** ****** ******
      ****** ****** ****** ****** ****** ****** ****** ****** ****** ******
      ****** ****** ****** ****** ****** ****** ****** ****** ****** ******
  21  ****** ****** ****** ****** ****** ****** ****** ****** ****** ******
      ****** ****** ****** ****** ****** ****** ****** ****** ****** ******
      ****** ****** ****** ****** ****** ****** ****** ****** ****** ******
  22  ****** ****** ****** ****** ****** ****** ****** ****** ****** ******
      ****** ****** ****** ****** ****** ****** ****** ****** ****** ******
      ****** ****** ****** ****** ****** ****** ****** ****** ****** ******
  23  ****** ****** ****** ****** ****** ****** ****** ****** ****** ******
      ****** ****** ****** ****** ****** ****** ****** ****** ****** ******
      ****** ****** ****** ****** ****** ****** ****** ****** ****** ******
  24  ****** ****** ****** ****** ****** ****** ****** ****** ****** ******
      ****** ****** ****** ****** ****** ****** ****** ****** ****** ******
      ****** ****** ****** ****** ****** ****** ****** ****** ****** ******
  25  ****** ****** ****** ****** ****** ****** ****** ****** ****** ******
      ****** ****** ****** ****** ****** ****** ****** ****** ****** ******
      ****** ****** ****** ****** ****** ****** ****** ****** ****** ******

 HEAD WILL BE SAVED ON UNIT   51 AT END OF TIME STEP    1, STRESS PERIOD   12
1
  VOLUMETRIC BUDGET FOR ENTIRE MODEL AT END OF TIME STEP    1, STRESS PERIOD  12
  ------------------------------------------------------------------------------

     CUMULATIVE VOLUMES      L**3       RATES FOR THIS TIME STEP      L**3/T
     ------------------                 ------------------------

           IN:                                      IN:
           ---                                      ---
             STORAGE =    26807382.9331               STORAGE =           0.0000
       CONSTANT HEAD =   208252713.6902         CONSTANT HEAD =      197479.5792
               WELLS =           0.0000                 WELLS =           0.0000
            RECHARGE =    26413200.0000              RECHARGE =       27600.0000
      STREAM LEAKAGE =     7170975.4194        STREAM LEAKAGE =        6732.0783

            TOTAL IN =   268644272.0427              TOTAL IN =      231811.6575

          OUT:                                     OUT:
          ----                                     ----
             STORAGE =     2572760.0129               STORAGE =        3732.4724
       CONSTANT HEAD =           0.0000         CONSTANT HEAD =           0.0000
               WELLS =   114999052.4235                 WELLS =      105021.9657
            RECHARGE =           0.0000              RECHARGE =           0.0000
      STREAM LEAKAGE =   151072460.8043        STREAM LEAKAGE =      123057.2185

           TOTAL OUT =   268644273.2406             TOTAL OUT =      231811.6566

            IN - OUT =          -1.1979              IN - OUT =       8.6200E-04

 PERCENT DISCREPANCY =          -0.00     PERCENT DISCREPANCY =           0.00






         TIME SUMMARY AT END OF TIME STEP    1 IN STRESS PERIOD   12
                    SECONDS     MINUTES      HOURS       DAYS        YEARS
                    -----------------------------------------------------------
   TIME STEP LENGTH 7.86240E+06 1.31040E+05  2184.0      91.000     0.24914    
 STRESS PERIOD TIME 7.86240E+06 1.31040E+05  2184.0      91.000     0.24914    
         TOTAL TIME 9.46080E+07 1.57680E+06  26280.      1095.0      2.9979    
1

 Run end date and time (yyyy/mm/dd hh:mm:ss): 2018/10/09 15:00:03
 Elapsed run time:  0.060 Seconds

