                                  MODFLOW-2005     
      U.S. GEOLOGICAL SURVEY MODULAR FINITE-DIFFERENCE GROUND-WATER FLOW MODEL
                            VERSION 1.11.00 8/8/2013

 LIST FILE: supply2.lst
                         UNIT   10

 OPENING ..\data\supply.dis
 FILE TYPE:DIS   UNIT   11   STATUS:OLD    
 FORMAT:FORMATTED              ACCESS:SEQUENTIAL          

 OPENING ..\data\supply.ba6
 FILE TYPE:BAS6   UNIT   12   STATUS:OLD    
 FORMAT:FORMATTED              ACCESS:SEQUENTIAL          

 OPENING ..\data\supply.bc6
 FILE TYPE:BCF6   UNIT   13   STATUS:OLD    
 FORMAT:FORMATTED              ACCESS:SEQUENTIAL          

 OPENING ..\data\supply.rch
 FILE TYPE:RCH   UNIT   15   STATUS:OLD    
 FORMAT:FORMATTED              ACCESS:SEQUENTIAL          

 OPENING ..\data\supply2.sfr
 FILE TYPE:SFR   UNIT   16   STATUS:OLD    
 FORMAT:FORMATTED              ACCESS:SEQUENTIAL          

 OPENING ..\data\supply.oc
 FILE TYPE:OC   UNIT   17   STATUS:OLD    
 FORMAT:FORMATTED              ACCESS:SEQUENTIAL          

 OPENING ..\data\supply.pcg
 FILE TYPE:PCG   UNIT   18   STATUS:OLD    
 FORMAT:FORMATTED              ACCESS:SEQUENTIAL          

 OPENING supply2.wel
 FILE TYPE:WEL   UNIT   19   STATUS:OLD    
 FORMAT:FORMATTED              ACCESS:SEQUENTIAL          

 OPENING supply2sf.bin
 FILE TYPE:DATA(BINARY)   UNIT   50   STATUS:UNKNOWN
 FORMAT:BINARY                 ACCESS:SEQUENTIAL          

 OPENING supply2hd.bin
 FILE TYPE:DATA(BINARY)   UNIT   51   STATUS:UNKNOWN
 FORMAT:BINARY                 ACCESS:SEQUENTIAL          

 BAS -- BASIC PACKAGE, VERSION 7, 5/2/2005 INPUT READ FROM UNIT   12
 
 MODFLOW was compiled using uniform precision
 Precision of REAL and DOUBLE PRECISION variables:          15

 DISCRETIZATION INPUT DATA READ FROM UNIT   11
    1 LAYERS        25 ROWS        30 COLUMNS
   12 STRESS PERIOD(S) IN SIMULATION
 MODEL TIME UNIT IS DAYS
 MODEL LENGTH UNIT IS UNDEFINED
  Confining bed flag for each layer:
   0

                     DELR =   200.000    

                     DELC =   200.000    

 TOP ELEVATION OF LAYER 1 =  100.0000    

   MODEL LAYER BOTTOM EL. =   0.00000     FOR LAYER   1


 STRESS PERIOD     LENGTH       TIME STEPS     MULTIPLIER FOR DELT    SS FLAG
 ----------------------------------------------------------------------------
        1         92.00000          1                    1.500         TR
        2         91.00000          1                    1.500         TR
        3         91.00000          1                    1.500         TR
        4         91.00000          1                    1.500         TR
        5         92.00000          1                    1.500         TR
        6         91.00000          1                    1.500         TR
        7         91.00000          1                    1.500         TR
        8         91.00000          1                    1.500         TR
        9         92.00000          1                    1.500         TR
       10         91.00000          1                    1.500         TR
       11         91.00000          1                    1.500         TR
       12         91.00000          1                    1.500         TR

 TRANSIENT SIMULATION



 
 #MODOFC transient water supply sample problem                                   
 #                                                                               
 THE FREE FORMAT OPTION HAS BEEN SELECTED



                     BOUNDARY ARRAY FOR LAYER   1
 READING ON UNIT   12 WITH FORMAT: (20I4)              

 AQUIFER HEAD WILL BE SET TO   0.0000     AT ALL NO-FLOW NODES (IBOUND=0).



                       INITIAL HEAD FOR LAYER   1
 READING ON UNIT   12 WITH FORMAT: (10F13.0)           

 OUTPUT CONTROL IS SPECIFIED ONLY AT TIME STEPS FOR WHICH OUTPUT IS DESIRED
 COMPACT CELL-BY-CELL BUDGET FILES WILL BE WRITTEN
 HEAD PRINT FORMAT CODE IS  18    DRAWDOWN PRINT FORMAT CODE IS   0
 HEADS WILL BE SAVED ON UNIT   51    DRAWDOWNS WILL BE SAVED ON UNIT    0

 BCF -- BLOCK-CENTERED FLOW PACKAGE, VERSION 7, 5/2/2005
         INPUT READ FROM UNIT 13
 TRANSIENT SIMULATION
 HEAD AT CELLS THAT CONVERT TO DRY=   0.0000    
 WETTING CAPABILITY IS NOT ACTIVE
      LAYER  LAYER-TYPE CODE     INTERBLOCK T
      --------------------------------------------
         1            0          0 -- HARMONIC    

 COLUMN TO ROW ANISOTROPY =  1.000000    

     PRIMARY STORAGE COEF =  5.000000E-02 FOR LAYER   1

     TRANSMIS. ALONG ROWS =   5000.00     FOR LAYER   1

 WEL -- WELL PACKAGE, VERSION 7, 5/2/2005 INPUT READ FROM UNIT   19
 # Well package input file written by MMProc
 No named parameters
 MAXIMUM OF      5 ACTIVE WELLS AT ONE TIME


     0 Well parameters

 RCH -- RECHARGE PACKAGE, VERSION 7, 5/2/2005 INPUT READ FROM UNIT   15
 No named parameters
 OPTION 1 -- RECHARGE TO TOP LAYER


     0 Recharge parameters

 SFR7 -- STREAMFLOW ROUTING PACKAGE, VERSION 1.0.7, 2013-01-15
         INPUT READ FROM UNIT  16
 #  Supply2 test problem for GWM-VI
 #  The eighth entry in the first data line is ISTCB2 -
 #    Setting this to a negative number indicates that
 #    streamflows out of the reach will be saved to a
 #    binary file.  The absolute value of ISTCB2 is the
 #    unit to which unformatted flows will be written.
 #
 No named parameters
 Segment information will not be 
 read by reach
 No named parameters
 No specifed inflow files


 NUMBER OF STREAM REACHES IS   40

 NUMBER OF STREAM SEGMENTS IS    3

 NUMBER OF STREAM PARAMETERS IS    0

 NUMBER OF STREAM SEGMENTS DEFINED USING PARAMETERS IS              0

 MAXIMUM ERROR FOR STREAM LEAKAGE RATES IS  1.00E-04

 CONSTANT FOR MANNINGS EQUATION IS  1.2839E+05





   STREAM NETWORK DESCRIPTION: 

   LAYER    ROW    COL   SEGMENT   REACH     LENGTH
                          NUMBER   NUMBER    IN CELL        
   --------------------------------------------------
      1     13      1       1        1    2.0000E+02
      1     13      2       1        2    2.0000E+02
      1     14      3       1        3    2.0000E+02
      1     15      4       1        4    2.0000E+02
      1     16      5       1        5    2.0000E+02
      1     16      6       1        6    2.0000E+02
      1     16      7       1        7    2.0000E+02
      1     16      8       1        8    2.0000E+02
      1     16      9       1        9    2.0000E+02
      1     16     10       1       10    2.0000E+02
      1     16     11       1       11    2.0000E+02
      1     16     12       1       12    2.0000E+02
      1     15     13       1       13    2.0000E+02
      1     14     14       1       14    2.0000E+02
      1     13     15       1       15    2.0000E+02
      1     12     16       1       16    2.0000E+02
      1     12     17       1       17    2.0000E+02
      1     12     18       1       18    2.0000E+02
      1     12     19       1       19    2.0000E+02
      1     13     20       1       20    2.0000E+02
      1     14     21       1       21    2.0000E+02
      1     14     22       1       22    2.0000E+02
      1      9     30       2        1    2.0000E+02
      1      9     29       2        2    2.0000E+02
      1      9     28       2        3    2.0000E+02
      1      9     27       2        4    2.0000E+02
      1     10     26       2        5    2.0000E+02
      1     11     25       2        6    2.0000E+02
      1     12     24       2        7    2.0000E+02
      1     13     23       2        8    2.0000E+02
      1     14     22       2        9    2.0000E+02
      1     14     22       3        1    2.0000E+02
      1     15     23       3        2    2.0000E+02
      1     15     24       3        3    2.0000E+02
      1     15     25       3        4    2.0000E+02
      1     15     26       3        5    2.0000E+02
      1     16     27       3        6    2.0000E+02
      1     17     28       3        7    2.0000E+02
      1     18     29       3        8    2.0000E+02
      1     18     30       3        9    2.0000E+02




 PCG -- CONJUGATE-GRADIENT SOLUTION PACKAGE, VERSION 7, 5/2/2005
 MAXIMUM OF    500 CALLS OF SOLUTION ROUTINE
 MAXIMUM OF      5 INTERNAL ITERATIONS PER CALL TO SOLUTION ROUTINE
 MATRIX PRECONDITIONING TYPE :    1



                                    SOLUTION BY THE CONJUGATE-GRADIENT METHOD
                                   -------------------------------------------
                    MAXIMUM NUMBER OF CALLS TO PCG ROUTINE =      500
                        MAXIMUM ITERATIONS PER CALL TO PCG =        5
                               MATRIX PRECONDITIONING TYPE =        1
        RELAXATION FACTOR (ONLY USED WITH PRECOND. TYPE 1) =    0.10000E+01
 PARAMETER OF POLYNOMIAL PRECOND. = 2 (2) OR IS CALCULATED :        0
                         HEAD CHANGE CRITERION FOR CLOSURE =    0.10000E-05
                     RESIDUAL CHANGE CRITERION FOR CLOSURE =    0.10000E+01
            PCG HEAD AND RESIDUAL CHANGE PRINTOUT INTERVAL =        1
     PRINTING FROM SOLVER IS LIMITED(1) OR SUPPRESSED (>1) =        1
                            STEADY-STATE DAMPING PARAMETER =    0.10000E+01
                               TRANSIENT DAMPING PARAMETER =    0.10000E+01
1
                            STRESS PERIOD NO.    1, LENGTH =   92.00000    
                            -----------------------------------------------

                              NUMBER OF TIME STEPS =     1

                               MULTIPLIER FOR DELT =     1.500

                            INITIAL TIME STEP SIZE =   92.00000    

 WELL NO.  LAYER   ROW   COL   STRESS RATE         
 --------------------------------------------------
      1      1      4      8     -0.5000E+05
      2      1      2      9     -0.5000E+05
      3      1      2      7     -0.5500E+05

      3 WELLS

                 RECHARGE =  5.000000E-04



 CLASSIFICATION & COUNT OF STREAM SEGMENTS BASED ON SOURCE OF INFLOW:

                HEADWATER     DIVERSION     RECEIVES TRIBUTARY FLOW
                ---------     ---------     -----------------------
                     2              0               1



                    INPUT DATA FOR EACH STREAM SEGMENT
 ---------------------------------------------------------------------------------------------

 SEGMENT    SEG.     INFLOW   OVERLAND   STREAM    STREAM   ICALC  OUTFLOW  DIVERSION PRIORITY
    NO.    LENGTH     RATE     RUNOFF      ET       PPT.    METH.  TO SEG.  FROM SEG.    NO.

      1  4.400E+03 1.000E+05 0.000E+00 0.000E+00 0.000E+00    1        3        0        0
      2  1.800E+03 5.000E+04 0.000E+00 0.000E+00 0.000E+00    1        3        0        0
      3  1.800E+03 0.000E+00 0.000E+00 0.000E+00 0.000E+00    1        0        0        0


         STREAMBED PROPERTIES AND STREAM DIMENSIONS

 SEGMENT     BED HYD. COND.      BED THICKNESS     ELEV.-TOP OF BED     WIDTH OF STREAM     DEPTH OF STREAM    STREAM ROUGHNESS
    No.     UPPER     LOWER     UPPER     LOWER     UPPER     LOWER     UPPER     LOWER     UPPER     LOWER   CHANNEL      BANK

     1  5.000E+00 5.000E+00 1.000E+00 1.000E+00 4.850E+01 3.800E+01 2.000E+01 2.000E+01                     5.000E-02
     2  5.000E+00 5.000E+00 1.000E+00 1.000E+00 4.025E+01 3.800E+01 2.000E+01 2.000E+01                     5.000E-02
     3  5.000E+00 5.000E+00 1.000E+00 1.000E+00 3.800E+01 3.000E+01 2.000E+01 2.000E+01                     5.000E-02



 
 SOLVING FOR HEAD 


     8 CALLS TO PCG ROUTINE FOR TIME STEP   1 IN STRESS PERIOD    1
    32 TOTAL ITERATIONS

 OUTPUT CONTROL FOR STRESS PERIOD    1   TIME STEP    1
    SAVE BUDGET
    SAVE HEAD FOR ALL LAYERS
    PRINT HEAD FOR ALL LAYERS
 UBDSV2 SAVING "STREAMFLOW OUT  " ON UNIT  50 AT TIME STEP  1, STRESS PERIOD   1



 STREAM LISTING     PERIOD      1   STEP        1

 LAYER ROW COL. STREAM  RCH.  FLOW INTO     FLOW TO   FLOW OUT OF   OVRLND.     DIRECT     STREAM       STREAM     STREAM     STREAM   STREAMBED  STREAMBED
                SEG.NO.  NO.  STRM. RCH.    AQUIFER    STRM. RCH.    RUNOFF     PRECIP       ET          HEAD       DEPTH      WIDTH   CONDCTNC.   GRADIENT

   1   13    1     1     1    1.0000E+05 -3.0273E+04   1.3027E+05  0.000E+00  0.000E+00  0.000E+00  4.84188E+01  1.574E-01  2.000E+01  2.000E+04 -1.514E+00
   1   13    2     1     2    1.3027E+05 -4.0295E+04   1.7057E+05  0.000E+00  0.000E+00  0.000E+00  4.79689E+01  1.848E-01  2.000E+01  2.000E+04 -2.015E+00
   1   14    3     1     3    1.7057E+05 -3.6360E+04   2.0693E+05  0.000E+00  0.000E+00  0.000E+00  4.75186E+01  2.118E-01  2.000E+01  2.000E+04 -1.818E+00
   1   15    4     1     4    2.0693E+05 -3.5790E+04   2.4272E+05  0.000E+00  0.000E+00  0.000E+00  4.70647E+01  2.352E-01  2.000E+01  2.000E+04 -1.789E+00
   1   16    5     1     5    2.4272E+05 -3.7157E+04   2.7988E+05  0.000E+00  0.000E+00  0.000E+00  4.66097E+01  2.574E-01  2.000E+01  2.000E+04 -1.858E+00
   1   16    6     1     6    2.7988E+05 -3.2370E+04   3.1225E+05  0.000E+00  0.000E+00  0.000E+00  4.61524E+01  2.774E-01  2.000E+01  2.000E+04 -1.618E+00
   1   16    7     1     7    3.1225E+05 -3.2140E+04   3.4438E+05  0.000E+00  0.000E+00  0.000E+00  4.56929E+01  2.952E-01  2.000E+01  2.000E+04 -1.607E+00
   1   16    8     1     8    3.4438E+05 -3.2345E+04   3.7673E+05  0.000E+00  0.000E+00  0.000E+00  4.52327E+01  3.123E-01  2.000E+01  2.000E+04 -1.617E+00
   1   16    9     1     9    3.7673E+05 -3.2470E+04   4.0920E+05  0.000E+00  0.000E+00  0.000E+00  4.47720E+01  3.288E-01  2.000E+01  2.000E+04 -1.623E+00
   1   16   10     1    10    4.0920E+05 -3.2566E+04   4.4177E+05  0.000E+00  0.000E+00  0.000E+00  4.43108E+01  3.449E-01  2.000E+01  2.000E+04 -1.628E+00
   1   16   11     1    11    4.4177E+05 -3.3322E+04   4.7509E+05  0.000E+00  0.000E+00  0.000E+00  4.38493E+01  3.607E-01  2.000E+01  2.000E+04 -1.666E+00
   1   16   12     1    12    4.7509E+05 -3.9522E+04   5.1461E+05  0.000E+00  0.000E+00  0.000E+00  4.33889E+01  3.776E-01  2.000E+01  2.000E+04 -1.976E+00
   1   15   13     1    13    5.1461E+05 -3.8602E+04   5.5321E+05  0.000E+00  0.000E+00  0.000E+00  4.29293E+01  3.952E-01  2.000E+01  2.000E+04 -1.930E+00
   1   14   14     1    14    5.5321E+05 -3.9251E+04   5.9246E+05  0.000E+00  0.000E+00  0.000E+00  4.24691E+01  4.122E-01  2.000E+01  2.000E+04 -1.963E+00
   1   13   15     1    15    5.9246E+05 -4.1325E+04   6.3379E+05  0.000E+00  0.000E+00  0.000E+00  4.20089E+01  4.294E-01  2.000E+01  2.000E+04 -2.066E+00
   1   12   16     1    16    6.3379E+05 -4.6964E+04   6.8075E+05  0.000E+00  0.000E+00  0.000E+00  4.15500E+01  4.477E-01  2.000E+01  2.000E+04 -2.348E+00
   1   12   17     1    17    6.8075E+05 -3.7191E+04   7.1794E+05  0.000E+00  0.000E+00  0.000E+00  4.10897E+01  4.647E-01  2.000E+01  2.000E+04 -1.860E+00
   1   12   18     1    18    7.1794E+05 -3.5630E+04   7.5357E+05  0.000E+00  0.000E+00  0.000E+00  4.06268E+01  4.790E-01  2.000E+01  2.000E+04 -1.782E+00
   1   12   19     1    19    7.5357E+05 -4.0136E+04   7.9371E+05  0.000E+00  0.000E+00  0.000E+00  4.01641E+01  4.937E-01  2.000E+01  2.000E+04 -2.007E+00
   1   13   20     1    20    7.9371E+05 -3.0547E+04   8.2426E+05  0.000E+00  0.000E+00  0.000E+00  3.97003E+01  5.071E-01  2.000E+01  2.000E+04 -1.527E+00
   1   14   21     1    21    8.2426E+05 -2.2995E+04   8.4725E+05  0.000E+00  0.000E+00  0.000E+00  3.92330E+01  5.171E-01  2.000E+01  2.000E+04 -1.150E+00
   1   14   22     1    22    8.4725E+05 -3.0032E+03   8.5025E+05  0.000E+00  0.000E+00  0.000E+00  3.87605E+01  5.219E-01  2.000E+01  2.000E+04 -1.502E-01
   1    9   30     2     1    5.0000E+04 -2.9653E+04   7.9653E+04  0.000E+00  0.000E+00  0.000E+00  4.02604E+01  1.354E-01  2.000E+01  2.000E+04 -1.483E+00
   1    9   29     2     2    7.9653E+04 -3.2089E+04   1.1174E+05  0.000E+00  0.000E+00  0.000E+00  4.00460E+01  1.710E-01  2.000E+01  2.000E+04 -1.604E+00
   1    9   28     2     3    1.1174E+05 -3.6402E+04   1.4814E+05  0.000E+00  0.000E+00  0.000E+00  3.98305E+01  2.055E-01  2.000E+01  2.000E+04 -1.820E+00
   1    9   27     2     4    1.4814E+05 -5.1004E+04   1.9915E+05  0.000E+00  0.000E+00  0.000E+00  3.96196E+01  2.446E-01  2.000E+01  2.000E+04 -2.550E+00
   1   10   26     2     5    1.9915E+05 -3.7406E+04   2.3655E+05  0.000E+00  0.000E+00  0.000E+00  3.94052E+01  2.802E-01  2.000E+01  2.000E+04 -1.870E+00
   1   11   25     2     6    2.3655E+05 -2.9011E+04   2.6556E+05  0.000E+00  0.000E+00  0.000E+00  3.91801E+01  3.051E-01  2.000E+01  2.000E+04 -1.451E+00
   1   12   24     2     7    2.6556E+05 -2.2062E+04   2.8763E+05  0.000E+00  0.000E+00  0.000E+00  3.89484E+01  3.234E-01  2.000E+01  2.000E+04 -1.103E+00
   1   13   23     2     8    2.8763E+05 -1.6049E+04   3.0368E+05  0.000E+00  0.000E+00  0.000E+00  3.87115E+01  3.365E-01  2.000E+01  2.000E+04 -8.025E-01
   1   14   22     2     9    3.0368E+05 -8.8148E+03   3.1249E+05  0.000E+00  0.000E+00  0.000E+00  3.84700E+01  3.450E-01  2.000E+01  2.000E+04 -4.407E-01
   1   14   22     3     1    1.1627E+06 -1.6596E+04   1.1793E+06  0.000E+00  0.000E+00  0.000E+00  3.80809E+01  5.253E-01  2.000E+01  2.000E+04 -8.298E-01
   1   15   23     3     2    1.1793E+06 -2.6748E+04   1.2061E+06  0.000E+00  0.000E+00  0.000E+00  3.71978E+01  5.312E-01  2.000E+01  2.000E+04 -1.337E+00
   1   15   24     3     3    1.2061E+06 -2.2388E+04   1.2285E+06  0.000E+00  0.000E+00  0.000E+00  3.63155E+01  5.377E-01  2.000E+01  2.000E+04 -1.119E+00
   1   15   25     3     4    1.2285E+06 -2.2112E+04   1.2506E+06  0.000E+00  0.000E+00  0.000E+00  3.54325E+01  5.436E-01  2.000E+01  2.000E+04 -1.106E+00
   1   15   26     3     5    1.2506E+06 -2.5539E+04   1.2761E+06  0.000E+00  0.000E+00  0.000E+00  3.45498E+01  5.498E-01  2.000E+01  2.000E+04 -1.277E+00
   1   16   27     3     6    1.2761E+06 -3.3264E+04   1.3094E+06  0.000E+00  0.000E+00  0.000E+00  3.36686E+01  5.575E-01  2.000E+01  2.000E+04 -1.663E+00
   1   17   28     3     7    1.3094E+06 -4.0273E+04   1.3497E+06  0.000E+00  0.000E+00  0.000E+00  3.27891E+01  5.669E-01  2.000E+01  2.000E+04 -2.014E+00
   1   18   29     3     8    1.3497E+06 -5.0723E+04   1.4004E+06  0.000E+00  0.000E+00  0.000E+00  3.19118E+01  5.785E-01  2.000E+01  2.000E+04 -2.536E+00
   1   18   30     3     9    1.4004E+06 -4.6719E+04   1.4471E+06  0.000E+00  0.000E+00  0.000E+00  3.10351E+01  5.907E-01  2.000E+01  2.000E+04 -2.336E+00



1
              HEAD IN LAYER   1 AT END OF TIME STEP   1 IN STRESS PERIOD    1
  ---------------------------------------------------------------------------

          1      2      3      4      5      6      7      8      9     10
         11     12     13     14     15     16     17     18     19     20
         21     22     23     24     25     26     27     28     29     30
 .........................................................................
   1  ****** ****** ****** ****** ****** ****** ****** ****** ****** ******
      ****** ****** ****** ****** ****** ****** ****** ****** ****** ******
      ****** ****** ****** ****** ****** ****** ****** ****** ****** ******
   2  ****** ****** ****** ****** ****** ****** ****** ****** ****** ******
      ****** ****** ****** ****** ****** ****** ****** ****** ****** ******
      ****** ****** ****** ****** ****** ****** ****** ****** ****** ******
   3  ****** ****** ****** ****** ****** ****** ****** ****** ****** ******
      ****** ****** ****** ****** ****** ****** ****** ****** ****** ******
      ****** ****** ****** ****** ****** ****** ****** ****** ****** ******
   4  ****** ****** ****** ****** ****** ****** ****** ****** ****** ******
      ****** ****** ****** ****** ****** ****** ****** ****** ****** ******
      ****** ****** ****** ****** ****** ****** ****** ****** ****** ******
   5  ****** ****** ****** ****** ****** ****** ****** ****** ****** ******
      ****** ****** ****** ****** ****** ****** ****** ****** ****** ******
      ****** ****** ****** ****** ****** ****** ****** ****** ****** ******
   6  ****** ****** ****** ****** ****** ****** ****** ****** ****** ******
      ****** ****** ****** ****** ****** ****** ****** ****** ****** ******
      ****** ****** ****** ****** ****** ****** ****** ****** ****** ******
   7  ****** ****** ****** ****** ****** ****** ****** ****** ****** ******
      ****** ****** ****** ****** ****** ****** ****** ****** ****** ******
      ****** ****** ****** ****** ****** ****** ****** ****** ****** ******
   8  ****** ****** ****** ****** ****** ****** ****** ****** ****** ******
      ****** ****** ****** ****** ****** ****** ****** ****** ****** ******
      ****** ****** ****** ****** ****** ****** ****** ****** ****** ******
   9  ****** ****** ****** ****** ****** ****** ****** ****** ****** ******
      ****** ****** ****** ****** ****** ****** ****** ****** ****** ******
      ****** ****** ****** ****** ****** ****** ****** ****** ****** ******
  10  ****** ****** ****** ****** ****** ****** ****** ****** ****** ******
      ****** ****** ****** ****** ****** ****** ****** ****** ****** ******
      ****** ****** ****** ****** ****** ****** ****** ****** ****** ******
  11  ****** ****** ****** ****** ****** ****** ****** ****** ****** ******
      ****** ****** ****** ****** ****** ****** ****** ****** ****** ******
      ****** ****** ****** ****** ****** ****** ****** ****** ****** ******
  12  ****** ****** ****** ****** ****** ****** ****** ****** ****** ******
      ****** ****** ****** ****** ****** ****** ****** ****** ****** ******
      ****** ****** ****** ****** ****** ****** ****** ****** ****** ******
  13  ****** ****** ****** ****** ****** ****** ****** ****** ****** ******
      ****** ****** ****** ****** ****** ****** ****** ****** ****** ******
      ****** ****** ****** ****** ****** ****** ****** ****** ****** ******
  14  ****** ****** ****** ****** ****** ****** ****** ****** ****** ******
      ****** ****** ****** ****** ****** ****** ****** ****** ****** ******
      ****** ****** ****** ****** ****** ****** ****** ****** ****** ******
  15  ****** ****** ****** ****** ****** ****** ****** ****** ****** ******
      ****** ****** ****** ****** ****** ****** ****** ****** ****** ******
      ****** ****** ****** ****** ****** ****** ****** ****** ****** ******
  16  ****** ****** ****** ****** ****** ****** ****** ****** ****** ******
      ****** ****** ****** ****** ****** ****** ****** ****** ****** ******
      ****** ****** ****** ****** ****** ****** ****** ****** ****** ******
  17  ****** ****** ****** ****** ****** ****** ****** ****** ****** ******
      ****** ****** ****** ****** ****** ****** ****** ****** ****** ******
      ****** ****** ****** ****** ****** ****** ****** ****** ****** ******
  18  ****** ****** ****** ****** ****** ****** ****** ****** ****** ******
      ****** ****** ****** ****** ****** ****** ****** ****** ****** ******
      ****** ****** ****** ****** ****** ****** ****** ****** ****** ******
  19  ****** ****** ****** ****** ****** ****** ****** ****** ****** ******
      ****** ****** ****** ****** ****** ****** ****** ****** ****** ******
      ****** ****** ****** ****** ****** ****** ****** ****** ****** ******
  20  ****** ****** ****** ****** ****** ****** ****** ****** ****** ******
      ****** ****** ****** ****** ****** ****** ****** ****** ****** ******
      ****** ****** ****** ****** ****** ****** ****** ****** ****** ******
  21  ****** ****** ****** ****** ****** ****** ****** ****** ****** ******
      ****** ****** ****** ****** ****** ****** ****** ****** ****** ******
      ****** ****** ****** ****** ****** ****** ****** ****** ****** ******
  22  ****** ****** ****** ****** ****** ****** ****** ****** ****** ******
      ****** ****** ****** ****** ****** ****** ****** ****** ****** ******
      ****** ****** ****** ****** ****** ****** ****** ****** ****** ******
  23  ****** ****** ****** ****** ****** ****** ****** ****** ****** ******
      ****** ****** ****** ****** ****** ****** ****** ****** ****** ******
      ****** ****** ****** ****** ****** ****** ****** ****** ****** ******
  24  ****** ****** ****** ****** ****** ****** ****** ****** ****** ******
      ****** ****** ****** ****** ****** ****** ****** ****** ****** ******
      ****** ****** ****** ****** ****** ****** ****** ****** ****** ******
  25  ****** ****** ****** ****** ****** ****** ****** ****** ****** ******
      ****** ****** ****** ****** ****** ****** ****** ****** ****** ******
      ****** ****** ****** ****** ****** ****** ****** ****** ****** ******

 HEAD WILL BE SAVED ON UNIT   51 AT END OF TIME STEP    1, STRESS PERIOD    1
1
  VOLUMETRIC BUDGET FOR ENTIRE MODEL AT END OF TIME STEP    1, STRESS PERIOD   1
  ------------------------------------------------------------------------------

     CUMULATIVE VOLUMES      L**3       RATES FOR THIS TIME STEP      L**3/T
     ------------------                 ------------------------

           IN:                                      IN:
           ---                                      ---
             STORAGE =    19396539.1435               STORAGE =      210831.9472
       CONSTANT HEAD =   112927708.6764         CONSTANT HEAD =     1227475.0943
               WELLS =           0.0000                 WELLS =           0.0000
            RECHARGE =     1269600.0000              RECHARGE =       13800.0000
      STREAM LEAKAGE =           0.0000        STREAM LEAKAGE =           0.0000

            TOTAL IN =   133593847.8200              TOTAL IN =     1452107.0415

          OUT:                                     OUT:
          ----                                     ----
             STORAGE =           0.0000               STORAGE =           0.0000
       CONSTANT HEAD =           0.0000         CONSTANT HEAD =           0.0000
               WELLS =    14260046.0000                 WELLS =      155000.5000
            RECHARGE =           0.0000              RECHARGE =           0.0000
      STREAM LEAKAGE =   119333803.7008        STREAM LEAKAGE =     1297106.5620

           TOTAL OUT =   133593849.7008             TOTAL OUT =     1452107.0620

            IN - OUT =          -1.8808              IN - OUT =      -2.0444E-02

 PERCENT DISCREPANCY =          -0.00     PERCENT DISCREPANCY =          -0.00






         TIME SUMMARY AT END OF TIME STEP    1 IN STRESS PERIOD    1
                    SECONDS     MINUTES      HOURS       DAYS        YEARS
                    -----------------------------------------------------------
   TIME STEP LENGTH 7.94880E+06 1.32480E+05  2208.0      92.000     0.25188    
 STRESS PERIOD TIME 7.94880E+06 1.32480E+05  2208.0      92.000     0.25188    
         TOTAL TIME 7.94880E+06 1.32480E+05  2208.0      92.000     0.25188    
1
1
                            STRESS PERIOD NO.    2, LENGTH =   91.00000    
                            -----------------------------------------------

                              NUMBER OF TIME STEPS =     1

                               MULTIPLIER FOR DELT =     1.500

                            INITIAL TIME STEP SIZE =   91.00000    

 WELL NO.  LAYER   ROW   COL   STRESS RATE         
 --------------------------------------------------
      1      1      4      8     -0.5000E+05
      2      1      2      9     -0.5000E+05
      3      1      2      7     -0.5500E+05

      3 WELLS

                 RECHARGE =  2.000000E-03

 REUSING STREAM SEGMENT DATA FROM LAST STRESS PERIOD
 
 SOLVING FOR HEAD 


     6 CALLS TO PCG ROUTINE FOR TIME STEP   1 IN STRESS PERIOD    2
    25 TOTAL ITERATIONS

 OUTPUT CONTROL FOR STRESS PERIOD    2   TIME STEP    1
    SAVE BUDGET
    SAVE HEAD FOR ALL LAYERS
    PRINT HEAD FOR ALL LAYERS
 UBDSV2 SAVING "STREAMFLOW OUT  " ON UNIT  50 AT TIME STEP  1, STRESS PERIOD   2



 STREAM LISTING     PERIOD      2   STEP        1

 LAYER ROW COL. STREAM  RCH.  FLOW INTO     FLOW TO   FLOW OUT OF   OVRLND.     DIRECT     STREAM       STREAM     STREAM     STREAM   STREAMBED  STREAMBED
                SEG.NO.  NO.  STRM. RCH.    AQUIFER    STRM. RCH.    RUNOFF     PRECIP       ET          HEAD       DEPTH      WIDTH   CONDCTNC.   GRADIENT

   1   13    1     1     1    1.0000E+05 -2.6964E+04   1.2696E+05  0.000E+00  0.000E+00  0.000E+00  4.84174E+01  1.561E-01  2.000E+01  2.000E+04 -1.348E+00
   1   13    2     1     2    1.2696E+05 -3.6362E+04   1.6333E+05  0.000E+00  0.000E+00  0.000E+00  4.79650E+01  1.809E-01  2.000E+01  2.000E+04 -1.818E+00
   1   14    3     1     3    1.6333E+05 -3.2388E+04   1.9571E+05  0.000E+00  0.000E+00  0.000E+00  4.75123E+01  2.055E-01  2.000E+01  2.000E+04 -1.619E+00
   1   15    4     1     4    1.9571E+05 -3.1999E+04   2.2771E+05  0.000E+00  0.000E+00  0.000E+00  4.70564E+01  2.269E-01  2.000E+01  2.000E+04 -1.600E+00
   1   16    5     1     5    2.2771E+05 -3.3910E+04   2.6162E+05  0.000E+00  0.000E+00  0.000E+00  4.65997E+01  2.474E-01  2.000E+01  2.000E+04 -1.695E+00
   1   16    6     1     6    2.6162E+05 -2.9491E+04   2.9111E+05  0.000E+00  0.000E+00  0.000E+00  4.61412E+01  2.662E-01  2.000E+01  2.000E+04 -1.475E+00
   1   16    7     1     7    2.9111E+05 -2.9264E+04   3.2038E+05  0.000E+00  0.000E+00  0.000E+00  4.56806E+01  2.828E-01  2.000E+01  2.000E+04 -1.463E+00
   1   16    8     1     8    3.2038E+05 -2.9448E+04   3.4983E+05  0.000E+00  0.000E+00  0.000E+00  4.52193E+01  2.988E-01  2.000E+01  2.000E+04 -1.472E+00
   1   16    9     1     9    3.4983E+05 -2.9565E+04   3.7939E+05  0.000E+00  0.000E+00  0.000E+00  4.47575E+01  3.144E-01  2.000E+01  2.000E+04 -1.478E+00
   1   16   10     1    10    3.7939E+05 -2.9667E+04   4.0906E+05  0.000E+00  0.000E+00  0.000E+00  4.42953E+01  3.294E-01  2.000E+01  2.000E+04 -1.483E+00
   1   16   11     1    11    4.0906E+05 -3.0395E+04   4.3945E+05  0.000E+00  0.000E+00  0.000E+00  4.38329E+01  3.443E-01  2.000E+01  2.000E+04 -1.520E+00
   1   16   12     1    12    4.3945E+05 -3.6164E+04   4.7562E+05  0.000E+00  0.000E+00  0.000E+00  4.33716E+01  3.602E-01  2.000E+01  2.000E+04 -1.808E+00
   1   15   13     1    13    4.7562E+05 -3.4663E+04   5.1028E+05  0.000E+00  0.000E+00  0.000E+00  4.29108E+01  3.767E-01  2.000E+01  2.000E+04 -1.733E+00
   1   14   14     1    14    5.1028E+05 -3.5097E+04   5.4538E+05  0.000E+00  0.000E+00  0.000E+00  4.24493E+01  3.925E-01  2.000E+01  2.000E+04 -1.755E+00
   1   13   15     1    15    5.4538E+05 -3.7198E+04   5.8258E+05  0.000E+00  0.000E+00  0.000E+00  4.19879E+01  4.084E-01  2.000E+01  2.000E+04 -1.860E+00
   1   12   16     1    16    5.8258E+05 -4.3114E+04   6.2569E+05  0.000E+00  0.000E+00  0.000E+00  4.15279E+01  4.256E-01  2.000E+01  2.000E+04 -2.156E+00
   1   12   17     1    17    6.2569E+05 -3.4020E+04   6.5971E+05  0.000E+00  0.000E+00  0.000E+00  4.10667E+01  4.417E-01  2.000E+01  2.000E+04 -1.701E+00
   1   12   18     1    18    6.5971E+05 -3.2572E+04   6.9228E+05  0.000E+00  0.000E+00  0.000E+00  4.06030E+01  4.553E-01  2.000E+01  2.000E+04 -1.629E+00
   1   12   19     1    19    6.9228E+05 -3.6783E+04   7.2907E+05  0.000E+00  0.000E+00  0.000E+00  4.01396E+01  4.692E-01  2.000E+01  2.000E+04 -1.839E+00
   1   13   20     1    20    7.2907E+05 -2.7275E+04   7.5634E+05  0.000E+00  0.000E+00  0.000E+00  3.96749E+01  4.817E-01  2.000E+01  2.000E+04 -1.364E+00
   1   14   21     1    21    7.5634E+05 -2.0233E+04   7.7657E+05  0.000E+00  0.000E+00  0.000E+00  3.92068E+01  4.909E-01  2.000E+01  2.000E+04 -1.012E+00
   1   14   22     1    22    7.7657E+05 -1.9611E+03   7.7853E+05  0.000E+00  0.000E+00  0.000E+00  3.87338E+01  4.952E-01  2.000E+01  2.000E+04 -9.806E-02
   1    9   30     2     1    5.0000E+04 -2.6996E+04   7.6996E+04  0.000E+00  0.000E+00  0.000E+00  4.02587E+01  1.337E-01  2.000E+01  2.000E+04 -1.350E+00
   1    9   29     2     2    7.6996E+04 -2.9460E+04   1.0646E+05  0.000E+00  0.000E+00  0.000E+00  4.00418E+01  1.668E-01  2.000E+01  2.000E+04 -1.473E+00
   1    9   28     2     3    1.0646E+05 -3.3754E+04   1.4021E+05  0.000E+00  0.000E+00  0.000E+00  3.98242E+01  1.992E-01  2.000E+01  2.000E+04 -1.688E+00
   1    9   27     2     4    1.4021E+05 -4.7957E+04   1.8817E+05  0.000E+00  0.000E+00  0.000E+00  3.96115E+01  2.365E-01  2.000E+01  2.000E+04 -2.398E+00
   1   10   26     2     5    1.8817E+05 -3.3947E+04   2.2211E+05  0.000E+00  0.000E+00  0.000E+00  3.93953E+01  2.703E-01  2.000E+01  2.000E+04 -1.697E+00
   1   11   25     2     6    2.2211E+05 -2.5574E+04   2.4769E+05  0.000E+00  0.000E+00  0.000E+00  3.91682E+01  2.932E-01  2.000E+01  2.000E+04 -1.279E+00
   1   12   24     2     7    2.4769E+05 -1.8947E+04   2.6663E+05  0.000E+00  0.000E+00  0.000E+00  3.89345E+01  3.095E-01  2.000E+01  2.000E+04 -9.474E-01
   1   13   23     2     8    2.6663E+05 -1.3519E+04   2.8015E+05  0.000E+00  0.000E+00  0.000E+00  3.86961E+01  3.211E-01  2.000E+01  2.000E+04 -6.759E-01
   1   14   22     2     9    2.8015E+05 -7.5679E+03   2.8772E+05  0.000E+00  0.000E+00  0.000E+00  3.84535E+01  3.285E-01  2.000E+01  2.000E+04 -3.784E-01
   1   14   22     3     1    1.0663E+06 -1.5551E+04   1.0818E+06  0.000E+00  0.000E+00  0.000E+00  3.80543E+01  4.988E-01  2.000E+01  2.000E+04 -7.775E-01
   1   15   23     3     2    1.0818E+06 -2.4216E+04   1.1060E+06  0.000E+00  0.000E+00  0.000E+00  3.71710E+01  5.043E-01  2.000E+01  2.000E+04 -1.211E+00
   1   15   24     3     3    1.1060E+06 -2.0149E+04   1.1262E+06  0.000E+00  0.000E+00  0.000E+00  3.62882E+01  5.104E-01  2.000E+01  2.000E+04 -1.007E+00
   1   15   25     3     4    1.1262E+06 -1.9738E+04   1.1459E+06  0.000E+00  0.000E+00  0.000E+00  3.54048E+01  5.159E-01  2.000E+01  2.000E+04 -9.869E-01
   1   15   26     3     5    1.1459E+06 -2.2558E+04   1.1685E+06  0.000E+00  0.000E+00  0.000E+00  3.45216E+01  5.216E-01  2.000E+01  2.000E+04 -1.128E+00
   1   16   27     3     6    1.1685E+06 -2.9838E+04   1.1983E+06  0.000E+00  0.000E+00  0.000E+00  3.36398E+01  5.287E-01  2.000E+01  2.000E+04 -1.492E+00
   1   17   28     3     7    1.1983E+06 -3.6912E+04   1.2352E+06  0.000E+00  0.000E+00  0.000E+00  3.27598E+01  5.376E-01  2.000E+01  2.000E+04 -1.846E+00
   1   18   29     3     8    1.2352E+06 -4.7866E+04   1.2831E+06  0.000E+00  0.000E+00  0.000E+00  3.18820E+01  5.487E-01  2.000E+01  2.000E+04 -2.393E+00
   1   18   30     3     9    1.2831E+06 -4.4193E+04   1.3273E+06  0.000E+00  0.000E+00  0.000E+00  3.10051E+01  5.607E-01  2.000E+01  2.000E+04 -2.210E+00



1
              HEAD IN LAYER   1 AT END OF TIME STEP   1 IN STRESS PERIOD    2
  ---------------------------------------------------------------------------

          1      2      3      4      5      6      7      8      9     10
         11     12     13     14     15     16     17     18     19     20
         21     22     23     24     25     26     27     28     29     30
 .........................................................................
   1  ****** ****** ****** ****** ****** ****** ****** ****** ****** ******
      ****** ****** ****** ****** ****** ****** ****** ****** ****** ******
      ****** ****** ****** ****** ****** ****** ****** ****** ****** ******
   2  ****** ****** ****** ****** ****** ****** ****** ****** ****** ******
      ****** ****** ****** ****** ****** ****** ****** ****** ****** ******
      ****** ****** ****** ****** ****** ****** ****** ****** ****** ******
   3  ****** ****** ****** ****** ****** ****** ****** ****** ****** ******
      ****** ****** ****** ****** ****** ****** ****** ****** ****** ******
      ****** ****** ****** ****** ****** ****** ****** ****** ****** ******
   4  ****** ****** ****** ****** ****** ****** ****** ****** ****** ******
      ****** ****** ****** ****** ****** ****** ****** ****** ****** ******
      ****** ****** ****** ****** ****** ****** ****** ****** ****** ******
   5  ****** ****** ****** ****** ****** ****** ****** ****** ****** ******
      ****** ****** ****** ****** ****** ****** ****** ****** ****** ******
      ****** ****** ****** ****** ****** ****** ****** ****** ****** ******
   6  ****** ****** ****** ****** ****** ****** ****** ****** ****** ******
      ****** ****** ****** ****** ****** ****** ****** ****** ****** ******
      ****** ****** ****** ****** ****** ****** ****** ****** ****** ******
   7  ****** ****** ****** ****** ****** ****** ****** ****** ****** ******
      ****** ****** ****** ****** ****** ****** ****** ****** ****** ******
      ****** ****** ****** ****** ****** ****** ****** ****** ****** ******
   8  ****** ****** ****** ****** ****** ****** ****** ****** ****** ******
      ****** ****** ****** ****** ****** ****** ****** ****** ****** ******
      ****** ****** ****** ****** ****** ****** ****** ****** ****** ******
   9  ****** ****** ****** ****** ****** ****** ****** ****** ****** ******
      ****** ****** ****** ****** ****** ****** ****** ****** ****** ******
      ****** ****** ****** ****** ****** ****** ****** ****** ****** ******
  10  ****** ****** ****** ****** ****** ****** ****** ****** ****** ******
      ****** ****** ****** ****** ****** ****** ****** ****** ****** ******
      ****** ****** ****** ****** ****** ****** ****** ****** ****** ******
  11  ****** ****** ****** ****** ****** ****** ****** ****** ****** ******
      ****** ****** ****** ****** ****** ****** ****** ****** ****** ******
      ****** ****** ****** ****** ****** ****** ****** ****** ****** ******
  12  ****** ****** ****** ****** ****** ****** ****** ****** ****** ******
      ****** ****** ****** ****** ****** ****** ****** ****** ****** ******
      ****** ****** ****** ****** ****** ****** ****** ****** ****** ******
  13  ****** ****** ****** ****** ****** ****** ****** ****** ****** ******
      ****** ****** ****** ****** ****** ****** ****** ****** ****** ******
      ****** ****** ****** ****** ****** ****** ****** ****** ****** ******
  14  ****** ****** ****** ****** ****** ****** ****** ****** ****** ******
      ****** ****** ****** ****** ****** ****** ****** ****** ****** ******
      ****** ****** ****** ****** ****** ****** ****** ****** ****** ******
  15  ****** ****** ****** ****** ****** ****** ****** ****** ****** ******
      ****** ****** ****** ****** ****** ****** ****** ****** ****** ******
      ****** ****** ****** ****** ****** ****** ****** ****** ****** ******
  16  ****** ****** ****** ****** ****** ****** ****** ****** ****** ******
      ****** ****** ****** ****** ****** ****** ****** ****** ****** ******
      ****** ****** ****** ****** ****** ****** ****** ****** ****** ******
  17  ****** ****** ****** ****** ****** ****** ****** ****** ****** ******
      ****** ****** ****** ****** ****** ****** ****** ****** ****** ******
      ****** ****** ****** ****** ****** ****** ****** ****** ****** ******
  18  ****** ****** ****** ****** ****** ****** ****** ****** ****** ******
      ****** ****** ****** ****** ****** ****** ****** ****** ****** ******
      ****** ****** ****** ****** ****** ****** ****** ****** ****** ******
  19  ****** ****** ****** ****** ****** ****** ****** ****** ****** ******
      ****** ****** ****** ****** ****** ****** ****** ****** ****** ******
      ****** ****** ****** ****** ****** ****** ****** ****** ****** ******
  20  ****** ****** ****** ****** ****** ****** ****** ****** ****** ******
      ****** ****** ****** ****** ****** ****** ****** ****** ****** ******
      ****** ****** ****** ****** ****** ****** ****** ****** ****** ******
  21  ****** ****** ****** ****** ****** ****** ****** ****** ****** ******
      ****** ****** ****** ****** ****** ****** ****** ****** ****** ******
      ****** ****** ****** ****** ****** ****** ****** ****** ****** ******
  22  ****** ****** ****** ****** ****** ****** ****** ****** ****** ******
      ****** ****** ****** ****** ****** ****** ****** ****** ****** ******
      ****** ****** ****** ****** ****** ****** ****** ****** ****** ******
  23  ****** ****** ****** ****** ****** ****** ****** ****** ****** ******
      ****** ****** ****** ****** ****** ****** ****** ****** ****** ******
      ****** ****** ****** ****** ****** ****** ****** ****** ****** ******
  24  ****** ****** ****** ****** ****** ****** ****** ****** ****** ******
      ****** ****** ****** ****** ****** ****** ****** ****** ****** ******
      ****** ****** ****** ****** ****** ****** ****** ****** ****** ******
  25  ****** ****** ****** ****** ****** ****** ****** ****** ****** ******
      ****** ****** ****** ****** ****** ****** ****** ****** ****** ******
      ****** ****** ****** ****** ****** ****** ****** ****** ****** ******

 HEAD WILL BE SAVED ON UNIT   51 AT END OF TIME STEP    1, STRESS PERIOD    2
1
  VOLUMETRIC BUDGET FOR ENTIRE MODEL AT END OF TIME STEP    1, STRESS PERIOD   2
  ------------------------------------------------------------------------------

     CUMULATIVE VOLUMES      L**3       RATES FOR THIS TIME STEP      L**3/T
     ------------------                 ------------------------

           IN:                                      IN:
           ---                                      ---
             STORAGE =    20097351.0036               STORAGE =        7701.2292
       CONSTANT HEAD =   228440639.5054         CONSTANT HEAD =     1269372.8663
               WELLS =           0.0000                 WELLS =           0.0000
            RECHARGE =     6292800.0000              RECHARGE =       55200.0000
      STREAM LEAKAGE =           0.0000        STREAM LEAKAGE =           0.0000

            TOTAL IN =   254830790.5090              TOTAL IN =     1332274.0955

          OUT:                                     OUT:
          ----                                     ----
             STORAGE =           0.0000               STORAGE =           0.0000
       CONSTANT HEAD =           0.0000         CONSTANT HEAD =           0.0000
               WELLS =    28365091.5000                 WELLS =      155000.5000
            RECHARGE =           0.0000              RECHARGE =           0.0000
      STREAM LEAKAGE =   226465702.5658        STREAM LEAKAGE =     1177273.6139

           TOTAL OUT =   254830794.0658             TOTAL OUT =     1332274.1139

            IN - OUT =          -3.5568              IN - OUT =      -1.8418E-02

 PERCENT DISCREPANCY =          -0.00     PERCENT DISCREPANCY =          -0.00






         TIME SUMMARY AT END OF TIME STEP    1 IN STRESS PERIOD    2
                    SECONDS     MINUTES      HOURS       DAYS        YEARS
                    -----------------------------------------------------------
   TIME STEP LENGTH 7.86240E+06 1.31040E+05  2184.0      91.000     0.24914    
 STRESS PERIOD TIME 7.86240E+06 1.31040E+05  2184.0      91.000     0.24914    
         TOTAL TIME 1.58112E+07 2.63520E+05  4392.0      183.00     0.50103    
1
1
                            STRESS PERIOD NO.    3, LENGTH =   91.00000    
                            -----------------------------------------------

                              NUMBER OF TIME STEPS =     1

                               MULTIPLIER FOR DELT =     1.500

                            INITIAL TIME STEP SIZE =   91.00000    

 WELL NO.  LAYER   ROW   COL   STRESS RATE         
 --------------------------------------------------
      1      1      4      8     -0.5000E+05
      2      1      2      9     -0.5000E+05
      3      1      2      7     -0.5500E+05

      3 WELLS

                 RECHARGE =   0.00000    

 REUSING STREAM SEGMENT DATA FROM LAST STRESS PERIOD
 
 SOLVING FOR HEAD 


     6 CALLS TO PCG ROUTINE FOR TIME STEP   1 IN STRESS PERIOD    3
    23 TOTAL ITERATIONS

 OUTPUT CONTROL FOR STRESS PERIOD    3   TIME STEP    1
    SAVE BUDGET
    SAVE HEAD FOR ALL LAYERS
    PRINT HEAD FOR ALL LAYERS
 UBDSV2 SAVING "STREAMFLOW OUT  " ON UNIT  50 AT TIME STEP  1, STRESS PERIOD   3



 STREAM LISTING     PERIOD      3   STEP        1

 LAYER ROW COL. STREAM  RCH.  FLOW INTO     FLOW TO   FLOW OUT OF   OVRLND.     DIRECT     STREAM       STREAM     STREAM     STREAM   STREAMBED  STREAMBED
                SEG.NO.  NO.  STRM. RCH.    AQUIFER    STRM. RCH.    RUNOFF     PRECIP       ET          HEAD       DEPTH      WIDTH   CONDCTNC.   GRADIENT

   1   13    1     1     1    1.0000E+05 -2.5918E+04   1.2592E+05  0.000E+00  0.000E+00  0.000E+00  4.84170E+01  1.556E-01  2.000E+01  2.000E+04 -1.296E+00
   1   13    2     1     2    1.2592E+05 -3.5103E+04   1.6102E+05  0.000E+00  0.000E+00  0.000E+00  4.79637E+01  1.796E-01  2.000E+01  2.000E+04 -1.755E+00
   1   14    3     1     3    1.6102E+05 -3.1175E+04   1.9220E+05  0.000E+00  0.000E+00  0.000E+00  4.75103E+01  2.035E-01  2.000E+01  2.000E+04 -1.559E+00
   1   15    4     1     4    1.9220E+05 -3.0847E+04   2.2304E+05  0.000E+00  0.000E+00  0.000E+00  4.70538E+01  2.242E-01  2.000E+01  2.000E+04 -1.542E+00
   1   16    5     1     5    2.2304E+05 -3.2885E+04   2.5593E+05  0.000E+00  0.000E+00  0.000E+00  4.65966E+01  2.443E-01  2.000E+01  2.000E+04 -1.644E+00
   1   16    6     1     6    2.5593E+05 -2.8596E+04   2.8452E+05  0.000E+00  0.000E+00  0.000E+00  4.61376E+01  2.626E-01  2.000E+01  2.000E+04 -1.430E+00
   1   16    7     1     7    2.8452E+05 -2.8375E+04   3.1290E+05  0.000E+00  0.000E+00  0.000E+00  4.56766E+01  2.789E-01  2.000E+01  2.000E+04 -1.419E+00
   1   16    8     1     8    3.1290E+05 -2.8554E+04   3.4145E+05  0.000E+00  0.000E+00  0.000E+00  4.52150E+01  2.946E-01  2.000E+01  2.000E+04 -1.428E+00
   1   16    9     1     9    3.4145E+05 -2.8672E+04   3.7012E+05  0.000E+00  0.000E+00  0.000E+00  4.47530E+01  3.098E-01  2.000E+01  2.000E+04 -1.434E+00
   1   16   10     1    10    3.7012E+05 -2.8777E+04   3.9890E+05  0.000E+00  0.000E+00  0.000E+00  4.42905E+01  3.245E-01  2.000E+01  2.000E+04 -1.439E+00
   1   16   11     1    11    3.9890E+05 -2.9495E+04   4.2840E+05  0.000E+00  0.000E+00  0.000E+00  4.38277E+01  3.391E-01  2.000E+01  2.000E+04 -1.475E+00
   1   16   12     1    12    4.2840E+05 -3.5119E+04   4.6352E+05  0.000E+00  0.000E+00  0.000E+00  4.33661E+01  3.547E-01  2.000E+01  2.000E+04 -1.756E+00
   1   15   13     1    13    4.6352E+05 -3.3494E+04   4.9701E+05  0.000E+00  0.000E+00  0.000E+00  4.29050E+01  3.709E-01  2.000E+01  2.000E+04 -1.675E+00
   1   14   14     1    14    4.9701E+05 -3.3882E+04   5.3089E+05  0.000E+00  0.000E+00  0.000E+00  4.24431E+01  3.863E-01  2.000E+01  2.000E+04 -1.694E+00
   1   13   15     1    15    5.3089E+05 -3.5988E+04   5.6688E+05  0.000E+00  0.000E+00  0.000E+00  4.19813E+01  4.018E-01  2.000E+01  2.000E+04 -1.799E+00
   1   12   16     1    16    5.6688E+05 -4.1941E+04   6.0882E+05  0.000E+00  0.000E+00  0.000E+00  4.15210E+01  4.187E-01  2.000E+01  2.000E+04 -2.097E+00
   1   12   17     1    17    6.0882E+05 -3.3088E+04   6.4191E+05  0.000E+00  0.000E+00  0.000E+00  4.10595E+01  4.345E-01  2.000E+01  2.000E+04 -1.654E+00
   1   12   18     1    18    6.4191E+05 -3.1689E+04   6.7360E+05  0.000E+00  0.000E+00  0.000E+00  4.05956E+01  4.479E-01  2.000E+01  2.000E+04 -1.584E+00
   1   12   19     1    19    6.7360E+05 -3.5822E+04   7.0942E+05  0.000E+00  0.000E+00  0.000E+00  4.01320E+01  4.615E-01  2.000E+01  2.000E+04 -1.791E+00
   1   13   20     1    20    7.0942E+05 -2.6387E+04   7.3581E+05  0.000E+00  0.000E+00  0.000E+00  3.96671E+01  4.739E-01  2.000E+01  2.000E+04 -1.319E+00
   1   14   21     1    21    7.3581E+05 -1.9472E+04   7.5528E+05  0.000E+00  0.000E+00  0.000E+00  3.91988E+01  4.828E-01  2.000E+01  2.000E+04 -9.736E-01
   1   14   22     1    22    7.5528E+05 -1.6999E+03   7.5698E+05  0.000E+00  0.000E+00  0.000E+00  3.87256E+01  4.869E-01  2.000E+01  2.000E+04 -8.499E-02
   1    9   30     2     1    5.0000E+04 -2.6328E+04   7.6328E+04  0.000E+00  0.000E+00  0.000E+00  4.02583E+01  1.333E-01  2.000E+01  2.000E+04 -1.316E+00
   1    9   29     2     2    7.6328E+04 -2.8791E+04   1.0512E+05  0.000E+00  0.000E+00  0.000E+00  4.00407E+01  1.657E-01  2.000E+01  2.000E+04 -1.440E+00
   1    9   28     2     3    1.0512E+05 -3.3061E+04   1.3818E+05  0.000E+00  0.000E+00  0.000E+00  3.98225E+01  1.975E-01  2.000E+01  2.000E+04 -1.653E+00
   1    9   27     2     4    1.3818E+05 -4.7102E+04   1.8528E+05  0.000E+00  0.000E+00  0.000E+00  3.96093E+01  2.343E-01  2.000E+01  2.000E+04 -2.355E+00
   1   10   26     2     5    1.8528E+05 -3.3056E+04   2.1834E+05  0.000E+00  0.000E+00  0.000E+00  3.93926E+01  2.676E-01  2.000E+01  2.000E+04 -1.653E+00
   1   11   25     2     6    2.1834E+05 -2.4714E+04   2.4305E+05  0.000E+00  0.000E+00  0.000E+00  3.91650E+01  2.900E-01  2.000E+01  2.000E+04 -1.236E+00
   1   12   24     2     7    2.4305E+05 -1.8180E+04   2.6123E+05  0.000E+00  0.000E+00  0.000E+00  3.89309E+01  3.059E-01  2.000E+01  2.000E+04 -9.090E-01
   1   13   23     2     8    2.6123E+05 -1.2898E+04   2.7413E+05  0.000E+00  0.000E+00  0.000E+00  3.86921E+01  3.171E-01  2.000E+01  2.000E+04 -6.449E-01
   1   14   22     2     9    2.7413E+05 -7.2283E+03   2.8136E+05  0.000E+00  0.000E+00  0.000E+00  3.84492E+01  3.242E-01  2.000E+01  2.000E+04 -3.614E-01
   1   14   22     3     1    1.0383E+06 -1.5282E+04   1.0536E+06  0.000E+00  0.000E+00  0.000E+00  3.80465E+01  4.909E-01  2.000E+01  2.000E+04 -7.641E-01
   1   15   23     3     2    1.0536E+06 -2.3514E+04   1.0771E+06  0.000E+00  0.000E+00  0.000E+00  3.71630E+01  4.964E-01  2.000E+01  2.000E+04 -1.176E+00
   1   15   24     3     3    1.0771E+06 -1.9575E+04   1.0967E+06  0.000E+00  0.000E+00  0.000E+00  3.62801E+01  5.024E-01  2.000E+01  2.000E+04 -9.787E-01
   1   15   25     3     4    1.0967E+06 -1.9169E+04   1.1159E+06  0.000E+00  0.000E+00  0.000E+00  3.53966E+01  5.077E-01  2.000E+01  2.000E+04 -9.584E-01
   1   15   26     3     5    1.1159E+06 -2.1893E+04   1.1378E+06  0.000E+00  0.000E+00  0.000E+00  3.45133E+01  5.133E-01  2.000E+01  2.000E+04 -1.095E+00
   1   16   27     3     6    1.1378E+06 -2.9032E+04   1.1668E+06  0.000E+00  0.000E+00  0.000E+00  3.36314E+01  5.203E-01  2.000E+01  2.000E+04 -1.452E+00
   1   17   28     3     7    1.1668E+06 -3.6089E+04   1.2029E+06  0.000E+00  0.000E+00  0.000E+00  3.27513E+01  5.291E-01  2.000E+01  2.000E+04 -1.804E+00
   1   18   29     3     8    1.2029E+06 -4.7098E+04   1.2500E+06  0.000E+00  0.000E+00  0.000E+00  3.18734E+01  5.401E-01  2.000E+01  2.000E+04 -2.355E+00
   1   18   30     3     9    1.2500E+06 -4.3554E+04   1.2935E+06  0.000E+00  0.000E+00  0.000E+00  3.09965E+01  5.520E-01  2.000E+01  2.000E+04 -2.178E+00



1
              HEAD IN LAYER   1 AT END OF TIME STEP   1 IN STRESS PERIOD    3
  ---------------------------------------------------------------------------

          1      2      3      4      5      6      7      8      9     10
         11     12     13     14     15     16     17     18     19     20
         21     22     23     24     25     26     27     28     29     30
 .........................................................................
   1  ****** ****** ****** ****** ****** ****** ****** ****** ****** ******
      ****** ****** ****** ****** ****** ****** ****** ****** ****** ******
      ****** ****** ****** ****** ****** ****** ****** ****** ****** ******
   2  ****** ****** ****** ****** ****** ****** ****** ****** ****** ******
      ****** ****** ****** ****** ****** ****** ****** ****** ****** ******
      ****** ****** ****** ****** ****** ****** ****** ****** ****** ******
   3  ****** ****** ****** ****** ****** ****** ****** ****** ****** ******
      ****** ****** ****** ****** ****** ****** ****** ****** ****** ******
      ****** ****** ****** ****** ****** ****** ****** ****** ****** ******
   4  ****** ****** ****** ****** ****** ****** ****** ****** ****** ******
      ****** ****** ****** ****** ****** ****** ****** ****** ****** ******
      ****** ****** ****** ****** ****** ****** ****** ****** ****** ******
   5  ****** ****** ****** ****** ****** ****** ****** ****** ****** ******
      ****** ****** ****** ****** ****** ****** ****** ****** ****** ******
      ****** ****** ****** ****** ****** ****** ****** ****** ****** ******
   6  ****** ****** ****** ****** ****** ****** ****** ****** ****** ******
      ****** ****** ****** ****** ****** ****** ****** ****** ****** ******
      ****** ****** ****** ****** ****** ****** ****** ****** ****** ******
   7  ****** ****** ****** ****** ****** ****** ****** ****** ****** ******
      ****** ****** ****** ****** ****** ****** ****** ****** ****** ******
      ****** ****** ****** ****** ****** ****** ****** ****** ****** ******
   8  ****** ****** ****** ****** ****** ****** ****** ****** ****** ******
      ****** ****** ****** ****** ****** ****** ****** ****** ****** ******
      ****** ****** ****** ****** ****** ****** ****** ****** ****** ******
   9  ****** ****** ****** ****** ****** ****** ****** ****** ****** ******
      ****** ****** ****** ****** ****** ****** ****** ****** ****** ******
      ****** ****** ****** ****** ****** ****** ****** ****** ****** ******
  10  ****** ****** ****** ****** ****** ****** ****** ****** ****** ******
      ****** ****** ****** ****** ****** ****** ****** ****** ****** ******
      ****** ****** ****** ****** ****** ****** ****** ****** ****** ******
  11  ****** ****** ****** ****** ****** ****** ****** ****** ****** ******
      ****** ****** ****** ****** ****** ****** ****** ****** ****** ******
      ****** ****** ****** ****** ****** ****** ****** ****** ****** ******
  12  ****** ****** ****** ****** ****** ****** ****** ****** ****** ******
      ****** ****** ****** ****** ****** ****** ****** ****** ****** ******
      ****** ****** ****** ****** ****** ****** ****** ****** ****** ******
  13  ****** ****** ****** ****** ****** ****** ****** ****** ****** ******
      ****** ****** ****** ****** ****** ****** ****** ****** ****** ******
      ****** ****** ****** ****** ****** ****** ****** ****** ****** ******
  14  ****** ****** ****** ****** ****** ****** ****** ****** ****** ******
      ****** ****** ****** ****** ****** ****** ****** ****** ****** ******
      ****** ****** ****** ****** ****** ****** ****** ****** ****** ******
  15  ****** ****** ****** ****** ****** ****** ****** ****** ****** ******
      ****** ****** ****** ****** ****** ****** ****** ****** ****** ******
      ****** ****** ****** ****** ****** ****** ****** ****** ****** ******
  16  ****** ****** ****** ****** ****** ****** ****** ****** ****** ******
      ****** ****** ****** ****** ****** ****** ****** ****** ****** ******
      ****** ****** ****** ****** ****** ****** ****** ****** ****** ******
  17  ****** ****** ****** ****** ****** ****** ****** ****** ****** ******
      ****** ****** ****** ****** ****** ****** ****** ****** ****** ******
      ****** ****** ****** ****** ****** ****** ****** ****** ****** ******
  18  ****** ****** ****** ****** ****** ****** ****** ****** ****** ******
      ****** ****** ****** ****** ****** ****** ****** ****** ****** ******
      ****** ****** ****** ****** ****** ****** ****** ****** ****** ******
  19  ****** ****** ****** ****** ****** ****** ****** ****** ****** ******
      ****** ****** ****** ****** ****** ****** ****** ****** ****** ******
      ****** ****** ****** ****** ****** ****** ****** ****** ****** ******
  20  ****** ****** ****** ****** ****** ****** ****** ****** ****** ******
      ****** ****** ****** ****** ****** ****** ****** ****** ****** ******
      ****** ****** ****** ****** ****** ****** ****** ****** ****** ******
  21  ****** ****** ****** ****** ****** ****** ****** ****** ****** ******
      ****** ****** ****** ****** ****** ****** ****** ****** ****** ******
      ****** ****** ****** ****** ****** ****** ****** ****** ****** ******
  22  ****** ****** ****** ****** ****** ****** ****** ****** ****** ******
      ****** ****** ****** ****** ****** ****** ****** ****** ****** ******
      ****** ****** ****** ****** ****** ****** ****** ****** ****** ******
  23  ****** ****** ****** ****** ****** ****** ****** ****** ****** ******
      ****** ****** ****** ****** ****** ****** ****** ****** ****** ******
      ****** ****** ****** ****** ****** ****** ****** ****** ****** ******
  24  ****** ****** ****** ****** ****** ****** ****** ****** ****** ******
      ****** ****** ****** ****** ****** ****** ****** ****** ****** ******
      ****** ****** ****** ****** ****** ****** ****** ****** ****** ******
  25  ****** ****** ****** ****** ****** ****** ****** ****** ****** ******
      ****** ****** ****** ****** ****** ****** ****** ****** ****** ******
      ****** ****** ****** ****** ****** ****** ****** ****** ****** ******

 HEAD WILL BE SAVED ON UNIT   51 AT END OF TIME STEP    1, STRESS PERIOD    3
1
  VOLUMETRIC BUDGET FOR ENTIRE MODEL AT END OF TIME STEP    1, STRESS PERIOD   3
  ------------------------------------------------------------------------------

     CUMULATIVE VOLUMES      L**3       RATES FOR THIS TIME STEP      L**3/T
     ------------------                 ------------------------

           IN:                                      IN:
           ---                                      ---
             STORAGE =    20376946.0567               STORAGE =        3072.4731
       CONSTANT HEAD =   346328325.4056         CONSTANT HEAD =     1295469.0758
               WELLS =           0.0000                 WELLS =           0.0000
            RECHARGE =     6292800.0000              RECHARGE =           0.0000
      STREAM LEAKAGE =           0.0000        STREAM LEAKAGE =           0.0000

            TOTAL IN =   372998071.4622              TOTAL IN =     1298541.5489

          OUT:                                     OUT:
          ----                                     ----
             STORAGE =           0.0000               STORAGE =           0.0000
       CONSTANT HEAD =           0.0000         CONSTANT HEAD =           0.0000
               WELLS =    42470137.0000                 WELLS =      155000.5000
            RECHARGE =           0.0000              RECHARGE =           0.0000
      STREAM LEAKAGE =   330527941.9988        STREAM LEAKAGE =     1143541.0927

           TOTAL OUT =   372998078.9988             TOTAL OUT =     1298541.5927

            IN - OUT =          -7.5366              IN - OUT =      -4.3734E-02

 PERCENT DISCREPANCY =          -0.00     PERCENT DISCREPANCY =          -0.00






         TIME SUMMARY AT END OF TIME STEP    1 IN STRESS PERIOD    3
                    SECONDS     MINUTES      HOURS       DAYS        YEARS
                    -----------------------------------------------------------
   TIME STEP LENGTH 7.86240E+06 1.31040E+05  2184.0      91.000     0.24914    
 STRESS PERIOD TIME 7.86240E+06 1.31040E+05  2184.0      91.000     0.24914    
         TOTAL TIME 2.36736E+07 3.94560E+05  6576.0      274.00     0.75017    
1
1
                            STRESS PERIOD NO.    4, LENGTH =   91.00000    
                            -----------------------------------------------

                              NUMBER OF TIME STEPS =     1

                               MULTIPLIER FOR DELT =     1.500

                            INITIAL TIME STEP SIZE =   91.00000    

 WELL NO.  LAYER   ROW   COL   STRESS RATE         
 --------------------------------------------------
      1      1      4      8     -0.5000E+05
      2      1      2      9     -0.5000E+05
      3      1      2      7     -0.5500E+05

      3 WELLS

                 RECHARGE =  1.000000E-03

 REUSING STREAM SEGMENT DATA FROM LAST STRESS PERIOD
 
 SOLVING FOR HEAD 


     6 CALLS TO PCG ROUTINE FOR TIME STEP   1 IN STRESS PERIOD    4
    22 TOTAL ITERATIONS

 OUTPUT CONTROL FOR STRESS PERIOD    4   TIME STEP    1
    SAVE BUDGET
    SAVE HEAD FOR ALL LAYERS
    PRINT HEAD FOR ALL LAYERS
 UBDSV2 SAVING "STREAMFLOW OUT  " ON UNIT  50 AT TIME STEP  1, STRESS PERIOD   4



 STREAM LISTING     PERIOD      4   STEP        1

 LAYER ROW COL. STREAM  RCH.  FLOW INTO     FLOW TO   FLOW OUT OF   OVRLND.     DIRECT     STREAM       STREAM     STREAM     STREAM   STREAMBED  STREAMBED
                SEG.NO.  NO.  STRM. RCH.    AQUIFER    STRM. RCH.    RUNOFF     PRECIP       ET          HEAD       DEPTH      WIDTH   CONDCTNC.   GRADIENT

   1   13    1     1     1    1.0000E+05 -2.6297E+04   1.2630E+05  0.000E+00  0.000E+00  0.000E+00  4.84171E+01  1.558E-01  2.000E+01  2.000E+04 -1.315E+00
   1   13    2     1     2    1.2630E+05 -3.5553E+04   1.6185E+05  0.000E+00  0.000E+00  0.000E+00  4.79642E+01  1.801E-01  2.000E+01  2.000E+04 -1.778E+00
   1   14    3     1     3    1.6185E+05 -3.1622E+04   1.9347E+05  0.000E+00  0.000E+00  0.000E+00  4.75110E+01  2.042E-01  2.000E+01  2.000E+04 -1.581E+00
   1   15    4     1     4    1.9347E+05 -3.1281E+04   2.2475E+05  0.000E+00  0.000E+00  0.000E+00  4.70547E+01  2.252E-01  2.000E+01  2.000E+04 -1.564E+00
   1   16    5     1     5    2.2475E+05 -3.3282E+04   2.5804E+05  0.000E+00  0.000E+00  0.000E+00  4.65977E+01  2.454E-01  2.000E+01  2.000E+04 -1.664E+00
   1   16    6     1     6    2.5804E+05 -2.8939E+04   2.8697E+05  0.000E+00  0.000E+00  0.000E+00  4.61390E+01  2.640E-01  2.000E+01  2.000E+04 -1.447E+00
   1   16    7     1     7    2.8697E+05 -2.8714E+04   3.1569E+05  0.000E+00  0.000E+00  0.000E+00  4.56781E+01  2.804E-01  2.000E+01  2.000E+04 -1.436E+00
   1   16    8     1     8    3.1569E+05 -2.8894E+04   3.4458E+05  0.000E+00  0.000E+00  0.000E+00  4.52166E+01  2.962E-01  2.000E+01  2.000E+04 -1.445E+00
   1   16    9     1     9    3.4458E+05 -2.9012E+04   3.7359E+05  0.000E+00  0.000E+00  0.000E+00  4.47547E+01  3.115E-01  2.000E+01  2.000E+04 -1.451E+00
   1   16   10     1    10    3.7359E+05 -2.9116E+04   4.0271E+05  0.000E+00  0.000E+00  0.000E+00  4.42923E+01  3.264E-01  2.000E+01  2.000E+04 -1.456E+00
   1   16   11     1    11    4.0271E+05 -2.9839E+04   4.3255E+05  0.000E+00  0.000E+00  0.000E+00  4.38297E+01  3.410E-01  2.000E+01  2.000E+04 -1.492E+00
   1   16   12     1    12    4.3255E+05 -3.5522E+04   4.6807E+05  0.000E+00  0.000E+00  0.000E+00  4.33682E+01  3.568E-01  2.000E+01  2.000E+04 -1.776E+00
   1   15   13     1    13    4.6807E+05 -3.3935E+04   5.0201E+05  0.000E+00  0.000E+00  0.000E+00  4.29072E+01  3.731E-01  2.000E+01  2.000E+04 -1.697E+00
   1   14   14     1    14    5.0201E+05 -3.4335E+04   5.3634E+05  0.000E+00  0.000E+00  0.000E+00  4.24454E+01  3.886E-01  2.000E+01  2.000E+04 -1.717E+00
   1   13   15     1    15    5.3634E+05 -3.6437E+04   5.7278E+05  0.000E+00  0.000E+00  0.000E+00  4.19838E+01  4.043E-01  2.000E+01  2.000E+04 -1.822E+00
   1   12   16     1    16    5.7278E+05 -4.2372E+04   6.1515E+05  0.000E+00  0.000E+00  0.000E+00  4.15236E+01  4.213E-01  2.000E+01  2.000E+04 -2.119E+00
   1   12   17     1    17    6.1515E+05 -3.3439E+04   6.4859E+05  0.000E+00  0.000E+00  0.000E+00  4.10622E+01  4.372E-01  2.000E+01  2.000E+04 -1.672E+00
   1   12   18     1    18    6.4859E+05 -3.2026E+04   6.8061E+05  0.000E+00  0.000E+00  0.000E+00  4.05984E+01  4.507E-01  2.000E+01  2.000E+04 -1.601E+00
   1   12   19     1    19    6.8061E+05 -3.6192E+04   7.1681E+05  0.000E+00  0.000E+00  0.000E+00  4.01349E+01  4.644E-01  2.000E+01  2.000E+04 -1.810E+00
   1   13   20     1    20    7.1681E+05 -2.6737E+04   7.4354E+05  0.000E+00  0.000E+00  0.000E+00  3.96700E+01  4.768E-01  2.000E+01  2.000E+04 -1.337E+00
   1   14   21     1    21    7.4354E+05 -1.9775E+04   7.6332E+05  0.000E+00  0.000E+00  0.000E+00  3.92018E+01  4.859E-01  2.000E+01  2.000E+04 -9.887E-01
   1   14   22     1    22    7.6332E+05 -1.8082E+03   7.6513E+05  0.000E+00  0.000E+00  0.000E+00  3.87287E+01  4.901E-01  2.000E+01  2.000E+04 -9.041E-02
   1    9   30     2     1    5.0000E+04 -2.6606E+04   7.6606E+04  0.000E+00  0.000E+00  0.000E+00  4.02585E+01  1.335E-01  2.000E+01  2.000E+04 -1.330E+00
   1    9   29     2     2    7.6606E+04 -2.9069E+04   1.0568E+05  0.000E+00  0.000E+00  0.000E+00  4.00411E+01  1.661E-01  2.000E+01  2.000E+04 -1.453E+00
   1    9   28     2     3    1.0568E+05 -3.3347E+04   1.3902E+05  0.000E+00  0.000E+00  0.000E+00  3.98232E+01  1.982E-01  2.000E+01  2.000E+04 -1.667E+00
   1    9   27     2     4    1.3902E+05 -4.7450E+04   1.8647E+05  0.000E+00  0.000E+00  0.000E+00  3.96102E+01  2.352E-01  2.000E+01  2.000E+04 -2.372E+00
   1   10   26     2     5    1.8647E+05 -3.3417E+04   2.1989E+05  0.000E+00  0.000E+00  0.000E+00  3.93937E+01  2.687E-01  2.000E+01  2.000E+04 -1.671E+00
   1   11   25     2     6    2.1989E+05 -2.5062E+04   2.4495E+05  0.000E+00  0.000E+00  0.000E+00  3.91663E+01  2.913E-01  2.000E+01  2.000E+04 -1.253E+00
   1   12   24     2     7    2.4495E+05 -1.8492E+04   2.6344E+05  0.000E+00  0.000E+00  0.000E+00  3.89324E+01  3.074E-01  2.000E+01  2.000E+04 -9.246E-01
   1   13   23     2     8    2.6344E+05 -1.3152E+04   2.7660E+05  0.000E+00  0.000E+00  0.000E+00  3.86937E+01  3.187E-01  2.000E+01  2.000E+04 -6.576E-01
   1   14   22     2     9    2.7660E+05 -7.3636E+03   2.8396E+05  0.000E+00  0.000E+00  0.000E+00  3.84509E+01  3.259E-01  2.000E+01  2.000E+04 -3.682E-01
   1   14   22     3     1    1.0491E+06 -1.5392E+04   1.0645E+06  0.000E+00  0.000E+00  0.000E+00  3.80495E+01  4.940E-01  2.000E+01  2.000E+04 -7.696E-01
   1   15   23     3     2    1.0645E+06 -2.3798E+04   1.0883E+06  0.000E+00  0.000E+00  0.000E+00  3.71661E+01  4.994E-01  2.000E+01  2.000E+04 -1.190E+00
   1   15   24     3     3    1.0883E+06 -1.9812E+04   1.1081E+06  0.000E+00  0.000E+00  0.000E+00  3.62833E+01  5.055E-01  2.000E+01  2.000E+04 -9.906E-01
   1   15   25     3     4    1.1081E+06 -1.9405E+04   1.1275E+06  0.000E+00  0.000E+00  0.000E+00  3.53998E+01  5.109E-01  2.000E+01  2.000E+04 -9.703E-01
   1   15   26     3     5    1.1275E+06 -2.2169E+04   1.1497E+06  0.000E+00  0.000E+00  0.000E+00  3.45166E+01  5.166E-01  2.000E+01  2.000E+04 -1.108E+00
   1   16   27     3     6    1.1497E+06 -2.9365E+04   1.1790E+06  0.000E+00  0.000E+00  0.000E+00  3.36347E+01  5.235E-01  2.000E+01  2.000E+04 -1.468E+00
   1   17   28     3     7    1.1790E+06 -3.6429E+04   1.2155E+06  0.000E+00  0.000E+00  0.000E+00  3.27546E+01  5.324E-01  2.000E+01  2.000E+04 -1.821E+00
   1   18   29     3     8    1.2155E+06 -4.7417E+04   1.2629E+06  0.000E+00  0.000E+00  0.000E+00  3.18768E+01  5.435E-01  2.000E+01  2.000E+04 -2.371E+00
   1   18   30     3     9    1.2629E+06 -4.3822E+04   1.3067E+06  0.000E+00  0.000E+00  0.000E+00  3.09998E+01  5.554E-01  2.000E+01  2.000E+04 -2.191E+00



1
              HEAD IN LAYER   1 AT END OF TIME STEP   1 IN STRESS PERIOD    4
  ---------------------------------------------------------------------------

          1      2      3      4      5      6      7      8      9     10
         11     12     13     14     15     16     17     18     19     20
         21     22     23     24     25     26     27     28     29     30
 .........................................................................
   1  ****** ****** ****** ****** ****** ****** ****** ****** ****** ******
      ****** ****** ****** ****** ****** ****** ****** ****** ****** ******
      ****** ****** ****** ****** ****** ****** ****** ****** ****** ******
   2  ****** ****** ****** ****** ****** ****** ****** ****** ****** ******
      ****** ****** ****** ****** ****** ****** ****** ****** ****** ******
      ****** ****** ****** ****** ****** ****** ****** ****** ****** ******
   3  ****** ****** ****** ****** ****** ****** ****** ****** ****** ******
      ****** ****** ****** ****** ****** ****** ****** ****** ****** ******
      ****** ****** ****** ****** ****** ****** ****** ****** ****** ******
   4  ****** ****** ****** ****** ****** ****** ****** ****** ****** ******
      ****** ****** ****** ****** ****** ****** ****** ****** ****** ******
      ****** ****** ****** ****** ****** ****** ****** ****** ****** ******
   5  ****** ****** ****** ****** ****** ****** ****** ****** ****** ******
      ****** ****** ****** ****** ****** ****** ****** ****** ****** ******
      ****** ****** ****** ****** ****** ****** ****** ****** ****** ******
   6  ****** ****** ****** ****** ****** ****** ****** ****** ****** ******
      ****** ****** ****** ****** ****** ****** ****** ****** ****** ******
      ****** ****** ****** ****** ****** ****** ****** ****** ****** ******
   7  ****** ****** ****** ****** ****** ****** ****** ****** ****** ******
      ****** ****** ****** ****** ****** ****** ****** ****** ****** ******
      ****** ****** ****** ****** ****** ****** ****** ****** ****** ******
   8  ****** ****** ****** ****** ****** ****** ****** ****** ****** ******
      ****** ****** ****** ****** ****** ****** ****** ****** ****** ******
      ****** ****** ****** ****** ****** ****** ****** ****** ****** ******
   9  ****** ****** ****** ****** ****** ****** ****** ****** ****** ******
      ****** ****** ****** ****** ****** ****** ****** ****** ****** ******
      ****** ****** ****** ****** ****** ****** ****** ****** ****** ******
  10  ****** ****** ****** ****** ****** ****** ****** ****** ****** ******
      ****** ****** ****** ****** ****** ****** ****** ****** ****** ******
      ****** ****** ****** ****** ****** ****** ****** ****** ****** ******
  11  ****** ****** ****** ****** ****** ****** ****** ****** ****** ******
      ****** ****** ****** ****** ****** ****** ****** ****** ****** ******
      ****** ****** ****** ****** ****** ****** ****** ****** ****** ******
  12  ****** ****** ****** ****** ****** ****** ****** ****** ****** ******
      ****** ****** ****** ****** ****** ****** ****** ****** ****** ******
      ****** ****** ****** ****** ****** ****** ****** ****** ****** ******
  13  ****** ****** ****** ****** ****** ****** ****** ****** ****** ******
      ****** ****** ****** ****** ****** ****** ****** ****** ****** ******
      ****** ****** ****** ****** ****** ****** ****** ****** ****** ******
  14  ****** ****** ****** ****** ****** ****** ****** ****** ****** ******
      ****** ****** ****** ****** ****** ****** ****** ****** ****** ******
      ****** ****** ****** ****** ****** ****** ****** ****** ****** ******
  15  ****** ****** ****** ****** ****** ****** ****** ****** ****** ******
      ****** ****** ****** ****** ****** ****** ****** ****** ****** ******
      ****** ****** ****** ****** ****** ****** ****** ****** ****** ******
  16  ****** ****** ****** ****** ****** ****** ****** ****** ****** ******
      ****** ****** ****** ****** ****** ****** ****** ****** ****** ******
      ****** ****** ****** ****** ****** ****** ****** ****** ****** ******
  17  ****** ****** ****** ****** ****** ****** ****** ****** ****** ******
      ****** ****** ****** ****** ****** ****** ****** ****** ****** ******
      ****** ****** ****** ****** ****** ****** ****** ****** ****** ******
  18  ****** ****** ****** ****** ****** ****** ****** ****** ****** ******
      ****** ****** ****** ****** ****** ****** ****** ****** ****** ******
      ****** ****** ****** ****** ****** ****** ****** ****** ****** ******
  19  ****** ****** ****** ****** ****** ****** ****** ****** ****** ******
      ****** ****** ****** ****** ****** ****** ****** ****** ****** ******
      ****** ****** ****** ****** ****** ****** ****** ****** ****** ******
  20  ****** ****** ****** ****** ****** ****** ****** ****** ****** ******
      ****** ****** ****** ****** ****** ****** ****** ****** ****** ******
      ****** ****** ****** ****** ****** ****** ****** ****** ****** ******
  21  ****** ****** ****** ****** ****** ****** ****** ****** ****** ******
      ****** ****** ****** ****** ****** ****** ****** ****** ****** ******
      ****** ****** ****** ****** ****** ****** ****** ****** ****** ******
  22  ****** ****** ****** ****** ****** ****** ****** ****** ****** ******
      ****** ****** ****** ****** ****** ****** ****** ****** ****** ******
      ****** ****** ****** ****** ****** ****** ****** ****** ****** ******
  23  ****** ****** ****** ****** ****** ****** ****** ****** ****** ******
      ****** ****** ****** ****** ****** ****** ****** ****** ****** ******
      ****** ****** ****** ****** ****** ****** ****** ****** ****** ******
  24  ****** ****** ****** ****** ****** ****** ****** ****** ****** ******
      ****** ****** ****** ****** ****** ****** ****** ****** ****** ******
      ****** ****** ****** ****** ****** ****** ****** ****** ****** ******
  25  ****** ****** ****** ****** ****** ****** ****** ****** ****** ******
      ****** ****** ****** ****** ****** ****** ****** ****** ****** ******
      ****** ****** ****** ****** ****** ****** ****** ****** ****** ******

 HEAD WILL BE SAVED ON UNIT   51 AT END OF TIME STEP    1, STRESS PERIOD    4
1
  VOLUMETRIC BUDGET FOR ENTIRE MODEL AT END OF TIME STEP    1, STRESS PERIOD   4
  ------------------------------------------------------------------------------

     CUMULATIVE VOLUMES      L**3       RATES FOR THIS TIME STEP      L**3/T
     ------------------                 ------------------------

           IN:                                      IN:
           ---                                      ---
             STORAGE =    20376946.0567               STORAGE =           0.0000
       CONSTANT HEAD =   463284291.8036         CONSTANT HEAD =     1285230.4000
               WELLS =           0.0000                 WELLS =           0.0000
            RECHARGE =     8804400.0000              RECHARGE =       27600.0000
      STREAM LEAKAGE =           0.0000        STREAM LEAKAGE =           0.0000

            TOTAL IN =   492465637.8602              TOTAL IN =     1312830.4000

          OUT:                                     OUT:
          ----                                     ----
             STORAGE =      103192.1811               STORAGE =        1133.9800
       CONSTANT HEAD =           0.0000         CONSTANT HEAD =           0.0000
               WELLS =    56575182.5000                 WELLS =      155000.5000
            RECHARGE =           0.0000              RECHARGE =           0.0000
      STREAM LEAKAGE =   435787268.8833        STREAM LEAKAGE =     1156695.8998

           TOTAL OUT =   492465643.5644             TOTAL OUT =     1312830.3798

            IN - OUT =          -5.7042              IN - OUT =       2.0137E-02

 PERCENT DISCREPANCY =          -0.00     PERCENT DISCREPANCY =           0.00






         TIME SUMMARY AT END OF TIME STEP    1 IN STRESS PERIOD    4
                    SECONDS     MINUTES      HOURS       DAYS        YEARS
                    -----------------------------------------------------------
   TIME STEP LENGTH 7.86240E+06 1.31040E+05  2184.0      91.000     0.24914    
 STRESS PERIOD TIME 7.86240E+06 1.31040E+05  2184.0      91.000     0.24914    
         TOTAL TIME 3.15360E+07 5.25600E+05  8760.0      365.00     0.99932    
1
1
                            STRESS PERIOD NO.    5, LENGTH =   92.00000    
                            -----------------------------------------------

                              NUMBER OF TIME STEPS =     1

                               MULTIPLIER FOR DELT =     1.500

                            INITIAL TIME STEP SIZE =   92.00000    

 WELL NO.  LAYER   ROW   COL   STRESS RATE         
 --------------------------------------------------
      1      1      4      8     -0.5000E+05
      2      1      2      9     -0.5000E+05
      3      1      2      7     -0.5500E+05

      3 WELLS

                 RECHARGE =  5.000000E-04

 REUSING STREAM SEGMENT DATA FROM LAST STRESS PERIOD
 
 SOLVING FOR HEAD 


     5 CALLS TO PCG ROUTINE FOR TIME STEP   1 IN STRESS PERIOD    5
    20 TOTAL ITERATIONS

 OUTPUT CONTROL FOR STRESS PERIOD    5   TIME STEP    1
    SAVE BUDGET
    SAVE HEAD FOR ALL LAYERS
    PRINT HEAD FOR ALL LAYERS
 UBDSV2 SAVING "STREAMFLOW OUT  " ON UNIT  50 AT TIME STEP  1, STRESS PERIOD   5



 STREAM LISTING     PERIOD      5   STEP        1

 LAYER ROW COL. STREAM  RCH.  FLOW INTO     FLOW TO   FLOW OUT OF   OVRLND.     DIRECT     STREAM       STREAM     STREAM     STREAM   STREAMBED  STREAMBED
                SEG.NO.  NO.  STRM. RCH.    AQUIFER    STRM. RCH.    RUNOFF     PRECIP       ET          HEAD       DEPTH      WIDTH   CONDCTNC.   GRADIENT

   1   13    1     1     1    1.0000E+05 -2.6098E+04   1.2610E+05  0.000E+00  0.000E+00  0.000E+00  4.84171E+01  1.557E-01  2.000E+01  2.000E+04 -1.305E+00
   1   13    2     1     2    1.2610E+05 -3.5315E+04   1.6141E+05  0.000E+00  0.000E+00  0.000E+00  4.79639E+01  1.798E-01  2.000E+01  2.000E+04 -1.766E+00
   1   14    3     1     3    1.6141E+05 -3.1388E+04   1.9280E+05  0.000E+00  0.000E+00  0.000E+00  4.75106E+01  2.038E-01  2.000E+01  2.000E+04 -1.569E+00
   1   15    4     1     4    1.9280E+05 -3.1055E+04   2.2386E+05  0.000E+00  0.000E+00  0.000E+00  4.70542E+01  2.247E-01  2.000E+01  2.000E+04 -1.553E+00
   1   16    5     1     5    2.2386E+05 -3.3077E+04   2.5693E+05  0.000E+00  0.000E+00  0.000E+00  4.65971E+01  2.448E-01  2.000E+01  2.000E+04 -1.654E+00
   1   16    6     1     6    2.5693E+05 -2.8761E+04   2.8569E+05  0.000E+00  0.000E+00  0.000E+00  4.61383E+01  2.633E-01  2.000E+01  2.000E+04 -1.438E+00
   1   16    7     1     7    2.8569E+05 -2.8538E+04   3.1423E+05  0.000E+00  0.000E+00  0.000E+00  4.56773E+01  2.796E-01  2.000E+01  2.000E+04 -1.427E+00
   1   16    8     1     8    3.1423E+05 -2.8717E+04   3.4295E+05  0.000E+00  0.000E+00  0.000E+00  4.52158E+01  2.953E-01  2.000E+01  2.000E+04 -1.436E+00
   1   16    9     1     9    3.4295E+05 -2.8835E+04   3.7178E+05  0.000E+00  0.000E+00  0.000E+00  4.47538E+01  3.106E-01  2.000E+01  2.000E+04 -1.442E+00
   1   16   10     1    10    3.7178E+05 -2.8940E+04   4.0072E+05  0.000E+00  0.000E+00  0.000E+00  4.42913E+01  3.254E-01  2.000E+01  2.000E+04 -1.447E+00
   1   16   11     1    11    4.0072E+05 -2.9661E+04   4.3039E+05  0.000E+00  0.000E+00  0.000E+00  4.38287E+01  3.400E-01  2.000E+01  2.000E+04 -1.483E+00
   1   16   12     1    12    4.3039E+05 -3.5314E+04   4.6570E+05  0.000E+00  0.000E+00  0.000E+00  4.33671E+01  3.557E-01  2.000E+01  2.000E+04 -1.766E+00
   1   15   13     1    13    4.6570E+05 -3.3706E+04   4.9941E+05  0.000E+00  0.000E+00  0.000E+00  4.29060E+01  3.719E-01  2.000E+01  2.000E+04 -1.685E+00
   1   14   14     1    14    4.9941E+05 -3.4099E+04   5.3350E+05  0.000E+00  0.000E+00  0.000E+00  4.24442E+01  3.874E-01  2.000E+01  2.000E+04 -1.705E+00
   1   13   15     1    15    5.3350E+05 -3.6203E+04   5.6971E+05  0.000E+00  0.000E+00  0.000E+00  4.19825E+01  4.030E-01  2.000E+01  2.000E+04 -1.810E+00
   1   12   16     1    16    5.6971E+05 -4.2146E+04   6.1185E+05  0.000E+00  0.000E+00  0.000E+00  4.15222E+01  4.199E-01  2.000E+01  2.000E+04 -2.107E+00
   1   12   17     1    17    6.1185E+05 -3.3256E+04   6.4511E+05  0.000E+00  0.000E+00  0.000E+00  4.10608E+01  4.358E-01  2.000E+01  2.000E+04 -1.663E+00
   1   12   18     1    18    6.4511E+05 -3.1851E+04   6.7696E+05  0.000E+00  0.000E+00  0.000E+00  4.05969E+01  4.492E-01  2.000E+01  2.000E+04 -1.593E+00
   1   12   19     1    19    6.7696E+05 -3.6001E+04   7.1296E+05  0.000E+00  0.000E+00  0.000E+00  4.01334E+01  4.629E-01  2.000E+01  2.000E+04 -1.800E+00
   1   13   20     1    20    7.1296E+05 -2.6557E+04   7.3952E+05  0.000E+00  0.000E+00  0.000E+00  3.96685E+01  4.753E-01  2.000E+01  2.000E+04 -1.328E+00
   1   14   21     1    21    7.3952E+05 -1.9619E+04   7.5914E+05  0.000E+00  0.000E+00  0.000E+00  3.92002E+01  4.843E-01  2.000E+01  2.000E+04 -9.810E-01
   1   14   22     1    22    7.5914E+05 -1.7530E+03   7.6089E+05  0.000E+00  0.000E+00  0.000E+00  3.87271E+01  4.884E-01  2.000E+01  2.000E+04 -8.765E-02
   1    9   30     2     1    5.0000E+04 -2.6465E+04   7.6465E+04  0.000E+00  0.000E+00  0.000E+00  4.02584E+01  1.334E-01  2.000E+01  2.000E+04 -1.323E+00
   1    9   29     2     2    7.6465E+04 -2.8928E+04   1.0539E+05  0.000E+00  0.000E+00  0.000E+00  4.00409E+01  1.659E-01  2.000E+01  2.000E+04 -1.446E+00
   1    9   28     2     3    1.0539E+05 -3.3202E+04   1.3859E+05  0.000E+00  0.000E+00  0.000E+00  3.98229E+01  1.979E-01  2.000E+01  2.000E+04 -1.660E+00
   1    9   27     2     4    1.3859E+05 -4.7272E+04   1.8587E+05  0.000E+00  0.000E+00  0.000E+00  3.96098E+01  2.348E-01  2.000E+01  2.000E+04 -2.364E+00
   1   10   26     2     5    1.8587E+05 -3.3233E+04   2.1910E+05  0.000E+00  0.000E+00  0.000E+00  3.93932E+01  2.682E-01  2.000E+01  2.000E+04 -1.662E+00
   1   11   25     2     6    2.1910E+05 -2.4884E+04   2.4398E+05  0.000E+00  0.000E+00  0.000E+00  3.91656E+01  2.906E-01  2.000E+01  2.000E+04 -1.244E+00
   1   12   24     2     7    2.4398E+05 -1.8332E+04   2.6232E+05  0.000E+00  0.000E+00  0.000E+00  3.89316E+01  3.066E-01  2.000E+01  2.000E+04 -9.166E-01
   1   13   23     2     8    2.6232E+05 -1.3022E+04   2.7534E+05  0.000E+00  0.000E+00  0.000E+00  3.86929E+01  3.179E-01  2.000E+01  2.000E+04 -6.511E-01
   1   14   22     2     9    2.7534E+05 -7.2941E+03   2.8263E+05  0.000E+00  0.000E+00  0.000E+00  3.84500E+01  3.250E-01  2.000E+01  2.000E+04 -3.647E-01
   1   14   22     3     1    1.0435E+06 -1.5336E+04   1.0589E+06  0.000E+00  0.000E+00  0.000E+00  3.80479E+01  4.924E-01  2.000E+01  2.000E+04 -7.668E-01
   1   15   23     3     2    1.0589E+06 -2.3653E+04   1.0825E+06  0.000E+00  0.000E+00  0.000E+00  3.71645E+01  4.978E-01  2.000E+01  2.000E+04 -1.183E+00
   1   15   24     3     3    1.0825E+06 -1.9691E+04   1.1022E+06  0.000E+00  0.000E+00  0.000E+00  3.62816E+01  5.039E-01  2.000E+01  2.000E+04 -9.846E-01
   1   15   25     3     4    1.1022E+06 -1.9285E+04   1.1215E+06  0.000E+00  0.000E+00  0.000E+00  3.53981E+01  5.092E-01  2.000E+01  2.000E+04 -9.643E-01
   1   15   26     3     5    1.1215E+06 -2.2029E+04   1.1435E+06  0.000E+00  0.000E+00  0.000E+00  3.45149E+01  5.149E-01  2.000E+01  2.000E+04 -1.101E+00
   1   16   27     3     6    1.1435E+06 -2.9196E+04   1.1727E+06  0.000E+00  0.000E+00  0.000E+00  3.36330E+01  5.219E-01  2.000E+01  2.000E+04 -1.460E+00
   1   17   28     3     7    1.1727E+06 -3.6256E+04   1.2090E+06  0.000E+00  0.000E+00  0.000E+00  3.27529E+01  5.307E-01  2.000E+01  2.000E+04 -1.813E+00
   1   18   29     3     8    1.2090E+06 -4.7255E+04   1.2562E+06  0.000E+00  0.000E+00  0.000E+00  3.18751E+01  5.417E-01  2.000E+01  2.000E+04 -2.363E+00
   1   18   30     3     9    1.2562E+06 -4.3686E+04   1.2999E+06  0.000E+00  0.000E+00  0.000E+00  3.09981E+01  5.536E-01  2.000E+01  2.000E+04 -2.184E+00



1
              HEAD IN LAYER   1 AT END OF TIME STEP   1 IN STRESS PERIOD    5
  ---------------------------------------------------------------------------

          1      2      3      4      5      6      7      8      9     10
         11     12     13     14     15     16     17     18     19     20
         21     22     23     24     25     26     27     28     29     30
 .........................................................................
   1  ****** ****** ****** ****** ****** ****** ****** ****** ****** ******
      ****** ****** ****** ****** ****** ****** ****** ****** ****** ******
      ****** ****** ****** ****** ****** ****** ****** ****** ****** ******
   2  ****** ****** ****** ****** ****** ****** ****** ****** ****** ******
      ****** ****** ****** ****** ****** ****** ****** ****** ****** ******
      ****** ****** ****** ****** ****** ****** ****** ****** ****** ******
   3  ****** ****** ****** ****** ****** ****** ****** ****** ****** ******
      ****** ****** ****** ****** ****** ****** ****** ****** ****** ******
      ****** ****** ****** ****** ****** ****** ****** ****** ****** ******
   4  ****** ****** ****** ****** ****** ****** ****** ****** ****** ******
      ****** ****** ****** ****** ****** ****** ****** ****** ****** ******
      ****** ****** ****** ****** ****** ****** ****** ****** ****** ******
   5  ****** ****** ****** ****** ****** ****** ****** ****** ****** ******
      ****** ****** ****** ****** ****** ****** ****** ****** ****** ******
      ****** ****** ****** ****** ****** ****** ****** ****** ****** ******
   6  ****** ****** ****** ****** ****** ****** ****** ****** ****** ******
      ****** ****** ****** ****** ****** ****** ****** ****** ****** ******
      ****** ****** ****** ****** ****** ****** ****** ****** ****** ******
   7  ****** ****** ****** ****** ****** ****** ****** ****** ****** ******
      ****** ****** ****** ****** ****** ****** ****** ****** ****** ******
      ****** ****** ****** ****** ****** ****** ****** ****** ****** ******
   8  ****** ****** ****** ****** ****** ****** ****** ****** ****** ******
      ****** ****** ****** ****** ****** ****** ****** ****** ****** ******
      ****** ****** ****** ****** ****** ****** ****** ****** ****** ******
   9  ****** ****** ****** ****** ****** ****** ****** ****** ****** ******
      ****** ****** ****** ****** ****** ****** ****** ****** ****** ******
      ****** ****** ****** ****** ****** ****** ****** ****** ****** ******
  10  ****** ****** ****** ****** ****** ****** ****** ****** ****** ******
      ****** ****** ****** ****** ****** ****** ****** ****** ****** ******
      ****** ****** ****** ****** ****** ****** ****** ****** ****** ******
  11  ****** ****** ****** ****** ****** ****** ****** ****** ****** ******
      ****** ****** ****** ****** ****** ****** ****** ****** ****** ******
      ****** ****** ****** ****** ****** ****** ****** ****** ****** ******
  12  ****** ****** ****** ****** ****** ****** ****** ****** ****** ******
      ****** ****** ****** ****** ****** ****** ****** ****** ****** ******
      ****** ****** ****** ****** ****** ****** ****** ****** ****** ******
  13  ****** ****** ****** ****** ****** ****** ****** ****** ****** ******
      ****** ****** ****** ****** ****** ****** ****** ****** ****** ******
      ****** ****** ****** ****** ****** ****** ****** ****** ****** ******
  14  ****** ****** ****** ****** ****** ****** ****** ****** ****** ******
      ****** ****** ****** ****** ****** ****** ****** ****** ****** ******
      ****** ****** ****** ****** ****** ****** ****** ****** ****** ******
  15  ****** ****** ****** ****** ****** ****** ****** ****** ****** ******
      ****** ****** ****** ****** ****** ****** ****** ****** ****** ******
      ****** ****** ****** ****** ****** ****** ****** ****** ****** ******
  16  ****** ****** ****** ****** ****** ****** ****** ****** ****** ******
      ****** ****** ****** ****** ****** ****** ****** ****** ****** ******
      ****** ****** ****** ****** ****** ****** ****** ****** ****** ******
  17  ****** ****** ****** ****** ****** ****** ****** ****** ****** ******
      ****** ****** ****** ****** ****** ****** ****** ****** ****** ******
      ****** ****** ****** ****** ****** ****** ****** ****** ****** ******
  18  ****** ****** ****** ****** ****** ****** ****** ****** ****** ******
      ****** ****** ****** ****** ****** ****** ****** ****** ****** ******
      ****** ****** ****** ****** ****** ****** ****** ****** ****** ******
  19  ****** ****** ****** ****** ****** ****** ****** ****** ****** ******
      ****** ****** ****** ****** ****** ****** ****** ****** ****** ******
      ****** ****** ****** ****** ****** ****** ****** ****** ****** ******
  20  ****** ****** ****** ****** ****** ****** ****** ****** ****** ******
      ****** ****** ****** ****** ****** ****** ****** ****** ****** ******
      ****** ****** ****** ****** ****** ****** ****** ****** ****** ******
  21  ****** ****** ****** ****** ****** ****** ****** ****** ****** ******
      ****** ****** ****** ****** ****** ****** ****** ****** ****** ******
      ****** ****** ****** ****** ****** ****** ****** ****** ****** ******
  22  ****** ****** ****** ****** ****** ****** ****** ****** ****** ******
      ****** ****** ****** ****** ****** ****** ****** ****** ****** ******
      ****** ****** ****** ****** ****** ****** ****** ****** ****** ******
  23  ****** ****** ****** ****** ****** ****** ****** ****** ****** ******
      ****** ****** ****** ****** ****** ****** ****** ****** ****** ******
      ****** ****** ****** ****** ****** ****** ****** ****** ****** ******
  24  ****** ****** ****** ****** ****** ****** ****** ****** ****** ******
      ****** ****** ****** ****** ****** ****** ****** ****** ****** ******
      ****** ****** ****** ****** ****** ****** ****** ****** ****** ******
  25  ****** ****** ****** ****** ****** ****** ****** ****** ****** ******
      ****** ****** ****** ****** ****** ****** ****** ****** ****** ******
      ****** ****** ****** ****** ****** ****** ****** ****** ****** ******

 HEAD WILL BE SAVED ON UNIT   51 AT END OF TIME STEP    1, STRESS PERIOD    5
1
  VOLUMETRIC BUDGET FOR ENTIRE MODEL AT END OF TIME STEP    1, STRESS PERIOD   5
  ------------------------------------------------------------------------------

     CUMULATIVE VOLUMES      L**3       RATES FOR THIS TIME STEP      L**3/T
     ------------------                 ------------------------

           IN:                                      IN:
           ---                                      ---
             STORAGE =    20430866.8426               STORAGE =         586.0955
       CONSTANT HEAD =   582012702.9222         CONSTANT HEAD =     1290526.2078
               WELLS =           0.0000                 WELLS =           0.0000
            RECHARGE =    10074000.0000              RECHARGE =       13800.0000
      STREAM LEAKAGE =           0.0000        STREAM LEAKAGE =           0.0000

            TOTAL IN =   612517569.7649              TOTAL IN =     1304912.3033

          OUT:                                     OUT:
          ----                                     ----
             STORAGE =      103192.1811               STORAGE =           0.0000
       CONSTANT HEAD =           0.0000         CONSTANT HEAD =           0.0000
               WELLS =    70835228.5000                 WELLS =      155000.5000
            RECHARGE =           0.0000              RECHARGE =           0.0000
      STREAM LEAKAGE =   541579156.6220        STREAM LEAKAGE =     1149911.8232

           TOTAL OUT =   612517577.3031             TOTAL OUT =     1304912.3232

            IN - OUT =          -7.5382              IN - OUT =      -1.9936E-02

 PERCENT DISCREPANCY =          -0.00     PERCENT DISCREPANCY =          -0.00






         TIME SUMMARY AT END OF TIME STEP    1 IN STRESS PERIOD    5
                    SECONDS     MINUTES      HOURS       DAYS        YEARS
                    -----------------------------------------------------------
   TIME STEP LENGTH 7.94880E+06 1.32480E+05  2208.0      92.000     0.25188    
 STRESS PERIOD TIME 7.94880E+06 1.32480E+05  2208.0      92.000     0.25188    
         TOTAL TIME 3.94848E+07 6.58080E+05  10968.      457.00      1.2512    
1
1
                            STRESS PERIOD NO.    6, LENGTH =   91.00000    
                            -----------------------------------------------

                              NUMBER OF TIME STEPS =     1

                               MULTIPLIER FOR DELT =     1.500

                            INITIAL TIME STEP SIZE =   91.00000    

 WELL NO.  LAYER   ROW   COL   STRESS RATE         
 --------------------------------------------------
      1      1      4      8     -0.5000E+05
      2      1      2      9     -0.5000E+05
      3      1      2      7     -0.5500E+05

      3 WELLS

                 RECHARGE =  2.000000E-03

 REUSING STREAM SEGMENT DATA FROM LAST STRESS PERIOD
 
 SOLVING FOR HEAD 


     6 CALLS TO PCG ROUTINE FOR TIME STEP   1 IN STRESS PERIOD    6
    22 TOTAL ITERATIONS

 OUTPUT CONTROL FOR STRESS PERIOD    6   TIME STEP    1
    SAVE BUDGET
    SAVE HEAD FOR ALL LAYERS
    PRINT HEAD FOR ALL LAYERS
 UBDSV2 SAVING "STREAMFLOW OUT  " ON UNIT  50 AT TIME STEP  1, STRESS PERIOD   6



 STREAM LISTING     PERIOD      6   STEP        1

 LAYER ROW COL. STREAM  RCH.  FLOW INTO     FLOW TO   FLOW OUT OF   OVRLND.     DIRECT     STREAM       STREAM     STREAM     STREAM   STREAMBED  STREAMBED
                SEG.NO.  NO.  STRM. RCH.    AQUIFER    STRM. RCH.    RUNOFF     PRECIP       ET          HEAD       DEPTH      WIDTH   CONDCTNC.   GRADIENT

   1   13    1     1     1    1.0000E+05 -2.6750E+04   1.2675E+05  0.000E+00  0.000E+00  0.000E+00  4.84173E+01  1.560E-01  2.000E+01  2.000E+04 -1.338E+00
   1   13    2     1     2    1.2675E+05 -3.6094E+04   1.6284E+05  0.000E+00  0.000E+00  0.000E+00  4.79647E+01  1.806E-01  2.000E+01  2.000E+04 -1.805E+00
   1   14    3     1     3    1.6284E+05 -3.2150E+04   1.9499E+05  0.000E+00  0.000E+00  0.000E+00  4.75119E+01  2.051E-01  2.000E+01  2.000E+04 -1.608E+00
   1   15    4     1     4    1.9499E+05 -3.1787E+04   2.2678E+05  0.000E+00  0.000E+00  0.000E+00  4.70559E+01  2.263E-01  2.000E+01  2.000E+04 -1.589E+00
   1   16    5     1     5    2.2678E+05 -3.3738E+04   2.6052E+05  0.000E+00  0.000E+00  0.000E+00  4.65991E+01  2.468E-01  2.000E+01  2.000E+04 -1.687E+00
   1   16    6     1     6    2.6052E+05 -2.9336E+04   2.8986E+05  0.000E+00  0.000E+00  0.000E+00  4.61405E+01  2.655E-01  2.000E+01  2.000E+04 -1.467E+00
   1   16    7     1     7    2.8986E+05 -2.9107E+04   3.1896E+05  0.000E+00  0.000E+00  0.000E+00  4.56798E+01  2.821E-01  2.000E+01  2.000E+04 -1.455E+00
   1   16    8     1     8    3.1896E+05 -2.9288E+04   3.4825E+05  0.000E+00  0.000E+00  0.000E+00  4.52185E+01  2.980E-01  2.000E+01  2.000E+04 -1.464E+00
   1   16    9     1     9    3.4825E+05 -2.9406E+04   3.7766E+05  0.000E+00  0.000E+00  0.000E+00  4.47567E+01  3.135E-01  2.000E+01  2.000E+04 -1.470E+00
   1   16   10     1    10    3.7766E+05 -2.9509E+04   4.0717E+05  0.000E+00  0.000E+00  0.000E+00  4.42944E+01  3.285E-01  2.000E+01  2.000E+04 -1.475E+00
   1   16   11     1    11    4.0717E+05 -3.0237E+04   4.3740E+05  0.000E+00  0.000E+00  0.000E+00  4.38319E+01  3.433E-01  2.000E+01  2.000E+04 -1.512E+00
   1   16   12     1    12    4.3740E+05 -3.5985E+04   4.7339E+05  0.000E+00  0.000E+00  0.000E+00  4.33706E+01  3.592E-01  2.000E+01  2.000E+04 -1.799E+00
   1   15   13     1    13    4.7339E+05 -3.4448E+04   5.0784E+05  0.000E+00  0.000E+00  0.000E+00  4.29097E+01  3.756E-01  2.000E+01  2.000E+04 -1.722E+00
   1   14   14     1    14    5.0784E+05 -3.4865E+04   5.4270E+05  0.000E+00  0.000E+00  0.000E+00  4.24482E+01  3.913E-01  2.000E+01  2.000E+04 -1.743E+00
   1   13   15     1    15    5.4270E+05 -3.6963E+04   5.7967E+05  0.000E+00  0.000E+00  0.000E+00  4.19867E+01  4.072E-01  2.000E+01  2.000E+04 -1.848E+00
   1   12   16     1    16    5.7967E+05 -4.2881E+04   6.2255E+05  0.000E+00  0.000E+00  0.000E+00  4.15266E+01  4.243E-01  2.000E+01  2.000E+04 -2.144E+00
   1   12   17     1    17    6.2255E+05 -3.3848E+04   6.5639E+05  0.000E+00  0.000E+00  0.000E+00  4.10654E+01  4.404E-01  2.000E+01  2.000E+04 -1.692E+00
   1   12   18     1    18    6.5639E+05 -3.2416E+04   6.8881E+05  0.000E+00  0.000E+00  0.000E+00  4.06016E+01  4.539E-01  2.000E+01  2.000E+04 -1.621E+00
   1   12   19     1    19    6.8881E+05 -3.6618E+04   7.2543E+05  0.000E+00  0.000E+00  0.000E+00  4.01382E+01  4.678E-01  2.000E+01  2.000E+04 -1.831E+00
   1   13   20     1    20    7.2543E+05 -2.7134E+04   7.5256E+05  0.000E+00  0.000E+00  0.000E+00  3.96735E+01  4.803E-01  2.000E+01  2.000E+04 -1.357E+00
   1   14   21     1    21    7.5256E+05 -2.0116E+04   7.7268E+05  0.000E+00  0.000E+00  0.000E+00  3.92054E+01  4.895E-01  2.000E+01  2.000E+04 -1.006E+00
   1   14   22     1    22    7.7268E+05 -1.9272E+03   7.7460E+05  0.000E+00  0.000E+00  0.000E+00  3.87323E+01  4.937E-01  2.000E+01  2.000E+04 -9.636E-02
   1    9   30     2     1    5.0000E+04 -2.6910E+04   7.6910E+04  0.000E+00  0.000E+00  0.000E+00  4.02587E+01  1.337E-01  2.000E+01  2.000E+04 -1.346E+00
   1    9   29     2     2    7.6910E+04 -2.9373E+04   1.0628E+05  0.000E+00  0.000E+00  0.000E+00  4.00416E+01  1.666E-01  2.000E+01  2.000E+04 -1.469E+00
   1    9   28     2     3    1.0628E+05 -3.3662E+04   1.3995E+05  0.000E+00  0.000E+00  0.000E+00  3.98240E+01  1.990E-01  2.000E+01  2.000E+04 -1.683E+00
   1    9   27     2     4    1.3995E+05 -4.7837E+04   1.8778E+05  0.000E+00  0.000E+00  0.000E+00  3.96112E+01  2.362E-01  2.000E+01  2.000E+04 -2.392E+00
   1   10   26     2     5    1.8778E+05 -3.3819E+04   2.2160E+05  0.000E+00  0.000E+00  0.000E+00  3.93949E+01  2.699E-01  2.000E+01  2.000E+04 -1.691E+00
   1   11   25     2     6    2.2160E+05 -2.5449E+04   2.4705E+05  0.000E+00  0.000E+00  0.000E+00  3.91677E+01  2.927E-01  2.000E+01  2.000E+04 -1.272E+00
   1   12   24     2     7    2.4705E+05 -1.8838E+04   2.6589E+05  0.000E+00  0.000E+00  0.000E+00  3.89340E+01  3.090E-01  2.000E+01  2.000E+04 -9.419E-01
   1   13   23     2     8    2.6589E+05 -1.3433E+04   2.7932E+05  0.000E+00  0.000E+00  0.000E+00  3.86955E+01  3.205E-01  2.000E+01  2.000E+04 -6.716E-01
   1   14   22     2     9    2.7932E+05 -7.5160E+03   2.8684E+05  0.000E+00  0.000E+00  0.000E+00  3.84529E+01  3.279E-01  2.000E+01  2.000E+04 -3.758E-01
   1   14   22     3     1    1.0614E+06 -1.5514E+04   1.0770E+06  0.000E+00  0.000E+00  0.000E+00  3.80530E+01  4.974E-01  2.000E+01  2.000E+04 -7.757E-01
   1   15   23     3     2    1.0770E+06 -2.4114E+04   1.1011E+06  0.000E+00  0.000E+00  0.000E+00  3.71696E+01  5.029E-01  2.000E+01  2.000E+04 -1.206E+00
   1   15   24     3     3    1.1011E+06 -2.0073E+04   1.1211E+06  0.000E+00  0.000E+00  0.000E+00  3.62868E+01  5.090E-01  2.000E+01  2.000E+04 -1.004E+00
   1   15   25     3     4    1.1211E+06 -1.9664E+04   1.1408E+06  0.000E+00  0.000E+00  0.000E+00  3.54034E+01  5.145E-01  2.000E+01  2.000E+04 -9.832E-01
   1   15   26     3     5    1.1408E+06 -2.2470E+04   1.1633E+06  0.000E+00  0.000E+00  0.000E+00  3.45202E+01  5.202E-01  2.000E+01  2.000E+04 -1.123E+00
   1   16   27     3     6    1.1633E+06 -2.9728E+04   1.1930E+06  0.000E+00  0.000E+00  0.000E+00  3.36384E+01  5.273E-01  2.000E+01  2.000E+04 -1.486E+00
   1   17   28     3     7    1.1930E+06 -3.6802E+04   1.2298E+06  0.000E+00  0.000E+00  0.000E+00  3.27584E+01  5.361E-01  2.000E+01  2.000E+04 -1.840E+00
   1   18   29     3     8    1.2298E+06 -4.7768E+04   1.2776E+06  0.000E+00  0.000E+00  0.000E+00  3.18806E+01  5.473E-01  2.000E+01  2.000E+04 -2.388E+00
   1   18   30     3     9    1.2776E+06 -4.4113E+04   1.3217E+06  0.000E+00  0.000E+00  0.000E+00  3.10037E+01  5.592E-01  2.000E+01  2.000E+04 -2.206E+00



1
              HEAD IN LAYER   1 AT END OF TIME STEP   1 IN STRESS PERIOD    6
  ---------------------------------------------------------------------------

          1      2      3      4      5      6      7      8      9     10
         11     12     13     14     15     16     17     18     19     20
         21     22     23     24     25     26     27     28     29     30
 .........................................................................
   1  ****** ****** ****** ****** ****** ****** ****** ****** ****** ******
      ****** ****** ****** ****** ****** ****** ****** ****** ****** ******
      ****** ****** ****** ****** ****** ****** ****** ****** ****** ******
   2  ****** ****** ****** ****** ****** ****** ****** ****** ****** ******
      ****** ****** ****** ****** ****** ****** ****** ****** ****** ******
      ****** ****** ****** ****** ****** ****** ****** ****** ****** ******
   3  ****** ****** ****** ****** ****** ****** ****** ****** ****** ******
      ****** ****** ****** ****** ****** ****** ****** ****** ****** ******
      ****** ****** ****** ****** ****** ****** ****** ****** ****** ******
   4  ****** ****** ****** ****** ****** ****** ****** ****** ****** ******
      ****** ****** ****** ****** ****** ****** ****** ****** ****** ******
      ****** ****** ****** ****** ****** ****** ****** ****** ****** ******
   5  ****** ****** ****** ****** ****** ****** ****** ****** ****** ******
      ****** ****** ****** ****** ****** ****** ****** ****** ****** ******
      ****** ****** ****** ****** ****** ****** ****** ****** ****** ******
   6  ****** ****** ****** ****** ****** ****** ****** ****** ****** ******
      ****** ****** ****** ****** ****** ****** ****** ****** ****** ******
      ****** ****** ****** ****** ****** ****** ****** ****** ****** ******
   7  ****** ****** ****** ****** ****** ****** ****** ****** ****** ******
      ****** ****** ****** ****** ****** ****** ****** ****** ****** ******
      ****** ****** ****** ****** ****** ****** ****** ****** ****** ******
   8  ****** ****** ****** ****** ****** ****** ****** ****** ****** ******
      ****** ****** ****** ****** ****** ****** ****** ****** ****** ******
      ****** ****** ****** ****** ****** ****** ****** ****** ****** ******
   9  ****** ****** ****** ****** ****** ****** ****** ****** ****** ******
      ****** ****** ****** ****** ****** ****** ****** ****** ****** ******
      ****** ****** ****** ****** ****** ****** ****** ****** ****** ******
  10  ****** ****** ****** ****** ****** ****** ****** ****** ****** ******
      ****** ****** ****** ****** ****** ****** ****** ****** ****** ******
      ****** ****** ****** ****** ****** ****** ****** ****** ****** ******
  11  ****** ****** ****** ****** ****** ****** ****** ****** ****** ******
      ****** ****** ****** ****** ****** ****** ****** ****** ****** ******
      ****** ****** ****** ****** ****** ****** ****** ****** ****** ******
  12  ****** ****** ****** ****** ****** ****** ****** ****** ****** ******
      ****** ****** ****** ****** ****** ****** ****** ****** ****** ******
      ****** ****** ****** ****** ****** ****** ****** ****** ****** ******
  13  ****** ****** ****** ****** ****** ****** ****** ****** ****** ******
      ****** ****** ****** ****** ****** ****** ****** ****** ****** ******
      ****** ****** ****** ****** ****** ****** ****** ****** ****** ******
  14  ****** ****** ****** ****** ****** ****** ****** ****** ****** ******
      ****** ****** ****** ****** ****** ****** ****** ****** ****** ******
      ****** ****** ****** ****** ****** ****** ****** ****** ****** ******
  15  ****** ****** ****** ****** ****** ****** ****** ****** ****** ******
      ****** ****** ****** ****** ****** ****** ****** ****** ****** ******
      ****** ****** ****** ****** ****** ****** ****** ****** ****** ******
  16  ****** ****** ****** ****** ****** ****** ****** ****** ****** ******
      ****** ****** ****** ****** ****** ****** ****** ****** ****** ******
      ****** ****** ****** ****** ****** ****** ****** ****** ****** ******
  17  ****** ****** ****** ****** ****** ****** ****** ****** ****** ******
      ****** ****** ****** ****** ****** ****** ****** ****** ****** ******
      ****** ****** ****** ****** ****** ****** ****** ****** ****** ******
  18  ****** ****** ****** ****** ****** ****** ****** ****** ****** ******
      ****** ****** ****** ****** ****** ****** ****** ****** ****** ******
      ****** ****** ****** ****** ****** ****** ****** ****** ****** ******
  19  ****** ****** ****** ****** ****** ****** ****** ****** ****** ******
      ****** ****** ****** ****** ****** ****** ****** ****** ****** ******
      ****** ****** ****** ****** ****** ****** ****** ****** ****** ******
  20  ****** ****** ****** ****** ****** ****** ****** ****** ****** ******
      ****** ****** ****** ****** ****** ****** ****** ****** ****** ******
      ****** ****** ****** ****** ****** ****** ****** ****** ****** ******
  21  ****** ****** ****** ****** ****** ****** ****** ****** ****** ******
      ****** ****** ****** ****** ****** ****** ****** ****** ****** ******
      ****** ****** ****** ****** ****** ****** ****** ****** ****** ******
  22  ****** ****** ****** ****** ****** ****** ****** ****** ****** ******
      ****** ****** ****** ****** ****** ****** ****** ****** ****** ******
      ****** ****** ****** ****** ****** ****** ****** ****** ****** ******
  23  ****** ****** ****** ****** ****** ****** ****** ****** ****** ******
      ****** ****** ****** ****** ****** ****** ****** ****** ****** ******
      ****** ****** ****** ****** ****** ****** ****** ****** ****** ******
  24  ****** ****** ****** ****** ****** ****** ****** ****** ****** ******
      ****** ****** ****** ****** ****** ****** ****** ****** ****** ******
      ****** ****** ****** ****** ****** ****** ****** ****** ****** ******
  25  ****** ****** ****** ****** ****** ****** ****** ****** ****** ******
      ****** ****** ****** ****** ****** ****** ****** ****** ****** ******
      ****** ****** ****** ****** ****** ****** ****** ****** ****** ******

 HEAD WILL BE SAVED ON UNIT   51 AT END OF TIME STEP    1, STRESS PERIOD    6
1
  VOLUMETRIC BUDGET FOR ENTIRE MODEL AT END OF TIME STEP    1, STRESS PERIOD   6
  ------------------------------------------------------------------------------

     CUMULATIVE VOLUMES      L**3       RATES FOR THIS TIME STEP      L**3/T
     ------------------                 ------------------------

           IN:                                      IN:
           ---                                      ---
             STORAGE =    20430866.8426               STORAGE =           0.0000
       CONSTANT HEAD =   697894285.9696         CONSTANT HEAD =     1273423.9895
               WELLS =           0.0000                 WELLS =           0.0000
            RECHARGE =    15097200.0000              RECHARGE =       55200.0000
      STREAM LEAKAGE =           0.0000        STREAM LEAKAGE =           0.0000

            TOTAL IN =   733422352.8122              TOTAL IN =     1328623.9895

          OUT:                                     OUT:
          ----                                     ----
             STORAGE =      279548.5786               STORAGE =        1937.9824
       CONSTANT HEAD =           0.0000         CONSTANT HEAD =           0.0000
               WELLS =    84940274.0000                 WELLS =      155000.5000
            RECHARGE =           0.0000              RECHARGE =           0.0000
      STREAM LEAKAGE =   648202534.7065        STREAM LEAKAGE =     1171685.4735

           TOTAL OUT =   733422357.2851             TOTAL OUT =     1328623.9558

            IN - OUT =          -4.4729              IN - OUT =       3.3686E-02

 PERCENT DISCREPANCY =          -0.00     PERCENT DISCREPANCY =           0.00






         TIME SUMMARY AT END OF TIME STEP    1 IN STRESS PERIOD    6
                    SECONDS     MINUTES      HOURS       DAYS        YEARS
                    -----------------------------------------------------------
   TIME STEP LENGTH 7.86240E+06 1.31040E+05  2184.0      91.000     0.24914    
 STRESS PERIOD TIME 7.86240E+06 1.31040E+05  2184.0      91.000     0.24914    
         TOTAL TIME 4.73472E+07 7.89120E+05  13152.      548.00      1.5003    
1
1
                            STRESS PERIOD NO.    7, LENGTH =   91.00000    
                            -----------------------------------------------

                              NUMBER OF TIME STEPS =     1

                               MULTIPLIER FOR DELT =     1.500

                            INITIAL TIME STEP SIZE =   91.00000    

 WELL NO.  LAYER   ROW   COL   STRESS RATE         
 --------------------------------------------------
      1      1      4      8     -0.5000E+05
      2      1      2      9     -0.5000E+05
      3      1      2      7     -0.5000E+05

      3 WELLS

                 RECHARGE =   0.00000    

 REUSING STREAM SEGMENT DATA FROM LAST STRESS PERIOD
 
 SOLVING FOR HEAD 


     6 CALLS TO PCG ROUTINE FOR TIME STEP   1 IN STRESS PERIOD    7
    22 TOTAL ITERATIONS

 OUTPUT CONTROL FOR STRESS PERIOD    7   TIME STEP    1
    SAVE BUDGET
    SAVE HEAD FOR ALL LAYERS
    PRINT HEAD FOR ALL LAYERS
 UBDSV2 SAVING "STREAMFLOW OUT  " ON UNIT  50 AT TIME STEP  1, STRESS PERIOD   7



 STREAM LISTING     PERIOD      7   STEP        1

 LAYER ROW COL. STREAM  RCH.  FLOW INTO     FLOW TO   FLOW OUT OF   OVRLND.     DIRECT     STREAM       STREAM     STREAM     STREAM   STREAMBED  STREAMBED
                SEG.NO.  NO.  STRM. RCH.    AQUIFER    STRM. RCH.    RUNOFF     PRECIP       ET          HEAD       DEPTH      WIDTH   CONDCTNC.   GRADIENT

   1   13    1     1     1    1.0000E+05 -2.5937E+04   1.2594E+05  0.000E+00  0.000E+00  0.000E+00  4.84170E+01  1.556E-01  2.000E+01  2.000E+04 -1.297E+00
   1   13    2     1     2    1.2594E+05 -3.5127E+04   1.6106E+05  0.000E+00  0.000E+00  0.000E+00  4.79637E+01  1.797E-01  2.000E+01  2.000E+04 -1.756E+00
   1   14    3     1     3    1.6106E+05 -3.1189E+04   1.9225E+05  0.000E+00  0.000E+00  0.000E+00  4.75103E+01  2.035E-01  2.000E+01  2.000E+04 -1.559E+00
   1   15    4     1     4    1.9225E+05 -3.0854E+04   2.2311E+05  0.000E+00  0.000E+00  0.000E+00  4.70538E+01  2.243E-01  2.000E+01  2.000E+04 -1.543E+00
   1   16    5     1     5    2.2311E+05 -3.2887E+04   2.5599E+05  0.000E+00  0.000E+00  0.000E+00  4.65966E+01  2.443E-01  2.000E+01  2.000E+04 -1.644E+00
   1   16    6     1     6    2.5599E+05 -2.8599E+04   2.8459E+05  0.000E+00  0.000E+00  0.000E+00  4.61377E+01  2.627E-01  2.000E+01  2.000E+04 -1.430E+00
   1   16    7     1     7    2.8459E+05 -2.8378E+04   3.1297E+05  0.000E+00  0.000E+00  0.000E+00  4.56767E+01  2.790E-01  2.000E+01  2.000E+04 -1.419E+00
   1   16    8     1     8    3.1297E+05 -2.8557E+04   3.4153E+05  0.000E+00  0.000E+00  0.000E+00  4.52151E+01  2.946E-01  2.000E+01  2.000E+04 -1.428E+00
   1   16    9     1     9    3.4153E+05 -2.8675E+04   3.7020E+05  0.000E+00  0.000E+00  0.000E+00  4.47530E+01  3.098E-01  2.000E+01  2.000E+04 -1.434E+00
   1   16   10     1    10    3.7020E+05 -2.8779E+04   3.9898E+05  0.000E+00  0.000E+00  0.000E+00  4.42905E+01  3.246E-01  2.000E+01  2.000E+04 -1.439E+00
   1   16   11     1    11    3.9898E+05 -2.9496E+04   4.2848E+05  0.000E+00  0.000E+00  0.000E+00  4.38278E+01  3.391E-01  2.000E+01  2.000E+04 -1.475E+00
   1   16   12     1    12    4.2848E+05 -3.5117E+04   4.6359E+05  0.000E+00  0.000E+00  0.000E+00  4.33661E+01  3.548E-01  2.000E+01  2.000E+04 -1.756E+00
   1   15   13     1    13    4.6359E+05 -3.3495E+04   4.9709E+05  0.000E+00  0.000E+00  0.000E+00  4.29050E+01  3.709E-01  2.000E+01  2.000E+04 -1.675E+00
   1   14   14     1    14    4.9709E+05 -3.3884E+04   5.3097E+05  0.000E+00  0.000E+00  0.000E+00  4.24431E+01  3.863E-01  2.000E+01  2.000E+04 -1.694E+00
   1   13   15     1    15    5.3097E+05 -3.5992E+04   5.6697E+05  0.000E+00  0.000E+00  0.000E+00  4.19814E+01  4.018E-01  2.000E+01  2.000E+04 -1.800E+00
   1   12   16     1    16    5.6697E+05 -4.1945E+04   6.0891E+05  0.000E+00  0.000E+00  0.000E+00  4.15210E+01  4.187E-01  2.000E+01  2.000E+04 -2.097E+00
   1   12   17     1    17    6.0891E+05 -3.3088E+04   6.4200E+05  0.000E+00  0.000E+00  0.000E+00  4.10596E+01  4.346E-01  2.000E+01  2.000E+04 -1.654E+00
   1   12   18     1    18    6.4200E+05 -3.1687E+04   6.7369E+05  0.000E+00  0.000E+00  0.000E+00  4.05956E+01  4.479E-01  2.000E+01  2.000E+04 -1.584E+00
   1   12   19     1    19    6.7369E+05 -3.5819E+04   7.0951E+05  0.000E+00  0.000E+00  0.000E+00  4.01320E+01  4.616E-01  2.000E+01  2.000E+04 -1.791E+00
   1   13   20     1    20    7.0951E+05 -2.6382E+04   7.3589E+05  0.000E+00  0.000E+00  0.000E+00  3.96671E+01  4.739E-01  2.000E+01  2.000E+04 -1.319E+00
   1   14   21     1    21    7.3589E+05 -1.9467E+04   7.5536E+05  0.000E+00  0.000E+00  0.000E+00  3.91988E+01  4.829E-01  2.000E+01  2.000E+04 -9.734E-01
   1   14   22     1    22    7.5536E+05 -1.6979E+03   7.5705E+05  0.000E+00  0.000E+00  0.000E+00  3.87256E+01  4.870E-01  2.000E+01  2.000E+04 -8.490E-02
   1    9   30     2     1    5.0000E+04 -2.6325E+04   7.6325E+04  0.000E+00  0.000E+00  0.000E+00  4.02583E+01  1.333E-01  2.000E+01  2.000E+04 -1.316E+00
   1    9   29     2     2    7.6325E+04 -2.8788E+04   1.0511E+05  0.000E+00  0.000E+00  0.000E+00  4.00407E+01  1.657E-01  2.000E+01  2.000E+04 -1.439E+00
   1    9   28     2     3    1.0511E+05 -3.3058E+04   1.3817E+05  0.000E+00  0.000E+00  0.000E+00  3.98225E+01  1.975E-01  2.000E+01  2.000E+04 -1.653E+00
   1    9   27     2     4    1.3817E+05 -4.7098E+04   1.8527E+05  0.000E+00  0.000E+00  0.000E+00  3.96093E+01  2.343E-01  2.000E+01  2.000E+04 -2.355E+00
   1   10   26     2     5    1.8527E+05 -3.3052E+04   2.1832E+05  0.000E+00  0.000E+00  0.000E+00  3.93926E+01  2.676E-01  2.000E+01  2.000E+04 -1.653E+00
   1   11   25     2     6    2.1832E+05 -2.4710E+04   2.4303E+05  0.000E+00  0.000E+00  0.000E+00  3.91650E+01  2.900E-01  2.000E+01  2.000E+04 -1.236E+00
   1   12   24     2     7    2.4303E+05 -1.8177E+04   2.6121E+05  0.000E+00  0.000E+00  0.000E+00  3.89309E+01  3.059E-01  2.000E+01  2.000E+04 -9.088E-01
   1   13   23     2     8    2.6121E+05 -1.2896E+04   2.7410E+05  0.000E+00  0.000E+00  0.000E+00  3.86920E+01  3.170E-01  2.000E+01  2.000E+04 -6.448E-01
   1   14   22     2     9    2.7410E+05 -7.2274E+03   2.8133E+05  0.000E+00  0.000E+00  0.000E+00  3.84491E+01  3.241E-01  2.000E+01  2.000E+04 -3.614E-01
   1   14   22     3     1    1.0384E+06 -1.5280E+04   1.0537E+06  0.000E+00  0.000E+00  0.000E+00  3.80465E+01  4.909E-01  2.000E+01  2.000E+04 -7.640E-01
   1   15   23     3     2    1.0537E+06 -2.3510E+04   1.0772E+06  0.000E+00  0.000E+00  0.000E+00  3.71630E+01  4.964E-01  2.000E+01  2.000E+04 -1.175E+00
   1   15   24     3     3    1.0772E+06 -1.9572E+04   1.0967E+06  0.000E+00  0.000E+00  0.000E+00  3.62802E+01  5.024E-01  2.000E+01  2.000E+04 -9.786E-01
   1   15   25     3     4    1.0967E+06 -1.9166E+04   1.1159E+06  0.000E+00  0.000E+00  0.000E+00  3.53966E+01  5.077E-01  2.000E+01  2.000E+04 -9.583E-01
   1   15   26     3     5    1.1159E+06 -2.1890E+04   1.1378E+06  0.000E+00  0.000E+00  0.000E+00  3.45134E+01  5.134E-01  2.000E+01  2.000E+04 -1.094E+00
   1   16   27     3     6    1.1378E+06 -2.9028E+04   1.1668E+06  0.000E+00  0.000E+00  0.000E+00  3.36314E+01  5.203E-01  2.000E+01  2.000E+04 -1.451E+00
   1   17   28     3     7    1.1668E+06 -3.6085E+04   1.2029E+06  0.000E+00  0.000E+00  0.000E+00  3.27513E+01  5.291E-01  2.000E+01  2.000E+04 -1.804E+00
   1   18   29     3     8    1.2029E+06 -4.7094E+04   1.2500E+06  0.000E+00  0.000E+00  0.000E+00  3.18735E+01  5.401E-01  2.000E+01  2.000E+04 -2.355E+00
   1   18   30     3     9    1.2500E+06 -4.3552E+04   1.2936E+06  0.000E+00  0.000E+00  0.000E+00  3.09965E+01  5.520E-01  2.000E+01  2.000E+04 -2.178E+00



1
              HEAD IN LAYER   1 AT END OF TIME STEP   1 IN STRESS PERIOD    7
  ---------------------------------------------------------------------------

          1      2      3      4      5      6      7      8      9     10
         11     12     13     14     15     16     17     18     19     20
         21     22     23     24     25     26     27     28     29     30
 .........................................................................
   1  ****** ****** ****** ****** ****** ****** ****** ****** ****** ******
      ****** ****** ****** ****** ****** ****** ****** ****** ****** ******
      ****** ****** ****** ****** ****** ****** ****** ****** ****** ******
   2  ****** ****** ****** ****** ****** ****** ****** ****** ****** ******
      ****** ****** ****** ****** ****** ****** ****** ****** ****** ******
      ****** ****** ****** ****** ****** ****** ****** ****** ****** ******
   3  ****** ****** ****** ****** ****** ****** ****** ****** ****** ******
      ****** ****** ****** ****** ****** ****** ****** ****** ****** ******
      ****** ****** ****** ****** ****** ****** ****** ****** ****** ******
   4  ****** ****** ****** ****** ****** ****** ****** ****** ****** ******
      ****** ****** ****** ****** ****** ****** ****** ****** ****** ******
      ****** ****** ****** ****** ****** ****** ****** ****** ****** ******
   5  ****** ****** ****** ****** ****** ****** ****** ****** ****** ******
      ****** ****** ****** ****** ****** ****** ****** ****** ****** ******
      ****** ****** ****** ****** ****** ****** ****** ****** ****** ******
   6  ****** ****** ****** ****** ****** ****** ****** ****** ****** ******
      ****** ****** ****** ****** ****** ****** ****** ****** ****** ******
      ****** ****** ****** ****** ****** ****** ****** ****** ****** ******
   7  ****** ****** ****** ****** ****** ****** ****** ****** ****** ******
      ****** ****** ****** ****** ****** ****** ****** ****** ****** ******
      ****** ****** ****** ****** ****** ****** ****** ****** ****** ******
   8  ****** ****** ****** ****** ****** ****** ****** ****** ****** ******
      ****** ****** ****** ****** ****** ****** ****** ****** ****** ******
      ****** ****** ****** ****** ****** ****** ****** ****** ****** ******
   9  ****** ****** ****** ****** ****** ****** ****** ****** ****** ******
      ****** ****** ****** ****** ****** ****** ****** ****** ****** ******
      ****** ****** ****** ****** ****** ****** ****** ****** ****** ******
  10  ****** ****** ****** ****** ****** ****** ****** ****** ****** ******
      ****** ****** ****** ****** ****** ****** ****** ****** ****** ******
      ****** ****** ****** ****** ****** ****** ****** ****** ****** ******
  11  ****** ****** ****** ****** ****** ****** ****** ****** ****** ******
      ****** ****** ****** ****** ****** ****** ****** ****** ****** ******
      ****** ****** ****** ****** ****** ****** ****** ****** ****** ******
  12  ****** ****** ****** ****** ****** ****** ****** ****** ****** ******
      ****** ****** ****** ****** ****** ****** ****** ****** ****** ******
      ****** ****** ****** ****** ****** ****** ****** ****** ****** ******
  13  ****** ****** ****** ****** ****** ****** ****** ****** ****** ******
      ****** ****** ****** ****** ****** ****** ****** ****** ****** ******
      ****** ****** ****** ****** ****** ****** ****** ****** ****** ******
  14  ****** ****** ****** ****** ****** ****** ****** ****** ****** ******
      ****** ****** ****** ****** ****** ****** ****** ****** ****** ******
      ****** ****** ****** ****** ****** ****** ****** ****** ****** ******
  15  ****** ****** ****** ****** ****** ****** ****** ****** ****** ******
      ****** ****** ****** ****** ****** ****** ****** ****** ****** ******
      ****** ****** ****** ****** ****** ****** ****** ****** ****** ******
  16  ****** ****** ****** ****** ****** ****** ****** ****** ****** ******
      ****** ****** ****** ****** ****** ****** ****** ****** ****** ******
      ****** ****** ****** ****** ****** ****** ****** ****** ****** ******
  17  ****** ****** ****** ****** ****** ****** ****** ****** ****** ******
      ****** ****** ****** ****** ****** ****** ****** ****** ****** ******
      ****** ****** ****** ****** ****** ****** ****** ****** ****** ******
  18  ****** ****** ****** ****** ****** ****** ****** ****** ****** ******
      ****** ****** ****** ****** ****** ****** ****** ****** ****** ******
      ****** ****** ****** ****** ****** ****** ****** ****** ****** ******
  19  ****** ****** ****** ****** ****** ****** ****** ****** ****** ******
      ****** ****** ****** ****** ****** ****** ****** ****** ****** ******
      ****** ****** ****** ****** ****** ****** ****** ****** ****** ******
  20  ****** ****** ****** ****** ****** ****** ****** ****** ****** ******
      ****** ****** ****** ****** ****** ****** ****** ****** ****** ******
      ****** ****** ****** ****** ****** ****** ****** ****** ****** ******
  21  ****** ****** ****** ****** ****** ****** ****** ****** ****** ******
      ****** ****** ****** ****** ****** ****** ****** ****** ****** ******
      ****** ****** ****** ****** ****** ****** ****** ****** ****** ******
  22  ****** ****** ****** ****** ****** ****** ****** ****** ****** ******
      ****** ****** ****** ****** ****** ****** ****** ****** ****** ******
      ****** ****** ****** ****** ****** ****** ****** ****** ****** ******
  23  ****** ****** ****** ****** ****** ****** ****** ****** ****** ******
      ****** ****** ****** ****** ****** ****** ****** ****** ****** ******
      ****** ****** ****** ****** ****** ****** ****** ****** ****** ******
  24  ****** ****** ****** ****** ****** ****** ****** ****** ****** ******
      ****** ****** ****** ****** ****** ****** ****** ****** ****** ******
      ****** ****** ****** ****** ****** ****** ****** ****** ****** ******
  25  ****** ****** ****** ****** ****** ****** ****** ****** ****** ******
      ****** ****** ****** ****** ****** ****** ****** ****** ****** ******
      ****** ****** ****** ****** ****** ****** ****** ****** ****** ******

 HEAD WILL BE SAVED ON UNIT   51 AT END OF TIME STEP    1, STRESS PERIOD    7
1
  VOLUMETRIC BUDGET FOR ENTIRE MODEL AT END OF TIME STEP    1, STRESS PERIOD   7
  ------------------------------------------------------------------------------

     CUMULATIVE VOLUMES      L**3       RATES FOR THIS TIME STEP      L**3/T
     ------------------                 ------------------------

           IN:                                      IN:
           ---                                      ---
             STORAGE =    20648791.3331               STORAGE =        2394.7746
       CONSTANT HEAD =   815391123.2176         CONSTANT HEAD =     1291174.0357
               WELLS =           0.0000                 WELLS =           0.0000
            RECHARGE =    15097200.0000              RECHARGE =           0.0000
      STREAM LEAKAGE =           0.0000        STREAM LEAKAGE =           0.0000

            TOTAL IN =   851137114.5507              TOTAL IN =     1293568.8103

          OUT:                                     OUT:
          ----                                     ----
             STORAGE =      280294.9482               STORAGE =           8.2019
       CONSTANT HEAD =           0.0000         CONSTANT HEAD =           0.0000
               WELLS =    98590274.0000                 WELLS =      150000.0000
            RECHARGE =           0.0000              RECHARGE =           0.0000
      STREAM LEAKAGE =   752266554.0693        STREAM LEAKAGE =     1143560.6523

           TOTAL OUT =   851137123.0176             TOTAL OUT =     1293568.8542

            IN - OUT =          -8.4669              IN - OUT =      -4.3891E-02

 PERCENT DISCREPANCY =          -0.00     PERCENT DISCREPANCY =          -0.00






         TIME SUMMARY AT END OF TIME STEP    1 IN STRESS PERIOD    7
                    SECONDS     MINUTES      HOURS       DAYS        YEARS
                    -----------------------------------------------------------
   TIME STEP LENGTH 7.86240E+06 1.31040E+05  2184.0      91.000     0.24914    
 STRESS PERIOD TIME 7.86240E+06 1.31040E+05  2184.0      91.000     0.24914    
         TOTAL TIME 5.52096E+07 9.20160E+05  15336.      639.00      1.7495    
1
1
                            STRESS PERIOD NO.    8, LENGTH =   91.00000    
                            -----------------------------------------------

                              NUMBER OF TIME STEPS =     1

                               MULTIPLIER FOR DELT =     1.500

                            INITIAL TIME STEP SIZE =   91.00000    

 WELL NO.  LAYER   ROW   COL   STRESS RATE         
 --------------------------------------------------
      1      1      4      8     -0.5000E+05
      2      1      2      9     -0.5000E+05
      3      1      2      7     -0.5000E+05

      3 WELLS

                 RECHARGE =  1.000000E-03

 REUSING STREAM SEGMENT DATA FROM LAST STRESS PERIOD
 
 SOLVING FOR HEAD 


     6 CALLS TO PCG ROUTINE FOR TIME STEP   1 IN STRESS PERIOD    8
    22 TOTAL ITERATIONS

 OUTPUT CONTROL FOR STRESS PERIOD    8   TIME STEP    1
    SAVE BUDGET
    SAVE HEAD FOR ALL LAYERS
    PRINT HEAD FOR ALL LAYERS
 UBDSV2 SAVING "STREAMFLOW OUT  " ON UNIT  50 AT TIME STEP  1, STRESS PERIOD   8



 STREAM LISTING     PERIOD      8   STEP        1

 LAYER ROW COL. STREAM  RCH.  FLOW INTO     FLOW TO   FLOW OUT OF   OVRLND.     DIRECT     STREAM       STREAM     STREAM     STREAM   STREAMBED  STREAMBED
                SEG.NO.  NO.  STRM. RCH.    AQUIFER    STRM. RCH.    RUNOFF     PRECIP       ET          HEAD       DEPTH      WIDTH   CONDCTNC.   GRADIENT

   1   13    1     1     1    1.0000E+05 -2.6333E+04   1.2633E+05  0.000E+00  0.000E+00  0.000E+00  4.84172E+01  1.558E-01  2.000E+01  2.000E+04 -1.317E+00
   1   13    2     1     2    1.2633E+05 -3.5599E+04   1.6193E+05  0.000E+00  0.000E+00  0.000E+00  4.79642E+01  1.801E-01  2.000E+01  2.000E+04 -1.780E+00
   1   14    3     1     3    1.6193E+05 -3.1654E+04   1.9359E+05  0.000E+00  0.000E+00  0.000E+00  4.75111E+01  2.043E-01  2.000E+01  2.000E+04 -1.583E+00
   1   15    4     1     4    1.9359E+05 -3.1303E+04   2.2489E+05  0.000E+00  0.000E+00  0.000E+00  4.70548E+01  2.253E-01  2.000E+01  2.000E+04 -1.565E+00
   1   16    5     1     5    2.2489E+05 -3.3294E+04   2.5818E+05  0.000E+00  0.000E+00  0.000E+00  4.65978E+01  2.455E-01  2.000E+01  2.000E+04 -1.665E+00
   1   16    6     1     6    2.5818E+05 -2.8952E+04   2.8714E+05  0.000E+00  0.000E+00  0.000E+00  4.61391E+01  2.641E-01  2.000E+01  2.000E+04 -1.448E+00
   1   16    7     1     7    2.8714E+05 -2.8728E+04   3.1586E+05  0.000E+00  0.000E+00  0.000E+00  4.56782E+01  2.805E-01  2.000E+01  2.000E+04 -1.436E+00
   1   16    8     1     8    3.1586E+05 -2.8908E+04   3.4477E+05  0.000E+00  0.000E+00  0.000E+00  4.52167E+01  2.963E-01  2.000E+01  2.000E+04 -1.445E+00
   1   16    9     1     9    3.4477E+05 -2.9025E+04   3.7380E+05  0.000E+00  0.000E+00  0.000E+00  4.47548E+01  3.116E-01  2.000E+01  2.000E+04 -1.451E+00
   1   16   10     1    10    3.7380E+05 -2.9129E+04   4.0293E+05  0.000E+00  0.000E+00  0.000E+00  4.42924E+01  3.265E-01  2.000E+01  2.000E+04 -1.456E+00
   1   16   11     1    11    4.0293E+05 -2.9850E+04   4.3278E+05  0.000E+00  0.000E+00  0.000E+00  4.38298E+01  3.411E-01  2.000E+01  2.000E+04 -1.493E+00
   1   16   12     1    12    4.3278E+05 -3.5530E+04   4.6831E+05  0.000E+00  0.000E+00  0.000E+00  4.33683E+01  3.569E-01  2.000E+01  2.000E+04 -1.777E+00
   1   15   13     1    13    4.6831E+05 -3.3950E+04   5.0226E+05  0.000E+00  0.000E+00  0.000E+00  4.29073E+01  3.732E-01  2.000E+01  2.000E+04 -1.697E+00
   1   14   14     1    14    5.0226E+05 -3.4353E+04   5.3661E+05  0.000E+00  0.000E+00  0.000E+00  4.24455E+01  3.887E-01  2.000E+01  2.000E+04 -1.718E+00
   1   13   15     1    15    5.3661E+05 -3.6456E+04   5.7306E+05  0.000E+00  0.000E+00  0.000E+00  4.19840E+01  4.044E-01  2.000E+01  2.000E+04 -1.823E+00
   1   12   16     1    16    5.7306E+05 -4.2392E+04   6.1546E+05  0.000E+00  0.000E+00  0.000E+00  4.15237E+01  4.214E-01  2.000E+01  2.000E+04 -2.120E+00
   1   12   17     1    17    6.1546E+05 -3.3450E+04   6.4891E+05  0.000E+00  0.000E+00  0.000E+00  4.10623E+01  4.373E-01  2.000E+01  2.000E+04 -1.672E+00
   1   12   18     1    18    6.4891E+05 -3.2034E+04   6.8094E+05  0.000E+00  0.000E+00  0.000E+00  4.05985E+01  4.508E-01  2.000E+01  2.000E+04 -1.602E+00
   1   12   19     1    19    6.8094E+05 -3.6199E+04   7.1714E+05  0.000E+00  0.000E+00  0.000E+00  4.01350E+01  4.645E-01  2.000E+01  2.000E+04 -1.810E+00
   1   13   20     1    20    7.1714E+05 -2.6740E+04   7.4388E+05  0.000E+00  0.000E+00  0.000E+00  3.96702E+01  4.770E-01  2.000E+01  2.000E+04 -1.337E+00
   1   14   21     1    21    7.4388E+05 -1.9775E+04   7.6365E+05  0.000E+00  0.000E+00  0.000E+00  3.92019E+01  4.860E-01  2.000E+01  2.000E+04 -9.888E-01
   1   14   22     1    22    7.6365E+05 -1.8076E+03   7.6546E+05  0.000E+00  0.000E+00  0.000E+00  3.87288E+01  4.902E-01  2.000E+01  2.000E+04 -9.038E-02
   1    9   30     2     1    5.0000E+04 -2.6607E+04   7.6607E+04  0.000E+00  0.000E+00  0.000E+00  4.02585E+01  1.335E-01  2.000E+01  2.000E+04 -1.330E+00
   1    9   29     2     2    7.6607E+04 -2.9069E+04   1.0568E+05  0.000E+00  0.000E+00  0.000E+00  4.00411E+01  1.661E-01  2.000E+01  2.000E+04 -1.453E+00
   1    9   28     2     3    1.0568E+05 -3.3348E+04   1.3902E+05  0.000E+00  0.000E+00  0.000E+00  3.98232E+01  1.982E-01  2.000E+01  2.000E+04 -1.667E+00
   1    9   27     2     4    1.3902E+05 -4.7451E+04   1.8648E+05  0.000E+00  0.000E+00  0.000E+00  3.96102E+01  2.352E-01  2.000E+01  2.000E+04 -2.373E+00
   1   10   26     2     5    1.8648E+05 -3.3419E+04   2.1989E+05  0.000E+00  0.000E+00  0.000E+00  3.93937E+01  2.687E-01  2.000E+01  2.000E+04 -1.671E+00
   1   11   25     2     6    2.1989E+05 -2.5064E+04   2.4496E+05  0.000E+00  0.000E+00  0.000E+00  3.91663E+01  2.913E-01  2.000E+01  2.000E+04 -1.253E+00
   1   12   24     2     7    2.4496E+05 -1.8494E+04   2.6345E+05  0.000E+00  0.000E+00  0.000E+00  3.89324E+01  3.074E-01  2.000E+01  2.000E+04 -9.247E-01
   1   13   23     2     8    2.6345E+05 -1.3154E+04   2.7661E+05  0.000E+00  0.000E+00  0.000E+00  3.86937E+01  3.187E-01  2.000E+01  2.000E+04 -6.577E-01
   1   14   22     2     9    2.7661E+05 -7.3654E+03   2.8397E+05  0.000E+00  0.000E+00  0.000E+00  3.84509E+01  3.259E-01  2.000E+01  2.000E+04 -3.683E-01
   1   14   22     3     1    1.0494E+06 -1.5392E+04   1.0648E+06  0.000E+00  0.000E+00  0.000E+00  3.80496E+01  4.941E-01  2.000E+01  2.000E+04 -7.696E-01
   1   15   23     3     2    1.0648E+06 -2.3798E+04   1.0886E+06  0.000E+00  0.000E+00  0.000E+00  3.71662E+01  4.995E-01  2.000E+01  2.000E+04 -1.190E+00
   1   15   24     3     3    1.0886E+06 -1.9812E+04   1.1084E+06  0.000E+00  0.000E+00  0.000E+00  3.62834E+01  5.056E-01  2.000E+01  2.000E+04 -9.906E-01
   1   15   25     3     4    1.1084E+06 -1.9405E+04   1.1278E+06  0.000E+00  0.000E+00  0.000E+00  3.53999E+01  5.110E-01  2.000E+01  2.000E+04 -9.703E-01
   1   15   26     3     5    1.1278E+06 -2.2169E+04   1.1500E+06  0.000E+00  0.000E+00  0.000E+00  3.45167E+01  5.167E-01  2.000E+01  2.000E+04 -1.108E+00
   1   16   27     3     6    1.1500E+06 -2.9364E+04   1.1794E+06  0.000E+00  0.000E+00  0.000E+00  3.36347E+01  5.236E-01  2.000E+01  2.000E+04 -1.468E+00
   1   17   28     3     7    1.1794E+06 -3.6429E+04   1.2158E+06  0.000E+00  0.000E+00  0.000E+00  3.27547E+01  5.325E-01  2.000E+01  2.000E+04 -1.821E+00
   1   18   29     3     8    1.2158E+06 -4.7417E+04   1.2632E+06  0.000E+00  0.000E+00  0.000E+00  3.18769E+01  5.436E-01  2.000E+01  2.000E+04 -2.371E+00
   1   18   30     3     9    1.2632E+06 -4.3822E+04   1.3070E+06  0.000E+00  0.000E+00  0.000E+00  3.09999E+01  5.555E-01  2.000E+01  2.000E+04 -2.191E+00



1
              HEAD IN LAYER   1 AT END OF TIME STEP   1 IN STRESS PERIOD    8
  ---------------------------------------------------------------------------

          1      2      3      4      5      6      7      8      9     10
         11     12     13     14     15     16     17     18     19     20
         21     22     23     24     25     26     27     28     29     30
 .........................................................................
   1  ****** ****** ****** ****** ****** ****** ****** ****** ****** ******
      ****** ****** ****** ****** ****** ****** ****** ****** ****** ******
      ****** ****** ****** ****** ****** ****** ****** ****** ****** ******
   2  ****** ****** ****** ****** ****** ****** ****** ****** ****** ******
      ****** ****** ****** ****** ****** ****** ****** ****** ****** ******
      ****** ****** ****** ****** ****** ****** ****** ****** ****** ******
   3  ****** ****** ****** ****** ****** ****** ****** ****** ****** ******
      ****** ****** ****** ****** ****** ****** ****** ****** ****** ******
      ****** ****** ****** ****** ****** ****** ****** ****** ****** ******
   4  ****** ****** ****** ****** ****** ****** ****** ****** ****** ******
      ****** ****** ****** ****** ****** ****** ****** ****** ****** ******
      ****** ****** ****** ****** ****** ****** ****** ****** ****** ******
   5  ****** ****** ****** ****** ****** ****** ****** ****** ****** ******
      ****** ****** ****** ****** ****** ****** ****** ****** ****** ******
      ****** ****** ****** ****** ****** ****** ****** ****** ****** ******
   6  ****** ****** ****** ****** ****** ****** ****** ****** ****** ******
      ****** ****** ****** ****** ****** ****** ****** ****** ****** ******
      ****** ****** ****** ****** ****** ****** ****** ****** ****** ******
   7  ****** ****** ****** ****** ****** ****** ****** ****** ****** ******
      ****** ****** ****** ****** ****** ****** ****** ****** ****** ******
      ****** ****** ****** ****** ****** ****** ****** ****** ****** ******
   8  ****** ****** ****** ****** ****** ****** ****** ****** ****** ******
      ****** ****** ****** ****** ****** ****** ****** ****** ****** ******
      ****** ****** ****** ****** ****** ****** ****** ****** ****** ******
   9  ****** ****** ****** ****** ****** ****** ****** ****** ****** ******
      ****** ****** ****** ****** ****** ****** ****** ****** ****** ******
      ****** ****** ****** ****** ****** ****** ****** ****** ****** ******
  10  ****** ****** ****** ****** ****** ****** ****** ****** ****** ******
      ****** ****** ****** ****** ****** ****** ****** ****** ****** ******
      ****** ****** ****** ****** ****** ****** ****** ****** ****** ******
  11  ****** ****** ****** ****** ****** ****** ****** ****** ****** ******
      ****** ****** ****** ****** ****** ****** ****** ****** ****** ******
      ****** ****** ****** ****** ****** ****** ****** ****** ****** ******
  12  ****** ****** ****** ****** ****** ****** ****** ****** ****** ******
      ****** ****** ****** ****** ****** ****** ****** ****** ****** ******
      ****** ****** ****** ****** ****** ****** ****** ****** ****** ******
  13  ****** ****** ****** ****** ****** ****** ****** ****** ****** ******
      ****** ****** ****** ****** ****** ****** ****** ****** ****** ******
      ****** ****** ****** ****** ****** ****** ****** ****** ****** ******
  14  ****** ****** ****** ****** ****** ****** ****** ****** ****** ******
      ****** ****** ****** ****** ****** ****** ****** ****** ****** ******
      ****** ****** ****** ****** ****** ****** ****** ****** ****** ******
  15  ****** ****** ****** ****** ****** ****** ****** ****** ****** ******
      ****** ****** ****** ****** ****** ****** ****** ****** ****** ******
      ****** ****** ****** ****** ****** ****** ****** ****** ****** ******
  16  ****** ****** ****** ****** ****** ****** ****** ****** ****** ******
      ****** ****** ****** ****** ****** ****** ****** ****** ****** ******
      ****** ****** ****** ****** ****** ****** ****** ****** ****** ******
  17  ****** ****** ****** ****** ****** ****** ****** ****** ****** ******
      ****** ****** ****** ****** ****** ****** ****** ****** ****** ******
      ****** ****** ****** ****** ****** ****** ****** ****** ****** ******
  18  ****** ****** ****** ****** ****** ****** ****** ****** ****** ******
      ****** ****** ****** ****** ****** ****** ****** ****** ****** ******
      ****** ****** ****** ****** ****** ****** ****** ****** ****** ******
  19  ****** ****** ****** ****** ****** ****** ****** ****** ****** ******
      ****** ****** ****** ****** ****** ****** ****** ****** ****** ******
      ****** ****** ****** ****** ****** ****** ****** ****** ****** ******
  20  ****** ****** ****** ****** ****** ****** ****** ****** ****** ******
      ****** ****** ****** ****** ****** ****** ****** ****** ****** ******
      ****** ****** ****** ****** ****** ****** ****** ****** ****** ******
  21  ****** ****** ****** ****** ****** ****** ****** ****** ****** ******
      ****** ****** ****** ****** ****** ****** ****** ****** ****** ******
      ****** ****** ****** ****** ****** ****** ****** ****** ****** ******
  22  ****** ****** ****** ****** ****** ****** ****** ****** ****** ******
      ****** ****** ****** ****** ****** ****** ****** ****** ****** ******
      ****** ****** ****** ****** ****** ****** ****** ****** ****** ******
  23  ****** ****** ****** ****** ****** ****** ****** ****** ****** ******
      ****** ****** ****** ****** ****** ****** ****** ****** ****** ******
      ****** ****** ****** ****** ****** ****** ****** ****** ****** ******
  24  ****** ****** ****** ****** ****** ****** ****** ****** ****** ******
      ****** ****** ****** ****** ****** ****** ****** ****** ****** ******
      ****** ****** ****** ****** ****** ****** ****** ****** ****** ******
  25  ****** ****** ****** ****** ****** ****** ****** ****** ****** ******
      ****** ****** ****** ****** ****** ****** ****** ****** ****** ******
      ****** ****** ****** ****** ****** ****** ****** ****** ****** ******

 HEAD WILL BE SAVED ON UNIT   51 AT END OF TIME STEP    1, STRESS PERIOD    8
1
  VOLUMETRIC BUDGET FOR ENTIRE MODEL AT END OF TIME STEP    1, STRESS PERIOD   8
  ------------------------------------------------------------------------------

     CUMULATIVE VOLUMES      L**3       RATES FOR THIS TIME STEP      L**3/T
     ------------------                 ------------------------

           IN:                                      IN:
           ---                                      ---
             STORAGE =    20648791.3331               STORAGE =           0.0000
       CONSTANT HEAD =   931927399.0630         CONSTANT HEAD =     1280618.4159
               WELLS =           0.0000                 WELLS =           0.0000
            RECHARGE =    17608800.0000              RECHARGE =       27600.0000
      STREAM LEAKAGE =           0.0000        STREAM LEAKAGE =           0.0000

            TOTAL IN =   970184990.3961              TOTAL IN =     1308218.4159

          OUT:                                     OUT:
          ----                                     ----
             STORAGE =      387423.5726               STORAGE =        1177.2376
       CONSTANT HEAD =           0.0000         CONSTANT HEAD =           0.0000
               WELLS =   112240274.0000                 WELLS =      150000.0000
            RECHARGE =           0.0000              RECHARGE =           0.0000
      STREAM LEAKAGE =   857557299.3904        STREAM LEAKAGE =     1157041.1574

           TOTAL OUT =   970184996.9630             TOTAL OUT =     1308218.3950

            IN - OUT =          -6.5669              IN - OUT =       2.0880E-02

 PERCENT DISCREPANCY =          -0.00     PERCENT DISCREPANCY =           0.00






         TIME SUMMARY AT END OF TIME STEP    1 IN STRESS PERIOD    8
                    SECONDS     MINUTES      HOURS       DAYS        YEARS
                    -----------------------------------------------------------
   TIME STEP LENGTH 7.86240E+06 1.31040E+05  2184.0      91.000     0.24914    
 STRESS PERIOD TIME 7.86240E+06 1.31040E+05  2184.0      91.000     0.24914    
         TOTAL TIME 6.30720E+07 1.05120E+06  17520.      730.00      1.9986    
1
1
                            STRESS PERIOD NO.    9, LENGTH =   92.00000    
                            -----------------------------------------------

                              NUMBER OF TIME STEPS =     1

                               MULTIPLIER FOR DELT =     1.500

                            INITIAL TIME STEP SIZE =   92.00000    

 WELL NO.  LAYER   ROW   COL   STRESS RATE         
 --------------------------------------------------
      1      1      4      8     -0.5000E+05
      2      1      2      9     -0.5000E+05
      3      1      2      7     -0.5000E+05

      3 WELLS

                 RECHARGE =  5.000000E-04

 REUSING STREAM SEGMENT DATA FROM LAST STRESS PERIOD
 
 SOLVING FOR HEAD 


     5 CALLS TO PCG ROUTINE FOR TIME STEP   1 IN STRESS PERIOD    9
    20 TOTAL ITERATIONS

 OUTPUT CONTROL FOR STRESS PERIOD    9   TIME STEP    1
    SAVE BUDGET
    SAVE HEAD FOR ALL LAYERS
    PRINT HEAD FOR ALL LAYERS
 UBDSV2 SAVING "STREAMFLOW OUT  " ON UNIT  50 AT TIME STEP  1, STRESS PERIOD   9



 STREAM LISTING     PERIOD      9   STEP        1

 LAYER ROW COL. STREAM  RCH.  FLOW INTO     FLOW TO   FLOW OUT OF   OVRLND.     DIRECT     STREAM       STREAM     STREAM     STREAM   STREAMBED  STREAMBED
                SEG.NO.  NO.  STRM. RCH.    AQUIFER    STRM. RCH.    RUNOFF     PRECIP       ET          HEAD       DEPTH      WIDTH   CONDCTNC.   GRADIENT

   1   13    1     1     1    1.0000E+05 -2.6135E+04   1.2613E+05  0.000E+00  0.000E+00  0.000E+00  4.84171E+01  1.557E-01  2.000E+01  2.000E+04 -1.307E+00
   1   13    2     1     2    1.2613E+05 -3.5363E+04   1.6150E+05  0.000E+00  0.000E+00  0.000E+00  4.79640E+01  1.799E-01  2.000E+01  2.000E+04 -1.768E+00
   1   14    3     1     3    1.6150E+05 -3.1421E+04   1.9292E+05  0.000E+00  0.000E+00  0.000E+00  4.75107E+01  2.039E-01  2.000E+01  2.000E+04 -1.571E+00
   1   15    4     1     4    1.9292E+05 -3.1078E+04   2.2400E+05  0.000E+00  0.000E+00  0.000E+00  4.70543E+01  2.248E-01  2.000E+01  2.000E+04 -1.554E+00
   1   16    5     1     5    2.2400E+05 -3.3089E+04   2.5709E+05  0.000E+00  0.000E+00  0.000E+00  4.65972E+01  2.449E-01  2.000E+01  2.000E+04 -1.654E+00
   1   16    6     1     6    2.5709E+05 -2.8775E+04   2.8586E+05  0.000E+00  0.000E+00  0.000E+00  4.61384E+01  2.634E-01  2.000E+01  2.000E+04 -1.439E+00
   1   16    7     1     7    2.8586E+05 -2.8553E+04   3.1441E+05  0.000E+00  0.000E+00  0.000E+00  4.56774E+01  2.797E-01  2.000E+01  2.000E+04 -1.428E+00
   1   16    8     1     8    3.1441E+05 -2.8732E+04   3.4315E+05  0.000E+00  0.000E+00  0.000E+00  4.52159E+01  2.954E-01  2.000E+01  2.000E+04 -1.437E+00
   1   16    9     1     9    3.4315E+05 -2.8850E+04   3.7200E+05  0.000E+00  0.000E+00  0.000E+00  4.47539E+01  3.107E-01  2.000E+01  2.000E+04 -1.442E+00
   1   16   10     1    10    3.7200E+05 -2.8953E+04   4.0095E+05  0.000E+00  0.000E+00  0.000E+00  4.42914E+01  3.255E-01  2.000E+01  2.000E+04 -1.448E+00
   1   16   11     1    11    4.0095E+05 -2.9672E+04   4.3062E+05  0.000E+00  0.000E+00  0.000E+00  4.38288E+01  3.401E-01  2.000E+01  2.000E+04 -1.484E+00
   1   16   12     1    12    4.3062E+05 -3.5323E+04   4.6594E+05  0.000E+00  0.000E+00  0.000E+00  4.33672E+01  3.558E-01  2.000E+01  2.000E+04 -1.766E+00
   1   15   13     1    13    4.6594E+05 -3.3721E+04   4.9967E+05  0.000E+00  0.000E+00  0.000E+00  4.29061E+01  3.720E-01  2.000E+01  2.000E+04 -1.686E+00
   1   14   14     1    14    4.9967E+05 -3.4117E+04   5.3378E+05  0.000E+00  0.000E+00  0.000E+00  4.24443E+01  3.875E-01  2.000E+01  2.000E+04 -1.706E+00
   1   13   15     1    15    5.3378E+05 -3.6223E+04   5.7001E+05  0.000E+00  0.000E+00  0.000E+00  4.19827E+01  4.031E-01  2.000E+01  2.000E+04 -1.811E+00
   1   12   16     1    16    5.7001E+05 -4.2168E+04   6.1217E+05  0.000E+00  0.000E+00  0.000E+00  4.15223E+01  4.201E-01  2.000E+01  2.000E+04 -2.108E+00
   1   12   17     1    17    6.1217E+05 -3.3268E+04   6.4544E+05  0.000E+00  0.000E+00  0.000E+00  4.10609E+01  4.359E-01  2.000E+01  2.000E+04 -1.663E+00
   1   12   18     1    18    6.4544E+05 -3.1859E+04   6.7730E+05  0.000E+00  0.000E+00  0.000E+00  4.05971E+01  4.494E-01  2.000E+01  2.000E+04 -1.593E+00
   1   12   19     1    19    6.7730E+05 -3.6008E+04   7.1331E+05  0.000E+00  0.000E+00  0.000E+00  4.01335E+01  4.631E-01  2.000E+01  2.000E+04 -1.800E+00
   1   13   20     1    20    7.1331E+05 -2.6560E+04   7.3987E+05  0.000E+00  0.000E+00  0.000E+00  3.96686E+01  4.754E-01  2.000E+01  2.000E+04 -1.328E+00
   1   14   21     1    21    7.3987E+05 -1.9621E+04   7.5949E+05  0.000E+00  0.000E+00  0.000E+00  3.92004E+01  4.845E-01  2.000E+01  2.000E+04 -9.810E-01
   1   14   22     1    22    7.5949E+05 -1.7525E+03   7.6124E+05  0.000E+00  0.000E+00  0.000E+00  3.87272E+01  4.886E-01  2.000E+01  2.000E+04 -8.762E-02
   1    9   30     2     1    5.0000E+04 -2.6465E+04   7.6465E+04  0.000E+00  0.000E+00  0.000E+00  4.02584E+01  1.334E-01  2.000E+01  2.000E+04 -1.323E+00
   1    9   29     2     2    7.6465E+04 -2.8928E+04   1.0539E+05  0.000E+00  0.000E+00  0.000E+00  4.00409E+01  1.659E-01  2.000E+01  2.000E+04 -1.446E+00
   1    9   28     2     3    1.0539E+05 -3.3202E+04   1.3860E+05  0.000E+00  0.000E+00  0.000E+00  3.98229E+01  1.979E-01  2.000E+01  2.000E+04 -1.660E+00
   1    9   27     2     4    1.3860E+05 -4.7274E+04   1.8587E+05  0.000E+00  0.000E+00  0.000E+00  3.96098E+01  2.348E-01  2.000E+01  2.000E+04 -2.364E+00
   1   10   26     2     5    1.8587E+05 -3.3235E+04   2.1911E+05  0.000E+00  0.000E+00  0.000E+00  3.93932E+01  2.682E-01  2.000E+01  2.000E+04 -1.662E+00
   1   11   25     2     6    2.1911E+05 -2.4886E+04   2.4399E+05  0.000E+00  0.000E+00  0.000E+00  3.91656E+01  2.906E-01  2.000E+01  2.000E+04 -1.244E+00
   1   12   24     2     7    2.4399E+05 -1.8335E+04   2.6233E+05  0.000E+00  0.000E+00  0.000E+00  3.89316E+01  3.066E-01  2.000E+01  2.000E+04 -9.167E-01
   1   13   23     2     8    2.6233E+05 -1.3024E+04   2.7535E+05  0.000E+00  0.000E+00  0.000E+00  3.86929E+01  3.179E-01  2.000E+01  2.000E+04 -6.512E-01
   1   14   22     2     9    2.7535E+05 -7.2961E+03   2.8265E+05  0.000E+00  0.000E+00  0.000E+00  3.84500E+01  3.250E-01  2.000E+01  2.000E+04 -3.648E-01
   1   14   22     3     1    1.0439E+06 -1.5336E+04   1.0592E+06  0.000E+00  0.000E+00  0.000E+00  3.80480E+01  4.925E-01  2.000E+01  2.000E+04 -7.668E-01
   1   15   23     3     2    1.0592E+06 -2.3653E+04   1.0829E+06  0.000E+00  0.000E+00  0.000E+00  3.71646E+01  4.980E-01  2.000E+01  2.000E+04 -1.183E+00
   1   15   24     3     3    1.0829E+06 -1.9691E+04   1.1026E+06  0.000E+00  0.000E+00  0.000E+00  3.62818E+01  5.040E-01  2.000E+01  2.000E+04 -9.846E-01
   1   15   25     3     4    1.1026E+06 -1.9285E+04   1.1219E+06  0.000E+00  0.000E+00  0.000E+00  3.53982E+01  5.093E-01  2.000E+01  2.000E+04 -9.643E-01
   1   15   26     3     5    1.1219E+06 -2.2029E+04   1.1439E+06  0.000E+00  0.000E+00  0.000E+00  3.45150E+01  5.150E-01  2.000E+01  2.000E+04 -1.101E+00
   1   16   27     3     6    1.1439E+06 -2.9196E+04   1.1731E+06  0.000E+00  0.000E+00  0.000E+00  3.36331E+01  5.220E-01  2.000E+01  2.000E+04 -1.460E+00
   1   17   28     3     7    1.1731E+06 -3.6256E+04   1.2093E+06  0.000E+00  0.000E+00  0.000E+00  3.27530E+01  5.308E-01  2.000E+01  2.000E+04 -1.813E+00
   1   18   29     3     8    1.2093E+06 -4.7255E+04   1.2566E+06  0.000E+00  0.000E+00  0.000E+00  3.18752E+01  5.418E-01  2.000E+01  2.000E+04 -2.363E+00
   1   18   30     3     9    1.2566E+06 -4.3686E+04   1.3003E+06  0.000E+00  0.000E+00  0.000E+00  3.09982E+01  5.537E-01  2.000E+01  2.000E+04 -2.184E+00



1
              HEAD IN LAYER   1 AT END OF TIME STEP   1 IN STRESS PERIOD    9
  ---------------------------------------------------------------------------

          1      2      3      4      5      6      7      8      9     10
         11     12     13     14     15     16     17     18     19     20
         21     22     23     24     25     26     27     28     29     30
 .........................................................................
   1  ****** ****** ****** ****** ****** ****** ****** ****** ****** ******
      ****** ****** ****** ****** ****** ****** ****** ****** ****** ******
      ****** ****** ****** ****** ****** ****** ****** ****** ****** ******
   2  ****** ****** ****** ****** ****** ****** ****** ****** ****** ******
      ****** ****** ****** ****** ****** ****** ****** ****** ****** ******
      ****** ****** ****** ****** ****** ****** ****** ****** ****** ******
   3  ****** ****** ****** ****** ****** ****** ****** ****** ****** ******
      ****** ****** ****** ****** ****** ****** ****** ****** ****** ******
      ****** ****** ****** ****** ****** ****** ****** ****** ****** ******
   4  ****** ****** ****** ****** ****** ****** ****** ****** ****** ******
      ****** ****** ****** ****** ****** ****** ****** ****** ****** ******
      ****** ****** ****** ****** ****** ****** ****** ****** ****** ******
   5  ****** ****** ****** ****** ****** ****** ****** ****** ****** ******
      ****** ****** ****** ****** ****** ****** ****** ****** ****** ******
      ****** ****** ****** ****** ****** ****** ****** ****** ****** ******
   6  ****** ****** ****** ****** ****** ****** ****** ****** ****** ******
      ****** ****** ****** ****** ****** ****** ****** ****** ****** ******
      ****** ****** ****** ****** ****** ****** ****** ****** ****** ******
   7  ****** ****** ****** ****** ****** ****** ****** ****** ****** ******
      ****** ****** ****** ****** ****** ****** ****** ****** ****** ******
      ****** ****** ****** ****** ****** ****** ****** ****** ****** ******
   8  ****** ****** ****** ****** ****** ****** ****** ****** ****** ******
      ****** ****** ****** ****** ****** ****** ****** ****** ****** ******
      ****** ****** ****** ****** ****** ****** ****** ****** ****** ******
   9  ****** ****** ****** ****** ****** ****** ****** ****** ****** ******
      ****** ****** ****** ****** ****** ****** ****** ****** ****** ******
      ****** ****** ****** ****** ****** ****** ****** ****** ****** ******
  10  ****** ****** ****** ****** ****** ****** ****** ****** ****** ******
      ****** ****** ****** ****** ****** ****** ****** ****** ****** ******
      ****** ****** ****** ****** ****** ****** ****** ****** ****** ******
  11  ****** ****** ****** ****** ****** ****** ****** ****** ****** ******
      ****** ****** ****** ****** ****** ****** ****** ****** ****** ******
      ****** ****** ****** ****** ****** ****** ****** ****** ****** ******
  12  ****** ****** ****** ****** ****** ****** ****** ****** ****** ******
      ****** ****** ****** ****** ****** ****** ****** ****** ****** ******
      ****** ****** ****** ****** ****** ****** ****** ****** ****** ******
  13  ****** ****** ****** ****** ****** ****** ****** ****** ****** ******
      ****** ****** ****** ****** ****** ****** ****** ****** ****** ******
      ****** ****** ****** ****** ****** ****** ****** ****** ****** ******
  14  ****** ****** ****** ****** ****** ****** ****** ****** ****** ******
      ****** ****** ****** ****** ****** ****** ****** ****** ****** ******
      ****** ****** ****** ****** ****** ****** ****** ****** ****** ******
  15  ****** ****** ****** ****** ****** ****** ****** ****** ****** ******
      ****** ****** ****** ****** ****** ****** ****** ****** ****** ******
      ****** ****** ****** ****** ****** ****** ****** ****** ****** ******
  16  ****** ****** ****** ****** ****** ****** ****** ****** ****** ******
      ****** ****** ****** ****** ****** ****** ****** ****** ****** ******
      ****** ****** ****** ****** ****** ****** ****** ****** ****** ******
  17  ****** ****** ****** ****** ****** ****** ****** ****** ****** ******
      ****** ****** ****** ****** ****** ****** ****** ****** ****** ******
      ****** ****** ****** ****** ****** ****** ****** ****** ****** ******
  18  ****** ****** ****** ****** ****** ****** ****** ****** ****** ******
      ****** ****** ****** ****** ****** ****** ****** ****** ****** ******
      ****** ****** ****** ****** ****** ****** ****** ****** ****** ******
  19  ****** ****** ****** ****** ****** ****** ****** ****** ****** ******
      ****** ****** ****** ****** ****** ****** ****** ****** ****** ******
      ****** ****** ****** ****** ****** ****** ****** ****** ****** ******
  20  ****** ****** ****** ****** ****** ****** ****** ****** ****** ******
      ****** ****** ****** ****** ****** ****** ****** ****** ****** ******
      ****** ****** ****** ****** ****** ****** ****** ****** ****** ******
  21  ****** ****** ****** ****** ****** ****** ****** ****** ****** ******
      ****** ****** ****** ****** ****** ****** ****** ****** ****** ******
      ****** ****** ****** ****** ****** ****** ****** ****** ****** ******
  22  ****** ****** ****** ****** ****** ****** ****** ****** ****** ******
      ****** ****** ****** ****** ****** ****** ****** ****** ****** ******
      ****** ****** ****** ****** ****** ****** ****** ****** ****** ******
  23  ****** ****** ****** ****** ****** ****** ****** ****** ****** ******
      ****** ****** ****** ****** ****** ****** ****** ****** ****** ******
      ****** ****** ****** ****** ****** ****** ****** ****** ****** ******
  24  ****** ****** ****** ****** ****** ****** ****** ****** ****** ******
      ****** ****** ****** ****** ****** ****** ****** ****** ****** ******
      ****** ****** ****** ****** ****** ****** ****** ****** ****** ******
  25  ****** ****** ****** ****** ****** ****** ****** ****** ****** ******
      ****** ****** ****** ****** ****** ****** ****** ****** ****** ******
      ****** ****** ****** ****** ****** ****** ****** ****** ****** ******

 HEAD WILL BE SAVED ON UNIT   51 AT END OF TIME STEP    1, STRESS PERIOD    9
1
  VOLUMETRIC BUDGET FOR ENTIRE MODEL AT END OF TIME STEP    1, STRESS PERIOD   9
  ------------------------------------------------------------------------------

     CUMULATIVE VOLUMES      L**3       RATES FOR THIS TIME STEP      L**3/T
     ------------------                 ------------------------

           IN:                                      IN:
           ---                                      ---
             STORAGE =    20702448.8288               STORAGE =         583.2336
       CONSTANT HEAD =  1050229721.1426         CONSTANT HEAD =     1285894.8052
               WELLS =           0.0000                 WELLS =           0.0000
            RECHARGE =    18878400.0000              RECHARGE =       13800.0000
      STREAM LEAKAGE =           0.0000        STREAM LEAKAGE =           0.0000

            TOTAL IN =  1089810569.9715              TOTAL IN =     1300278.0389

          OUT:                                     OUT:
          ----                                     ----
             STORAGE =      387423.5726               STORAGE =           0.0000
       CONSTANT HEAD =           0.0000         CONSTANT HEAD =           0.0000
               WELLS =   126040274.0000                 WELLS =      150000.0000
            RECHARGE =           0.0000              RECHARGE =           0.0000
      STREAM LEAKAGE =   963382880.7907        STREAM LEAKAGE =     1150278.0587

           TOTAL OUT =  1089810578.3633             TOTAL OUT =     1300278.0587

            IN - OUT =          -8.3918              IN - OUT =      -1.9837E-02

 PERCENT DISCREPANCY =          -0.00     PERCENT DISCREPANCY =          -0.00






         TIME SUMMARY AT END OF TIME STEP    1 IN STRESS PERIOD    9
                    SECONDS     MINUTES      HOURS       DAYS        YEARS
                    -----------------------------------------------------------
   TIME STEP LENGTH 7.94880E+06 1.32480E+05  2208.0      92.000     0.25188    
 STRESS PERIOD TIME 7.94880E+06 1.32480E+05  2208.0      92.000     0.25188    
         TOTAL TIME 7.10208E+07 1.18368E+06  19728.      822.00      2.2505    
1
1
                            STRESS PERIOD NO.   10, LENGTH =   91.00000    
                            -----------------------------------------------

                              NUMBER OF TIME STEPS =     1

                               MULTIPLIER FOR DELT =     1.500

                            INITIAL TIME STEP SIZE =   91.00000    

 WELL NO.  LAYER   ROW   COL   STRESS RATE         
 --------------------------------------------------
      1      1      4      8     -0.5000E+05
      2      1      2      9     -0.5000E+05
      3      1      2      7     -0.5000E+05

      3 WELLS

                 RECHARGE =  2.000000E-03

 REUSING STREAM SEGMENT DATA FROM LAST STRESS PERIOD
 
 SOLVING FOR HEAD 


     6 CALLS TO PCG ROUTINE FOR TIME STEP   1 IN STRESS PERIOD   10
    22 TOTAL ITERATIONS

 OUTPUT CONTROL FOR STRESS PERIOD   10   TIME STEP    1
    SAVE BUDGET
    SAVE HEAD FOR ALL LAYERS
    PRINT HEAD FOR ALL LAYERS
 UBDSV2 SAVING "STREAMFLOW OUT  " ON UNIT  50 AT TIME STEP  1, STRESS PERIOD  10



 STREAM LISTING     PERIOD     10   STEP        1

 LAYER ROW COL. STREAM  RCH.  FLOW INTO     FLOW TO   FLOW OUT OF   OVRLND.     DIRECT     STREAM       STREAM     STREAM     STREAM   STREAMBED  STREAMBED
                SEG.NO.  NO.  STRM. RCH.    AQUIFER    STRM. RCH.    RUNOFF     PRECIP       ET          HEAD       DEPTH      WIDTH   CONDCTNC.   GRADIENT

   1   13    1     1     1    1.0000E+05 -2.6787E+04   1.2679E+05  0.000E+00  0.000E+00  0.000E+00  4.84173E+01  1.560E-01  2.000E+01  2.000E+04 -1.339E+00
   1   13    2     1     2    1.2679E+05 -3.6142E+04   1.6293E+05  0.000E+00  0.000E+00  0.000E+00  4.79648E+01  1.807E-01  2.000E+01  2.000E+04 -1.807E+00
   1   14    3     1     3    1.6293E+05 -3.2184E+04   1.9511E+05  0.000E+00  0.000E+00  0.000E+00  4.75120E+01  2.051E-01  2.000E+01  2.000E+04 -1.609E+00
   1   15    4     1     4    1.9511E+05 -3.1811E+04   2.2692E+05  0.000E+00  0.000E+00  0.000E+00  4.70560E+01  2.264E-01  2.000E+01  2.000E+04 -1.591E+00
   1   16    5     1     5    2.2692E+05 -3.3751E+04   2.6067E+05  0.000E+00  0.000E+00  0.000E+00  4.65992E+01  2.469E-01  2.000E+01  2.000E+04 -1.688E+00
   1   16    6     1     6    2.6067E+05 -2.9350E+04   2.9002E+05  0.000E+00  0.000E+00  0.000E+00  4.61406E+01  2.656E-01  2.000E+01  2.000E+04 -1.467E+00
   1   16    7     1     7    2.9002E+05 -2.9122E+04   3.1915E+05  0.000E+00  0.000E+00  0.000E+00  4.56799E+01  2.822E-01  2.000E+01  2.000E+04 -1.456E+00
   1   16    8     1     8    3.1915E+05 -2.9303E+04   3.4845E+05  0.000E+00  0.000E+00  0.000E+00  4.52186E+01  2.981E-01  2.000E+01  2.000E+04 -1.465E+00
   1   16    9     1     9    3.4845E+05 -2.9420E+04   3.7787E+05  0.000E+00  0.000E+00  0.000E+00  4.47568E+01  3.136E-01  2.000E+01  2.000E+04 -1.471E+00
   1   16   10     1    10    3.7787E+05 -2.9522E+04   4.0739E+05  0.000E+00  0.000E+00  0.000E+00  4.42945E+01  3.286E-01  2.000E+01  2.000E+04 -1.476E+00
   1   16   11     1    11    4.0739E+05 -3.0249E+04   4.3764E+05  0.000E+00  0.000E+00  0.000E+00  4.38321E+01  3.434E-01  2.000E+01  2.000E+04 -1.512E+00
   1   16   12     1    12    4.3764E+05 -3.5995E+04   4.7363E+05  0.000E+00  0.000E+00  0.000E+00  4.33707E+01  3.593E-01  2.000E+01  2.000E+04 -1.800E+00
   1   15   13     1    13    4.7363E+05 -3.4463E+04   5.0810E+05  0.000E+00  0.000E+00  0.000E+00  4.29098E+01  3.758E-01  2.000E+01  2.000E+04 -1.723E+00
   1   14   14     1    14    5.0810E+05 -3.4884E+04   5.4298E+05  0.000E+00  0.000E+00  0.000E+00  4.24483E+01  3.915E-01  2.000E+01  2.000E+04 -1.744E+00
   1   13   15     1    15    5.4298E+05 -3.6984E+04   5.7997E+05  0.000E+00  0.000E+00  0.000E+00  4.19869E+01  4.073E-01  2.000E+01  2.000E+04 -1.849E+00
   1   12   16     1    16    5.7997E+05 -4.2902E+04   6.2287E+05  0.000E+00  0.000E+00  0.000E+00  4.15267E+01  4.245E-01  2.000E+01  2.000E+04 -2.145E+00
   1   12   17     1    17    6.2287E+05 -3.3860E+04   6.5673E+05  0.000E+00  0.000E+00  0.000E+00  4.10655E+01  4.405E-01  2.000E+01  2.000E+04 -1.693E+00
   1   12   18     1    18    6.5673E+05 -3.2424E+04   6.8915E+05  0.000E+00  0.000E+00  0.000E+00  4.06018E+01  4.541E-01  2.000E+01  2.000E+04 -1.621E+00
   1   12   19     1    19    6.8915E+05 -3.6625E+04   7.2578E+05  0.000E+00  0.000E+00  0.000E+00  4.01383E+01  4.679E-01  2.000E+01  2.000E+04 -1.831E+00
   1   13   20     1    20    7.2578E+05 -2.7137E+04   7.5291E+05  0.000E+00  0.000E+00  0.000E+00  3.96736E+01  4.804E-01  2.000E+01  2.000E+04 -1.357E+00
   1   14   21     1    21    7.5291E+05 -2.0117E+04   7.7303E+05  0.000E+00  0.000E+00  0.000E+00  3.92055E+01  4.896E-01  2.000E+01  2.000E+04 -1.006E+00
   1   14   22     1    22    7.7303E+05 -1.9267E+03   7.7496E+05  0.000E+00  0.000E+00  0.000E+00  3.87325E+01  4.938E-01  2.000E+01  2.000E+04 -9.633E-02
   1    9   30     2     1    5.0000E+04 -2.6911E+04   7.6911E+04  0.000E+00  0.000E+00  0.000E+00  4.02587E+01  1.337E-01  2.000E+01  2.000E+04 -1.346E+00
   1    9   29     2     2    7.6911E+04 -2.9374E+04   1.0628E+05  0.000E+00  0.000E+00  0.000E+00  4.00416E+01  1.666E-01  2.000E+01  2.000E+04 -1.469E+00
   1    9   28     2     3    1.0628E+05 -3.3663E+04   1.3995E+05  0.000E+00  0.000E+00  0.000E+00  3.98240E+01  1.990E-01  2.000E+01  2.000E+04 -1.683E+00
   1    9   27     2     4    1.3995E+05 -4.7838E+04   1.8779E+05  0.000E+00  0.000E+00  0.000E+00  3.96112E+01  2.362E-01  2.000E+01  2.000E+04 -2.392E+00
   1   10   26     2     5    1.8779E+05 -3.3821E+04   2.2161E+05  0.000E+00  0.000E+00  0.000E+00  3.93949E+01  2.699E-01  2.000E+01  2.000E+04 -1.691E+00
   1   11   25     2     6    2.2161E+05 -2.5451E+04   2.4706E+05  0.000E+00  0.000E+00  0.000E+00  3.91677E+01  2.927E-01  2.000E+01  2.000E+04 -1.273E+00
   1   12   24     2     7    2.4706E+05 -1.8840E+04   2.6590E+05  0.000E+00  0.000E+00  0.000E+00  3.89340E+01  3.090E-01  2.000E+01  2.000E+04 -9.420E-01
   1   13   23     2     8    2.6590E+05 -1.3435E+04   2.7933E+05  0.000E+00  0.000E+00  0.000E+00  3.86956E+01  3.206E-01  2.000E+01  2.000E+04 -6.718E-01
   1   14   22     2     9    2.7933E+05 -7.5180E+03   2.8685E+05  0.000E+00  0.000E+00  0.000E+00  3.84529E+01  3.279E-01  2.000E+01  2.000E+04 -3.759E-01
   1   14   22     3     1    1.0618E+06 -1.5514E+04   1.0773E+06  0.000E+00  0.000E+00  0.000E+00  3.80531E+01  4.975E-01  2.000E+01  2.000E+04 -7.757E-01
   1   15   23     3     2    1.0773E+06 -2.4115E+04   1.1014E+06  0.000E+00  0.000E+00  0.000E+00  3.71697E+01  5.030E-01  2.000E+01  2.000E+04 -1.206E+00
   1   15   24     3     3    1.1014E+06 -2.0073E+04   1.1215E+06  0.000E+00  0.000E+00  0.000E+00  3.62869E+01  5.091E-01  2.000E+01  2.000E+04 -1.004E+00
   1   15   25     3     4    1.1215E+06 -1.9664E+04   1.1412E+06  0.000E+00  0.000E+00  0.000E+00  3.54035E+01  5.146E-01  2.000E+01  2.000E+04 -9.832E-01
   1   15   26     3     5    1.1412E+06 -2.2470E+04   1.1636E+06  0.000E+00  0.000E+00  0.000E+00  3.45203E+01  5.203E-01  2.000E+01  2.000E+04 -1.123E+00
   1   16   27     3     6    1.1636E+06 -2.9728E+04   1.1934E+06  0.000E+00  0.000E+00  0.000E+00  3.36385E+01  5.274E-01  2.000E+01  2.000E+04 -1.486E+00
   1   17   28     3     7    1.1934E+06 -3.6802E+04   1.2302E+06  0.000E+00  0.000E+00  0.000E+00  3.27585E+01  5.362E-01  2.000E+01  2.000E+04 -1.840E+00
   1   18   29     3     8    1.2302E+06 -4.7768E+04   1.2779E+06  0.000E+00  0.000E+00  0.000E+00  3.18807E+01  5.474E-01  2.000E+01  2.000E+04 -2.388E+00
   1   18   30     3     9    1.2779E+06 -4.4113E+04   1.3221E+06  0.000E+00  0.000E+00  0.000E+00  3.10038E+01  5.593E-01  2.000E+01  2.000E+04 -2.206E+00



1
              HEAD IN LAYER   1 AT END OF TIME STEP   1 IN STRESS PERIOD   10
  ---------------------------------------------------------------------------

          1      2      3      4      5      6      7      8      9     10
         11     12     13     14     15     16     17     18     19     20
         21     22     23     24     25     26     27     28     29     30
 .........................................................................
   1  ****** ****** ****** ****** ****** ****** ****** ****** ****** ******
      ****** ****** ****** ****** ****** ****** ****** ****** ****** ******
      ****** ****** ****** ****** ****** ****** ****** ****** ****** ******
   2  ****** ****** ****** ****** ****** ****** ****** ****** ****** ******
      ****** ****** ****** ****** ****** ****** ****** ****** ****** ******
      ****** ****** ****** ****** ****** ****** ****** ****** ****** ******
   3  ****** ****** ****** ****** ****** ****** ****** ****** ****** ******
      ****** ****** ****** ****** ****** ****** ****** ****** ****** ******
      ****** ****** ****** ****** ****** ****** ****** ****** ****** ******
   4  ****** ****** ****** ****** ****** ****** ****** ****** ****** ******
      ****** ****** ****** ****** ****** ****** ****** ****** ****** ******
      ****** ****** ****** ****** ****** ****** ****** ****** ****** ******
   5  ****** ****** ****** ****** ****** ****** ****** ****** ****** ******
      ****** ****** ****** ****** ****** ****** ****** ****** ****** ******
      ****** ****** ****** ****** ****** ****** ****** ****** ****** ******
   6  ****** ****** ****** ****** ****** ****** ****** ****** ****** ******
      ****** ****** ****** ****** ****** ****** ****** ****** ****** ******
      ****** ****** ****** ****** ****** ****** ****** ****** ****** ******
   7  ****** ****** ****** ****** ****** ****** ****** ****** ****** ******
      ****** ****** ****** ****** ****** ****** ****** ****** ****** ******
      ****** ****** ****** ****** ****** ****** ****** ****** ****** ******
   8  ****** ****** ****** ****** ****** ****** ****** ****** ****** ******
      ****** ****** ****** ****** ****** ****** ****** ****** ****** ******
      ****** ****** ****** ****** ****** ****** ****** ****** ****** ******
   9  ****** ****** ****** ****** ****** ****** ****** ****** ****** ******
      ****** ****** ****** ****** ****** ****** ****** ****** ****** ******
      ****** ****** ****** ****** ****** ****** ****** ****** ****** ******
  10  ****** ****** ****** ****** ****** ****** ****** ****** ****** ******
      ****** ****** ****** ****** ****** ****** ****** ****** ****** ******
      ****** ****** ****** ****** ****** ****** ****** ****** ****** ******
  11  ****** ****** ****** ****** ****** ****** ****** ****** ****** ******
      ****** ****** ****** ****** ****** ****** ****** ****** ****** ******
      ****** ****** ****** ****** ****** ****** ****** ****** ****** ******
  12  ****** ****** ****** ****** ****** ****** ****** ****** ****** ******
      ****** ****** ****** ****** ****** ****** ****** ****** ****** ******
      ****** ****** ****** ****** ****** ****** ****** ****** ****** ******
  13  ****** ****** ****** ****** ****** ****** ****** ****** ****** ******
      ****** ****** ****** ****** ****** ****** ****** ****** ****** ******
      ****** ****** ****** ****** ****** ****** ****** ****** ****** ******
  14  ****** ****** ****** ****** ****** ****** ****** ****** ****** ******
      ****** ****** ****** ****** ****** ****** ****** ****** ****** ******
      ****** ****** ****** ****** ****** ****** ****** ****** ****** ******
  15  ****** ****** ****** ****** ****** ****** ****** ****** ****** ******
      ****** ****** ****** ****** ****** ****** ****** ****** ****** ******
      ****** ****** ****** ****** ****** ****** ****** ****** ****** ******
  16  ****** ****** ****** ****** ****** ****** ****** ****** ****** ******
      ****** ****** ****** ****** ****** ****** ****** ****** ****** ******
      ****** ****** ****** ****** ****** ****** ****** ****** ****** ******
  17  ****** ****** ****** ****** ****** ****** ****** ****** ****** ******
      ****** ****** ****** ****** ****** ****** ****** ****** ****** ******
      ****** ****** ****** ****** ****** ****** ****** ****** ****** ******
  18  ****** ****** ****** ****** ****** ****** ****** ****** ****** ******
      ****** ****** ****** ****** ****** ****** ****** ****** ****** ******
      ****** ****** ****** ****** ****** ****** ****** ****** ****** ******
  19  ****** ****** ****** ****** ****** ****** ****** ****** ****** ******
      ****** ****** ****** ****** ****** ****** ****** ****** ****** ******
      ****** ****** ****** ****** ****** ****** ****** ****** ****** ******
  20  ****** ****** ****** ****** ****** ****** ****** ****** ****** ******
      ****** ****** ****** ****** ****** ****** ****** ****** ****** ******
      ****** ****** ****** ****** ****** ****** ****** ****** ****** ******
  21  ****** ****** ****** ****** ****** ****** ****** ****** ****** ******
      ****** ****** ****** ****** ****** ****** ****** ****** ****** ******
      ****** ****** ****** ****** ****** ****** ****** ****** ****** ******
  22  ****** ****** ****** ****** ****** ****** ****** ****** ****** ******
      ****** ****** ****** ****** ****** ****** ****** ****** ****** ******
      ****** ****** ****** ****** ****** ****** ****** ****** ****** ******
  23  ****** ****** ****** ****** ****** ****** ****** ****** ****** ******
      ****** ****** ****** ****** ****** ****** ****** ****** ****** ******
      ****** ****** ****** ****** ****** ****** ****** ****** ****** ******
  24  ****** ****** ****** ****** ****** ****** ****** ****** ****** ******
      ****** ****** ****** ****** ****** ****** ****** ****** ****** ******
      ****** ****** ****** ****** ****** ****** ****** ****** ****** ******
  25  ****** ****** ****** ****** ****** ****** ****** ****** ****** ******
      ****** ****** ****** ****** ****** ****** ****** ****** ****** ******
      ****** ****** ****** ****** ****** ****** ****** ****** ****** ******

 HEAD WILL BE SAVED ON UNIT   51 AT END OF TIME STEP    1, STRESS PERIOD   10
1
  VOLUMETRIC BUDGET FOR ENTIRE MODEL AT END OF TIME STEP    1, STRESS PERIOD  10
  ------------------------------------------------------------------------------

     CUMULATIVE VOLUMES      L**3       RATES FOR THIS TIME STEP      L**3/T
     ------------------                 ------------------------

           IN:                                      IN:
           ---                                      ---
             STORAGE =    20702448.8288               STORAGE =           0.0000
       CONSTANT HEAD =  1165689731.7475         CONSTANT HEAD =     1268791.3253
               WELLS =           0.0000                 WELLS =           0.0000
            RECHARGE =    23901600.0000              RECHARGE =       55200.0000
      STREAM LEAKAGE =           0.0000        STREAM LEAKAGE =           0.0000

            TOTAL IN =  1210293780.5763              TOTAL IN =     1323991.3253

          OUT:                                     OUT:
          ----                                     ----
             STORAGE =      563797.3888               STORAGE =        1938.1738
       CONSTANT HEAD =           0.0000         CONSTANT HEAD =           0.0000
               WELLS =   139690274.0000                 WELLS =      150000.0000
            RECHARGE =           0.0000              RECHARGE =           0.0000
      STREAM LEAKAGE =  1070039714.5157        STREAM LEAKAGE =     1172053.1179

           TOTAL OUT =  1210293785.9046             TOTAL OUT =     1323991.2917

            IN - OUT =          -5.3282              IN - OUT =       3.3666E-02

 PERCENT DISCREPANCY =          -0.00     PERCENT DISCREPANCY =           0.00






         TIME SUMMARY AT END OF TIME STEP    1 IN STRESS PERIOD   10
                    SECONDS     MINUTES      HOURS       DAYS        YEARS
                    -----------------------------------------------------------
   TIME STEP LENGTH 7.86240E+06 1.31040E+05  2184.0      91.000     0.24914    
 STRESS PERIOD TIME 7.86240E+06 1.31040E+05  2184.0      91.000     0.24914    
         TOTAL TIME 7.88832E+07 1.31472E+06  21912.      913.00      2.4997    
1
1
                            STRESS PERIOD NO.   11, LENGTH =   91.00000    
                            -----------------------------------------------

                              NUMBER OF TIME STEPS =     1

                               MULTIPLIER FOR DELT =     1.500

                            INITIAL TIME STEP SIZE =   91.00000    

 WELL NO.  LAYER   ROW   COL   STRESS RATE         
 --------------------------------------------------
      1      1      4      8     -0.5000E+05
      2      1      2      9     -0.5000E+05
      3      1      2      7     -0.5000E+05

      3 WELLS

                 RECHARGE =   0.00000    

 REUSING STREAM SEGMENT DATA FROM LAST STRESS PERIOD
 
 SOLVING FOR HEAD 


     6 CALLS TO PCG ROUTINE FOR TIME STEP   1 IN STRESS PERIOD   11
    22 TOTAL ITERATIONS

 OUTPUT CONTROL FOR STRESS PERIOD   11   TIME STEP    1
    SAVE BUDGET
    SAVE HEAD FOR ALL LAYERS
    PRINT HEAD FOR ALL LAYERS
 UBDSV2 SAVING "STREAMFLOW OUT  " ON UNIT  50 AT TIME STEP  1, STRESS PERIOD  11



 STREAM LISTING     PERIOD     11   STEP        1

 LAYER ROW COL. STREAM  RCH.  FLOW INTO     FLOW TO   FLOW OUT OF   OVRLND.     DIRECT     STREAM       STREAM     STREAM     STREAM   STREAMBED  STREAMBED
                SEG.NO.  NO.  STRM. RCH.    AQUIFER    STRM. RCH.    RUNOFF     PRECIP       ET          HEAD       DEPTH      WIDTH   CONDCTNC.   GRADIENT

   1   13    1     1     1    1.0000E+05 -2.5941E+04   1.2594E+05  0.000E+00  0.000E+00  0.000E+00  4.84170E+01  1.556E-01  2.000E+01  2.000E+04 -1.297E+00
   1   13    2     1     2    1.2594E+05 -3.5132E+04   1.6107E+05  0.000E+00  0.000E+00  0.000E+00  4.79637E+01  1.797E-01  2.000E+01  2.000E+04 -1.757E+00
   1   14    3     1     3    1.6107E+05 -3.1193E+04   1.9227E+05  0.000E+00  0.000E+00  0.000E+00  4.75103E+01  2.035E-01  2.000E+01  2.000E+04 -1.560E+00
   1   15    4     1     4    1.9227E+05 -3.0857E+04   2.2312E+05  0.000E+00  0.000E+00  0.000E+00  4.70538E+01  2.243E-01  2.000E+01  2.000E+04 -1.543E+00
   1   16    5     1     5    2.2312E+05 -3.2888E+04   2.5601E+05  0.000E+00  0.000E+00  0.000E+00  4.65966E+01  2.443E-01  2.000E+01  2.000E+04 -1.644E+00
   1   16    6     1     6    2.5601E+05 -2.8601E+04   2.8461E+05  0.000E+00  0.000E+00  0.000E+00  4.61377E+01  2.627E-01  2.000E+01  2.000E+04 -1.430E+00
   1   16    7     1     7    2.8461E+05 -2.8380E+04   3.1299E+05  0.000E+00  0.000E+00  0.000E+00  4.56767E+01  2.790E-01  2.000E+01  2.000E+04 -1.419E+00
   1   16    8     1     8    3.1299E+05 -2.8559E+04   3.4155E+05  0.000E+00  0.000E+00  0.000E+00  4.52151E+01  2.946E-01  2.000E+01  2.000E+04 -1.428E+00
   1   16    9     1     9    3.4155E+05 -2.8677E+04   3.7023E+05  0.000E+00  0.000E+00  0.000E+00  4.47530E+01  3.098E-01  2.000E+01  2.000E+04 -1.434E+00
   1   16   10     1    10    3.7023E+05 -2.8781E+04   3.9901E+05  0.000E+00  0.000E+00  0.000E+00  4.42905E+01  3.246E-01  2.000E+01  2.000E+04 -1.439E+00
   1   16   11     1    11    3.9901E+05 -2.9497E+04   4.2851E+05  0.000E+00  0.000E+00  0.000E+00  4.38278E+01  3.391E-01  2.000E+01  2.000E+04 -1.475E+00
   1   16   12     1    12    4.2851E+05 -3.5118E+04   4.6362E+05  0.000E+00  0.000E+00  0.000E+00  4.33661E+01  3.548E-01  2.000E+01  2.000E+04 -1.756E+00
   1   15   13     1    13    4.6362E+05 -3.3497E+04   4.9712E+05  0.000E+00  0.000E+00  0.000E+00  4.29050E+01  3.709E-01  2.000E+01  2.000E+04 -1.675E+00
   1   14   14     1    14    4.9712E+05 -3.3887E+04   5.3101E+05  0.000E+00  0.000E+00  0.000E+00  4.24431E+01  3.863E-01  2.000E+01  2.000E+04 -1.694E+00
   1   13   15     1    15    5.3101E+05 -3.5995E+04   5.6700E+05  0.000E+00  0.000E+00  0.000E+00  4.19814E+01  4.019E-01  2.000E+01  2.000E+04 -1.800E+00
   1   12   16     1    16    5.6700E+05 -4.1948E+04   6.0895E+05  0.000E+00  0.000E+00  0.000E+00  4.15210E+01  4.187E-01  2.000E+01  2.000E+04 -2.097E+00
   1   12   17     1    17    6.0895E+05 -3.3090E+04   6.4204E+05  0.000E+00  0.000E+00  0.000E+00  4.10596E+01  4.346E-01  2.000E+01  2.000E+04 -1.654E+00
   1   12   18     1    18    6.4204E+05 -3.1688E+04   6.7373E+05  0.000E+00  0.000E+00  0.000E+00  4.05957E+01  4.479E-01  2.000E+01  2.000E+04 -1.584E+00
   1   12   19     1    19    6.7373E+05 -3.5820E+04   7.0955E+05  0.000E+00  0.000E+00  0.000E+00  4.01320E+01  4.616E-01  2.000E+01  2.000E+04 -1.791E+00
   1   13   20     1    20    7.0955E+05 -2.6383E+04   7.3593E+05  0.000E+00  0.000E+00  0.000E+00  3.96671E+01  4.739E-01  2.000E+01  2.000E+04 -1.319E+00
   1   14   21     1    21    7.3593E+05 -1.9467E+04   7.5540E+05  0.000E+00  0.000E+00  0.000E+00  3.91988E+01  4.829E-01  2.000E+01  2.000E+04 -9.734E-01
   1   14   22     1    22    7.5540E+05 -1.6979E+03   7.5710E+05  0.000E+00  0.000E+00  0.000E+00  3.87256E+01  4.870E-01  2.000E+01  2.000E+04 -8.489E-02
   1    9   30     2     1    5.0000E+04 -2.6325E+04   7.6325E+04  0.000E+00  0.000E+00  0.000E+00  4.02583E+01  1.333E-01  2.000E+01  2.000E+04 -1.316E+00
   1    9   29     2     2    7.6325E+04 -2.8788E+04   1.0511E+05  0.000E+00  0.000E+00  0.000E+00  4.00407E+01  1.657E-01  2.000E+01  2.000E+04 -1.439E+00
   1    9   28     2     3    1.0511E+05 -3.3058E+04   1.3817E+05  0.000E+00  0.000E+00  0.000E+00  3.98225E+01  1.975E-01  2.000E+01  2.000E+04 -1.653E+00
   1    9   27     2     4    1.3817E+05 -4.7098E+04   1.8527E+05  0.000E+00  0.000E+00  0.000E+00  3.96093E+01  2.343E-01  2.000E+01  2.000E+04 -2.355E+00
   1   10   26     2     5    1.8527E+05 -3.3052E+04   2.1832E+05  0.000E+00  0.000E+00  0.000E+00  3.93926E+01  2.676E-01  2.000E+01  2.000E+04 -1.653E+00
   1   11   25     2     6    2.1832E+05 -2.4710E+04   2.4303E+05  0.000E+00  0.000E+00  0.000E+00  3.91650E+01  2.900E-01  2.000E+01  2.000E+04 -1.236E+00
   1   12   24     2     7    2.4303E+05 -1.8177E+04   2.6121E+05  0.000E+00  0.000E+00  0.000E+00  3.89309E+01  3.059E-01  2.000E+01  2.000E+04 -9.089E-01
   1   13   23     2     8    2.6121E+05 -1.2896E+04   2.7411E+05  0.000E+00  0.000E+00  0.000E+00  3.86920E+01  3.170E-01  2.000E+01  2.000E+04 -6.448E-01
   1   14   22     2     9    2.7411E+05 -7.2276E+03   2.8133E+05  0.000E+00  0.000E+00  0.000E+00  3.84491E+01  3.241E-01  2.000E+01  2.000E+04 -3.614E-01
   1   14   22     3     1    1.0384E+06 -1.5280E+04   1.0537E+06  0.000E+00  0.000E+00  0.000E+00  3.80465E+01  4.909E-01  2.000E+01  2.000E+04 -7.640E-01
   1   15   23     3     2    1.0537E+06 -2.3510E+04   1.0772E+06  0.000E+00  0.000E+00  0.000E+00  3.71631E+01  4.964E-01  2.000E+01  2.000E+04 -1.175E+00
   1   15   24     3     3    1.0772E+06 -1.9572E+04   1.0968E+06  0.000E+00  0.000E+00  0.000E+00  3.62802E+01  5.024E-01  2.000E+01  2.000E+04 -9.786E-01
   1   15   25     3     4    1.0968E+06 -1.9166E+04   1.1160E+06  0.000E+00  0.000E+00  0.000E+00  3.53966E+01  5.077E-01  2.000E+01  2.000E+04 -9.583E-01
   1   15   26     3     5    1.1160E+06 -2.1890E+04   1.1378E+06  0.000E+00  0.000E+00  0.000E+00  3.45134E+01  5.134E-01  2.000E+01  2.000E+04 -1.094E+00
   1   16   27     3     6    1.1378E+06 -2.9028E+04   1.1669E+06  0.000E+00  0.000E+00  0.000E+00  3.36314E+01  5.203E-01  2.000E+01  2.000E+04 -1.451E+00
   1   17   28     3     7    1.1669E+06 -3.6085E+04   1.2030E+06  0.000E+00  0.000E+00  0.000E+00  3.27513E+01  5.291E-01  2.000E+01  2.000E+04 -1.804E+00
   1   18   29     3     8    1.2030E+06 -4.7094E+04   1.2501E+06  0.000E+00  0.000E+00  0.000E+00  3.18735E+01  5.401E-01  2.000E+01  2.000E+04 -2.355E+00
   1   18   30     3     9    1.2501E+06 -4.3552E+04   1.2936E+06  0.000E+00  0.000E+00  0.000E+00  3.09965E+01  5.520E-01  2.000E+01  2.000E+04 -2.178E+00



1
              HEAD IN LAYER   1 AT END OF TIME STEP   1 IN STRESS PERIOD   11
  ---------------------------------------------------------------------------

          1      2      3      4      5      6      7      8      9     10
         11     12     13     14     15     16     17     18     19     20
         21     22     23     24     25     26     27     28     29     30
 .........................................................................
   1  ****** ****** ****** ****** ****** ****** ****** ****** ****** ******
      ****** ****** ****** ****** ****** ****** ****** ****** ****** ******
      ****** ****** ****** ****** ****** ****** ****** ****** ****** ******
   2  ****** ****** ****** ****** ****** ****** ****** ****** ****** ******
      ****** ****** ****** ****** ****** ****** ****** ****** ****** ******
      ****** ****** ****** ****** ****** ****** ****** ****** ****** ******
   3  ****** ****** ****** ****** ****** ****** ****** ****** ****** ******
      ****** ****** ****** ****** ****** ****** ****** ****** ****** ******
      ****** ****** ****** ****** ****** ****** ****** ****** ****** ******
   4  ****** ****** ****** ****** ****** ****** ****** ****** ****** ******
      ****** ****** ****** ****** ****** ****** ****** ****** ****** ******
      ****** ****** ****** ****** ****** ****** ****** ****** ****** ******
   5  ****** ****** ****** ****** ****** ****** ****** ****** ****** ******
      ****** ****** ****** ****** ****** ****** ****** ****** ****** ******
      ****** ****** ****** ****** ****** ****** ****** ****** ****** ******
   6  ****** ****** ****** ****** ****** ****** ****** ****** ****** ******
      ****** ****** ****** ****** ****** ****** ****** ****** ****** ******
      ****** ****** ****** ****** ****** ****** ****** ****** ****** ******
   7  ****** ****** ****** ****** ****** ****** ****** ****** ****** ******
      ****** ****** ****** ****** ****** ****** ****** ****** ****** ******
      ****** ****** ****** ****** ****** ****** ****** ****** ****** ******
   8  ****** ****** ****** ****** ****** ****** ****** ****** ****** ******
      ****** ****** ****** ****** ****** ****** ****** ****** ****** ******
      ****** ****** ****** ****** ****** ****** ****** ****** ****** ******
   9  ****** ****** ****** ****** ****** ****** ****** ****** ****** ******
      ****** ****** ****** ****** ****** ****** ****** ****** ****** ******
      ****** ****** ****** ****** ****** ****** ****** ****** ****** ******
  10  ****** ****** ****** ****** ****** ****** ****** ****** ****** ******
      ****** ****** ****** ****** ****** ****** ****** ****** ****** ******
      ****** ****** ****** ****** ****** ****** ****** ****** ****** ******
  11  ****** ****** ****** ****** ****** ****** ****** ****** ****** ******
      ****** ****** ****** ****** ****** ****** ****** ****** ****** ******
      ****** ****** ****** ****** ****** ****** ****** ****** ****** ******
  12  ****** ****** ****** ****** ****** ****** ****** ****** ****** ******
      ****** ****** ****** ****** ****** ****** ****** ****** ****** ******
      ****** ****** ****** ****** ****** ****** ****** ****** ****** ******
  13  ****** ****** ****** ****** ****** ****** ****** ****** ****** ******
      ****** ****** ****** ****** ****** ****** ****** ****** ****** ******
      ****** ****** ****** ****** ****** ****** ****** ****** ****** ******
  14  ****** ****** ****** ****** ****** ****** ****** ****** ****** ******
      ****** ****** ****** ****** ****** ****** ****** ****** ****** ******
      ****** ****** ****** ****** ****** ****** ****** ****** ****** ******
  15  ****** ****** ****** ****** ****** ****** ****** ****** ****** ******
      ****** ****** ****** ****** ****** ****** ****** ****** ****** ******
      ****** ****** ****** ****** ****** ****** ****** ****** ****** ******
  16  ****** ****** ****** ****** ****** ****** ****** ****** ****** ******
      ****** ****** ****** ****** ****** ****** ****** ****** ****** ******
      ****** ****** ****** ****** ****** ****** ****** ****** ****** ******
  17  ****** ****** ****** ****** ****** ****** ****** ****** ****** ******
      ****** ****** ****** ****** ****** ****** ****** ****** ****** ******
      ****** ****** ****** ****** ****** ****** ****** ****** ****** ******
  18  ****** ****** ****** ****** ****** ****** ****** ****** ****** ******
      ****** ****** ****** ****** ****** ****** ****** ****** ****** ******
      ****** ****** ****** ****** ****** ****** ****** ****** ****** ******
  19  ****** ****** ****** ****** ****** ****** ****** ****** ****** ******
      ****** ****** ****** ****** ****** ****** ****** ****** ****** ******
      ****** ****** ****** ****** ****** ****** ****** ****** ****** ******
  20  ****** ****** ****** ****** ****** ****** ****** ****** ****** ******
      ****** ****** ****** ****** ****** ****** ****** ****** ****** ******
      ****** ****** ****** ****** ****** ****** ****** ****** ****** ******
  21  ****** ****** ****** ****** ****** ****** ****** ****** ****** ******
      ****** ****** ****** ****** ****** ****** ****** ****** ****** ******
      ****** ****** ****** ****** ****** ****** ****** ****** ****** ******
  22  ****** ****** ****** ****** ****** ****** ****** ****** ****** ******
      ****** ****** ****** ****** ****** ****** ****** ****** ****** ******
      ****** ****** ****** ****** ****** ****** ****** ****** ****** ******
  23  ****** ****** ****** ****** ****** ****** ****** ****** ****** ******
      ****** ****** ****** ****** ****** ****** ****** ****** ****** ******
      ****** ****** ****** ****** ****** ****** ****** ****** ****** ******
  24  ****** ****** ****** ****** ****** ****** ****** ****** ****** ******
      ****** ****** ****** ****** ****** ****** ****** ****** ****** ******
      ****** ****** ****** ****** ****** ****** ****** ****** ****** ******
  25  ****** ****** ****** ****** ****** ****** ****** ****** ****** ******
      ****** ****** ****** ****** ****** ****** ****** ****** ****** ******
      ****** ****** ****** ****** ****** ****** ****** ****** ****** ******

 HEAD WILL BE SAVED ON UNIT   51 AT END OF TIME STEP    1, STRESS PERIOD   11
1
  VOLUMETRIC BUDGET FOR ENTIRE MODEL AT END OF TIME STEP    1, STRESS PERIOD  11
  ------------------------------------------------------------------------------

     CUMULATIVE VOLUMES      L**3       RATES FOR THIS TIME STEP      L**3/T
     ------------------                 ------------------------

           IN:                                      IN:
           ---                                      ---
             STORAGE =    20931451.0396               STORAGE =        2516.5078
       CONSTANT HEAD =  1283178974.8362         CONSTANT HEAD =     1291090.5834
               WELLS =           0.0000                 WELLS =           0.0000
            RECHARGE =    23901600.0000              RECHARGE =           0.0000
      STREAM LEAKAGE =           0.0000        STREAM LEAKAGE =           0.0000

            TOTAL IN =  1328012025.8757              TOTAL IN =     1293607.0912

          OUT:                                     OUT:
          ----                                     ----
             STORAGE =      563797.3888               STORAGE =           0.0000
       CONSTANT HEAD =           0.0000         CONSTANT HEAD =           0.0000
               WELLS =   153340274.0000                 WELLS =      150000.0000
            RECHARGE =           0.0000              RECHARGE =           0.0000
      STREAM LEAKAGE =  1174107963.9051        STREAM LEAKAGE =     1143607.1361

           TOTAL OUT =  1328012035.2939             TOTAL OUT =     1293607.1361

            IN - OUT =          -9.4181              IN - OUT =      -4.4944E-02

 PERCENT DISCREPANCY =          -0.00     PERCENT DISCREPANCY =          -0.00






         TIME SUMMARY AT END OF TIME STEP    1 IN STRESS PERIOD   11
                    SECONDS     MINUTES      HOURS       DAYS        YEARS
                    -----------------------------------------------------------
   TIME STEP LENGTH 7.86240E+06 1.31040E+05  2184.0      91.000     0.24914    
 STRESS PERIOD TIME 7.86240E+06 1.31040E+05  2184.0      91.000     0.24914    
         TOTAL TIME 8.67456E+07 1.44576E+06  24096.      1004.0      2.7488    
1
1
                            STRESS PERIOD NO.   12, LENGTH =   91.00000    
                            -----------------------------------------------

                              NUMBER OF TIME STEPS =     1

                               MULTIPLIER FOR DELT =     1.500

                            INITIAL TIME STEP SIZE =   91.00000    

 WELL NO.  LAYER   ROW   COL   STRESS RATE         
 --------------------------------------------------
      1      1      4      8     -0.5000E+05
      2      1      2      9     -0.5000E+05
      3      1      2      7     -0.5000E+05

      3 WELLS

                 RECHARGE =  1.000000E-03

 REUSING STREAM SEGMENT DATA FROM LAST STRESS PERIOD
 
 SOLVING FOR HEAD 


     6 CALLS TO PCG ROUTINE FOR TIME STEP   1 IN STRESS PERIOD   12
    22 TOTAL ITERATIONS

 OUTPUT CONTROL FOR STRESS PERIOD   12   TIME STEP    1
    SAVE BUDGET
    SAVE HEAD FOR ALL LAYERS
    PRINT HEAD FOR ALL LAYERS
 UBDSV2 SAVING "STREAMFLOW OUT  " ON UNIT  50 AT TIME STEP  1, STRESS PERIOD  12



 STREAM LISTING     PERIOD     12   STEP        1

 LAYER ROW COL. STREAM  RCH.  FLOW INTO     FLOW TO   FLOW OUT OF   OVRLND.     DIRECT     STREAM       STREAM     STREAM     STREAM   STREAMBED  STREAMBED
                SEG.NO.  NO.  STRM. RCH.    AQUIFER    STRM. RCH.    RUNOFF     PRECIP       ET          HEAD       DEPTH      WIDTH   CONDCTNC.   GRADIENT

   1   13    1     1     1    1.0000E+05 -2.6333E+04   1.2633E+05  0.000E+00  0.000E+00  0.000E+00  4.84172E+01  1.558E-01  2.000E+01  2.000E+04 -1.317E+00
   1   13    2     1     2    1.2633E+05 -3.5599E+04   1.6193E+05  0.000E+00  0.000E+00  0.000E+00  4.79642E+01  1.801E-01  2.000E+01  2.000E+04 -1.780E+00
   1   14    3     1     3    1.6193E+05 -3.1655E+04   1.9359E+05  0.000E+00  0.000E+00  0.000E+00  4.75111E+01  2.043E-01  2.000E+01  2.000E+04 -1.583E+00
   1   15    4     1     4    1.9359E+05 -3.1304E+04   2.2489E+05  0.000E+00  0.000E+00  0.000E+00  4.70548E+01  2.253E-01  2.000E+01  2.000E+04 -1.565E+00
   1   16    5     1     5    2.2489E+05 -3.3294E+04   2.5818E+05  0.000E+00  0.000E+00  0.000E+00  4.65978E+01  2.455E-01  2.000E+01  2.000E+04 -1.665E+00
   1   16    6     1     6    2.5818E+05 -2.8953E+04   2.8714E+05  0.000E+00  0.000E+00  0.000E+00  4.61391E+01  2.641E-01  2.000E+01  2.000E+04 -1.448E+00
   1   16    7     1     7    2.8714E+05 -2.8728E+04   3.1587E+05  0.000E+00  0.000E+00  0.000E+00  4.56782E+01  2.805E-01  2.000E+01  2.000E+04 -1.436E+00
   1   16    8     1     8    3.1587E+05 -2.8908E+04   3.4477E+05  0.000E+00  0.000E+00  0.000E+00  4.52167E+01  2.963E-01  2.000E+01  2.000E+04 -1.445E+00
   1   16    9     1     9    3.4477E+05 -2.9025E+04   3.7380E+05  0.000E+00  0.000E+00  0.000E+00  4.47548E+01  3.116E-01  2.000E+01  2.000E+04 -1.451E+00
   1   16   10     1    10    3.7380E+05 -2.9129E+04   4.0293E+05  0.000E+00  0.000E+00  0.000E+00  4.42924E+01  3.265E-01  2.000E+01  2.000E+04 -1.456E+00
   1   16   11     1    11    4.0293E+05 -2.9850E+04   4.3278E+05  0.000E+00  0.000E+00  0.000E+00  4.38298E+01  3.411E-01  2.000E+01  2.000E+04 -1.493E+00
   1   16   12     1    12    4.3278E+05 -3.5530E+04   4.6831E+05  0.000E+00  0.000E+00  0.000E+00  4.33683E+01  3.569E-01  2.000E+01  2.000E+04 -1.777E+00
   1   15   13     1    13    4.6831E+05 -3.3950E+04   5.0226E+05  0.000E+00  0.000E+00  0.000E+00  4.29073E+01  3.732E-01  2.000E+01  2.000E+04 -1.697E+00
   1   14   14     1    14    5.0226E+05 -3.4353E+04   5.3661E+05  0.000E+00  0.000E+00  0.000E+00  4.24455E+01  3.887E-01  2.000E+01  2.000E+04 -1.718E+00
   1   13   15     1    15    5.3661E+05 -3.6456E+04   5.7307E+05  0.000E+00  0.000E+00  0.000E+00  4.19840E+01  4.044E-01  2.000E+01  2.000E+04 -1.823E+00
   1   12   16     1    16    5.7307E+05 -4.2392E+04   6.1546E+05  0.000E+00  0.000E+00  0.000E+00  4.15237E+01  4.214E-01  2.000E+01  2.000E+04 -2.120E+00
   1   12   17     1    17    6.1546E+05 -3.3450E+04   6.4891E+05  0.000E+00  0.000E+00  0.000E+00  4.10624E+01  4.374E-01  2.000E+01  2.000E+04 -1.673E+00
   1   12   18     1    18    6.4891E+05 -3.2034E+04   6.8094E+05  0.000E+00  0.000E+00  0.000E+00  4.05985E+01  4.508E-01  2.000E+01  2.000E+04 -1.602E+00
   1   12   19     1    19    6.8094E+05 -3.6199E+04   7.1714E+05  0.000E+00  0.000E+00  0.000E+00  4.01350E+01  4.645E-01  2.000E+01  2.000E+04 -1.810E+00
   1   13   20     1    20    7.1714E+05 -2.6740E+04   7.4388E+05  0.000E+00  0.000E+00  0.000E+00  3.96702E+01  4.770E-01  2.000E+01  2.000E+04 -1.337E+00
   1   14   21     1    21    7.4388E+05 -1.9775E+04   7.6366E+05  0.000E+00  0.000E+00  0.000E+00  3.92019E+01  4.860E-01  2.000E+01  2.000E+04 -9.888E-01
   1   14   22     1    22    7.6366E+05 -1.8076E+03   7.6546E+05  0.000E+00  0.000E+00  0.000E+00  3.87288E+01  4.902E-01  2.000E+01  2.000E+04 -9.038E-02
   1    9   30     2     1    5.0000E+04 -2.6607E+04   7.6607E+04  0.000E+00  0.000E+00  0.000E+00  4.02585E+01  1.335E-01  2.000E+01  2.000E+04 -1.330E+00
   1    9   29     2     2    7.6607E+04 -2.9069E+04   1.0568E+05  0.000E+00  0.000E+00  0.000E+00  4.00411E+01  1.661E-01  2.000E+01  2.000E+04 -1.453E+00
   1    9   28     2     3    1.0568E+05 -3.3348E+04   1.3902E+05  0.000E+00  0.000E+00  0.000E+00  3.98232E+01  1.982E-01  2.000E+01  2.000E+04 -1.667E+00
   1    9   27     2     4    1.3902E+05 -4.7451E+04   1.8648E+05  0.000E+00  0.000E+00  0.000E+00  3.96102E+01  2.352E-01  2.000E+01  2.000E+04 -2.373E+00
   1   10   26     2     5    1.8648E+05 -3.3419E+04   2.1989E+05  0.000E+00  0.000E+00  0.000E+00  3.93937E+01  2.687E-01  2.000E+01  2.000E+04 -1.671E+00
   1   11   25     2     6    2.1989E+05 -2.5064E+04   2.4496E+05  0.000E+00  0.000E+00  0.000E+00  3.91663E+01  2.913E-01  2.000E+01  2.000E+04 -1.253E+00
   1   12   24     2     7    2.4496E+05 -1.8494E+04   2.6345E+05  0.000E+00  0.000E+00  0.000E+00  3.89324E+01  3.074E-01  2.000E+01  2.000E+04 -9.247E-01
   1   13   23     2     8    2.6345E+05 -1.3154E+04   2.7661E+05  0.000E+00  0.000E+00  0.000E+00  3.86937E+01  3.187E-01  2.000E+01  2.000E+04 -6.577E-01
   1   14   22     2     9    2.7661E+05 -7.3655E+03   2.8397E+05  0.000E+00  0.000E+00  0.000E+00  3.84509E+01  3.259E-01  2.000E+01  2.000E+04 -3.683E-01
   1   14   22     3     1    1.0494E+06 -1.5392E+04   1.0648E+06  0.000E+00  0.000E+00  0.000E+00  3.80496E+01  4.941E-01  2.000E+01  2.000E+04 -7.696E-01
   1   15   23     3     2    1.0648E+06 -2.3798E+04   1.0886E+06  0.000E+00  0.000E+00  0.000E+00  3.71662E+01  4.995E-01  2.000E+01  2.000E+04 -1.190E+00
   1   15   24     3     3    1.0886E+06 -1.9812E+04   1.1084E+06  0.000E+00  0.000E+00  0.000E+00  3.62834E+01  5.056E-01  2.000E+01  2.000E+04 -9.906E-01
   1   15   25     3     4    1.1084E+06 -1.9405E+04   1.1278E+06  0.000E+00  0.000E+00  0.000E+00  3.53999E+01  5.110E-01  2.000E+01  2.000E+04 -9.703E-01
   1   15   26     3     5    1.1278E+06 -2.2169E+04   1.1500E+06  0.000E+00  0.000E+00  0.000E+00  3.45167E+01  5.167E-01  2.000E+01  2.000E+04 -1.108E+00
   1   16   27     3     6    1.1500E+06 -2.9364E+04   1.1794E+06  0.000E+00  0.000E+00  0.000E+00  3.36347E+01  5.236E-01  2.000E+01  2.000E+04 -1.468E+00
   1   17   28     3     7    1.1794E+06 -3.6429E+04   1.2158E+06  0.000E+00  0.000E+00  0.000E+00  3.27547E+01  5.325E-01  2.000E+01  2.000E+04 -1.821E+00
   1   18   29     3     8    1.2158E+06 -4.7417E+04   1.2632E+06  0.000E+00  0.000E+00  0.000E+00  3.18769E+01  5.436E-01  2.000E+01  2.000E+04 -2.371E+00
   1   18   30     3     9    1.2632E+06 -4.3822E+04   1.3070E+06  0.000E+00  0.000E+00  0.000E+00  3.09999E+01  5.555E-01  2.000E+01  2.000E+04 -2.191E+00



1
              HEAD IN LAYER   1 AT END OF TIME STEP   1 IN STRESS PERIOD   12
  ---------------------------------------------------------------------------

          1      2      3      4      5      6      7      8      9     10
         11     12     13     14     15     16     17     18     19     20
         21     22     23     24     25     26     27     28     29     30
 .........................................................................
   1  ****** ****** ****** ****** ****** ****** ****** ****** ****** ******
      ****** ****** ****** ****** ****** ****** ****** ****** ****** ******
      ****** ****** ****** ****** ****** ****** ****** ****** ****** ******
   2  ****** ****** ****** ****** ****** ****** ****** ****** ****** ******
      ****** ****** ****** ****** ****** ****** ****** ****** ****** ******
      ****** ****** ****** ****** ****** ****** ****** ****** ****** ******
   3  ****** ****** ****** ****** ****** ****** ****** ****** ****** ******
      ****** ****** ****** ****** ****** ****** ****** ****** ****** ******
      ****** ****** ****** ****** ****** ****** ****** ****** ****** ******
   4  ****** ****** ****** ****** ****** ****** ****** ****** ****** ******
      ****** ****** ****** ****** ****** ****** ****** ****** ****** ******
      ****** ****** ****** ****** ****** ****** ****** ****** ****** ******
   5  ****** ****** ****** ****** ****** ****** ****** ****** ****** ******
      ****** ****** ****** ****** ****** ****** ****** ****** ****** ******
      ****** ****** ****** ****** ****** ****** ****** ****** ****** ******
   6  ****** ****** ****** ****** ****** ****** ****** ****** ****** ******
      ****** ****** ****** ****** ****** ****** ****** ****** ****** ******
      ****** ****** ****** ****** ****** ****** ****** ****** ****** ******
   7  ****** ****** ****** ****** ****** ****** ****** ****** ****** ******
      ****** ****** ****** ****** ****** ****** ****** ****** ****** ******
      ****** ****** ****** ****** ****** ****** ****** ****** ****** ******
   8  ****** ****** ****** ****** ****** ****** ****** ****** ****** ******
      ****** ****** ****** ****** ****** ****** ****** ****** ****** ******
      ****** ****** ****** ****** ****** ****** ****** ****** ****** ******
   9  ****** ****** ****** ****** ****** ****** ****** ****** ****** ******
      ****** ****** ****** ****** ****** ****** ****** ****** ****** ******
      ****** ****** ****** ****** ****** ****** ****** ****** ****** ******
  10  ****** ****** ****** ****** ****** ****** ****** ****** ****** ******
      ****** ****** ****** ****** ****** ****** ****** ****** ****** ******
      ****** ****** ****** ****** ****** ****** ****** ****** ****** ******
  11  ****** ****** ****** ****** ****** ****** ****** ****** ****** ******
      ****** ****** ****** ****** ****** ****** ****** ****** ****** ******
      ****** ****** ****** ****** ****** ****** ****** ****** ****** ******
  12  ****** ****** ****** ****** ****** ****** ****** ****** ****** ******
      ****** ****** ****** ****** ****** ****** ****** ****** ****** ******
      ****** ****** ****** ****** ****** ****** ****** ****** ****** ******
  13  ****** ****** ****** ****** ****** ****** ****** ****** ****** ******
      ****** ****** ****** ****** ****** ****** ****** ****** ****** ******
      ****** ****** ****** ****** ****** ****** ****** ****** ****** ******
  14  ****** ****** ****** ****** ****** ****** ****** ****** ****** ******
      ****** ****** ****** ****** ****** ****** ****** ****** ****** ******
      ****** ****** ****** ****** ****** ****** ****** ****** ****** ******
  15  ****** ****** ****** ****** ****** ****** ****** ****** ****** ******
      ****** ****** ****** ****** ****** ****** ****** ****** ****** ******
      ****** ****** ****** ****** ****** ****** ****** ****** ****** ******
  16  ****** ****** ****** ****** ****** ****** ****** ****** ****** ******
      ****** ****** ****** ****** ****** ****** ****** ****** ****** ******
      ****** ****** ****** ****** ****** ****** ****** ****** ****** ******
  17  ****** ****** ****** ****** ****** ****** ****** ****** ****** ******
      ****** ****** ****** ****** ****** ****** ****** ****** ****** ******
      ****** ****** ****** ****** ****** ****** ****** ****** ****** ******
  18  ****** ****** ****** ****** ****** ****** ****** ****** ****** ******
      ****** ****** ****** ****** ****** ****** ****** ****** ****** ******
      ****** ****** ****** ****** ****** ****** ****** ****** ****** ******
  19  ****** ****** ****** ****** ****** ****** ****** ****** ****** ******
      ****** ****** ****** ****** ****** ****** ****** ****** ****** ******
      ****** ****** ****** ****** ****** ****** ****** ****** ****** ******
  20  ****** ****** ****** ****** ****** ****** ****** ****** ****** ******
      ****** ****** ****** ****** ****** ****** ****** ****** ****** ******
      ****** ****** ****** ****** ****** ****** ****** ****** ****** ******
  21  ****** ****** ****** ****** ****** ****** ****** ****** ****** ******
      ****** ****** ****** ****** ****** ****** ****** ****** ****** ******
      ****** ****** ****** ****** ****** ****** ****** ****** ****** ******
  22  ****** ****** ****** ****** ****** ****** ****** ****** ****** ******
      ****** ****** ****** ****** ****** ****** ****** ****** ****** ******
      ****** ****** ****** ****** ****** ****** ****** ****** ****** ******
  23  ****** ****** ****** ****** ****** ****** ****** ****** ****** ******
      ****** ****** ****** ****** ****** ****** ****** ****** ****** ******
      ****** ****** ****** ****** ****** ****** ****** ****** ****** ******
  24  ****** ****** ****** ****** ****** ****** ****** ****** ****** ******
      ****** ****** ****** ****** ****** ****** ****** ****** ****** ******
      ****** ****** ****** ****** ****** ****** ****** ****** ****** ******
  25  ****** ****** ****** ****** ****** ****** ****** ****** ****** ******
      ****** ****** ****** ****** ****** ****** ****** ****** ****** ******
      ****** ****** ****** ****** ****** ****** ****** ****** ****** ******

 HEAD WILL BE SAVED ON UNIT   51 AT END OF TIME STEP    1, STRESS PERIOD   12
1
  VOLUMETRIC BUDGET FOR ENTIRE MODEL AT END OF TIME STEP    1, STRESS PERIOD  12
  ------------------------------------------------------------------------------

     CUMULATIVE VOLUMES      L**3       RATES FOR THIS TIME STEP      L**3/T
     ------------------                 ------------------------

           IN:                                      IN:
           ---                                      ---
             STORAGE =    20931451.0396               STORAGE =           0.0000
       CONSTANT HEAD =  1399714842.4064         CONSTANT HEAD =     1280613.9293
               WELLS =           0.0000                 WELLS =           0.0000
            RECHARGE =    26413200.0000              RECHARGE =       27600.0000
      STREAM LEAKAGE =           0.0000        STREAM LEAKAGE =           0.0000

            TOTAL IN =  1447059493.4460              TOTAL IN =     1308213.9293

          OUT:                                     OUT:
          ----                                     ----
             STORAGE =      670144.8740               STORAGE =        1168.6537
       CONSTANT HEAD =           0.0000         CONSTANT HEAD =           0.0000
               WELLS =   166990274.0000                 WELLS =      150000.0000
            RECHARGE =           0.0000              RECHARGE =           0.0000
      STREAM LEAKAGE =  1279399082.1028        STREAM LEAKAGE =     1157045.2549

           TOTAL OUT =  1447059500.9768             TOTAL OUT =     1308213.9086

            IN - OUT =          -7.5308              IN - OUT =       2.0740E-02

 PERCENT DISCREPANCY =          -0.00     PERCENT DISCREPANCY =           0.00






         TIME SUMMARY AT END OF TIME STEP    1 IN STRESS PERIOD   12
                    SECONDS     MINUTES      HOURS       DAYS        YEARS
                    -----------------------------------------------------------
   TIME STEP LENGTH 7.86240E+06 1.31040E+05  2184.0      91.000     0.24914    
 STRESS PERIOD TIME 7.86240E+06 1.31040E+05  2184.0      91.000     0.24914    
         TOTAL TIME 9.46080E+07 1.57680E+06  26280.      1095.0      2.9979    
1

 Run end date and time (yyyy/mm/dd hh:mm:ss): 2018/10/02 17:58:05
 Elapsed run time:  0.063 Seconds

