                                  MODFLOW-2005     
      U.S. GEOLOGICAL SURVEY MODULAR FINITE-DIFFERENCE GROUND-WATER FLOW MODEL
                            VERSION 1.11.00 8/8/2013

 LIST FILE: supply2.lst
                         UNIT   10

 OPENING ..\data\supply.dis
 FILE TYPE:DIS   UNIT   11   STATUS:OLD    
 FORMAT:FORMATTED              ACCESS:SEQUENTIAL          

 OPENING ..\data\supply.ba6
 FILE TYPE:BAS6   UNIT   12   STATUS:OLD    
 FORMAT:FORMATTED              ACCESS:SEQUENTIAL          

 OPENING ..\data\supply_het.bc6
 FILE TYPE:BCF6   UNIT   13   STATUS:OLD    
 FORMAT:FORMATTED              ACCESS:SEQUENTIAL          

 OPENING ..\data\supply.rch
 FILE TYPE:RCH   UNIT   15   STATUS:OLD    
 FORMAT:FORMATTED              ACCESS:SEQUENTIAL          

 OPENING ..\data\supply2.sfr
 FILE TYPE:SFR   UNIT   16   STATUS:OLD    
 FORMAT:FORMATTED              ACCESS:SEQUENTIAL          

 OPENING ..\data\supply.oc
 FILE TYPE:OC   UNIT   17   STATUS:OLD    
 FORMAT:FORMATTED              ACCESS:SEQUENTIAL          

 OPENING ..\data\supply.pcg
 FILE TYPE:PCG   UNIT   18   STATUS:OLD    
 FORMAT:FORMATTED              ACCESS:SEQUENTIAL          

 OPENING supply2.wel
 FILE TYPE:WEL   UNIT   19   STATUS:OLD    
 FORMAT:FORMATTED              ACCESS:SEQUENTIAL          

 OPENING supply2sf.cbc
 FILE TYPE:DATA(BINARY)   UNIT   50   STATUS:UNKNOWN
 FORMAT:BINARY                 ACCESS:SEQUENTIAL          

 OPENING supply2hd.bhd
 FILE TYPE:DATA(BINARY)   UNIT   51   STATUS:UNKNOWN
 FORMAT:BINARY                 ACCESS:SEQUENTIAL          

 BAS -- BASIC PACKAGE, VERSION 7, 5/2/2005 INPUT READ FROM UNIT   12
 
 MODFLOW was compiled using uniform precision
 Precision of REAL and DOUBLE PRECISION variables:          15

 DISCRETIZATION INPUT DATA READ FROM UNIT   11
    1 LAYERS        25 ROWS        30 COLUMNS
   12 STRESS PERIOD(S) IN SIMULATION
 MODEL TIME UNIT IS DAYS
 MODEL LENGTH UNIT IS UNDEFINED
  Confining bed flag for each layer:
   0

                     DELR =   200.000    

                     DELC =   200.000    

 TOP ELEVATION OF LAYER 1 =  100.0000    

   MODEL LAYER BOTTOM EL. =   0.00000     FOR LAYER   1


 STRESS PERIOD     LENGTH       TIME STEPS     MULTIPLIER FOR DELT    SS FLAG
 ----------------------------------------------------------------------------
        1         92.00000          1                    1.500         TR
        2         91.00000          1                    1.500         TR
        3         91.00000          1                    1.500         TR
        4         91.00000          1                    1.500         TR
        5         92.00000          1                    1.500         TR
        6         91.00000          1                    1.500         TR
        7         91.00000          1                    1.500         TR
        8         91.00000          1                    1.500         TR
        9         92.00000          1                    1.500         TR
       10         91.00000          1                    1.500         TR
       11         91.00000          1                    1.500         TR
       12         91.00000          1                    1.500         TR

 TRANSIENT SIMULATION



 
 #MODOFC transient water supply sample problem                                   
 #                                                                               
 THE FREE FORMAT OPTION HAS BEEN SELECTED



                     BOUNDARY ARRAY FOR LAYER   1
 READING ON UNIT   12 WITH FORMAT: (20I4)              

 AQUIFER HEAD WILL BE SET TO   0.0000     AT ALL NO-FLOW NODES (IBOUND=0).



                       INITIAL HEAD FOR LAYER   1
 READING ON UNIT   12 WITH FORMAT: (10F13.0)           

 OUTPUT CONTROL IS SPECIFIED ONLY AT TIME STEPS FOR WHICH OUTPUT IS DESIRED
 COMPACT CELL-BY-CELL BUDGET FILES WILL BE WRITTEN
 HEAD PRINT FORMAT CODE IS  18    DRAWDOWN PRINT FORMAT CODE IS   0
 HEADS WILL BE SAVED ON UNIT   51    DRAWDOWNS WILL BE SAVED ON UNIT    0

 BCF -- BLOCK-CENTERED FLOW PACKAGE, VERSION 7, 5/2/2005
         INPUT READ FROM UNIT 13
 TRANSIENT SIMULATION
 HEAD AT CELLS THAT CONVERT TO DRY=   0.0000    
 WETTING CAPABILITY IS NOT ACTIVE
      LAYER  LAYER-TYPE CODE     INTERBLOCK T
      --------------------------------------------
         1            0          0 -- HARMONIC    

 COLUMN TO ROW ANISOTROPY =  1.000000    

     PRIMARY STORAGE COEF =  5.000000E-02 FOR LAYER   1



               TRANSMIS. ALONG ROWS FOR LAYER   1
 READING ON UNIT   13 WITH FORMAT: (FREE)              

 WEL -- WELL PACKAGE, VERSION 7, 5/2/2005 INPUT READ FROM UNIT   19
 # Well package input file written by MMProc
 No named parameters
 MAXIMUM OF      4 ACTIVE WELLS AT ONE TIME


     0 Well parameters

 RCH -- RECHARGE PACKAGE, VERSION 7, 5/2/2005 INPUT READ FROM UNIT   15
 No named parameters
 OPTION 1 -- RECHARGE TO TOP LAYER


     0 Recharge parameters

 SFR7 -- STREAMFLOW ROUTING PACKAGE, VERSION 1.0.7, 2013-01-15
         INPUT READ FROM UNIT  16
 #  Supply2 test problem for GWM-VI
 #  The eighth entry in the first data line is ISTCB2 -
 #    Setting this to a negative number indicates that
 #    streamflows out of the reach will be saved to a
 #    binary file.  The absolute value of ISTCB2 is the
 #    unit to which unformatted flows will be written.
 #
 No named parameters
 Segment information will not be 
 read by reach
 No named parameters
 No specifed inflow files


 NUMBER OF STREAM REACHES IS   40

 NUMBER OF STREAM SEGMENTS IS    3

 NUMBER OF STREAM PARAMETERS IS    0

 NUMBER OF STREAM SEGMENTS DEFINED USING PARAMETERS IS              0

 MAXIMUM ERROR FOR STREAM LEAKAGE RATES IS  1.00E-04

 CONSTANT FOR MANNINGS EQUATION IS  1.2839E+05





   STREAM NETWORK DESCRIPTION: 

   LAYER    ROW    COL   SEGMENT   REACH     LENGTH
                          NUMBER   NUMBER    IN CELL        
   --------------------------------------------------
      1     13      1       1        1    2.0000E+02
      1     13      2       1        2    2.0000E+02
      1     14      3       1        3    2.0000E+02
      1     15      4       1        4    2.0000E+02
      1     16      5       1        5    2.0000E+02
      1     16      6       1        6    2.0000E+02
      1     16      7       1        7    2.0000E+02
      1     16      8       1        8    2.0000E+02
      1     16      9       1        9    2.0000E+02
      1     16     10       1       10    2.0000E+02
      1     16     11       1       11    2.0000E+02
      1     16     12       1       12    2.0000E+02
      1     15     13       1       13    2.0000E+02
      1     14     14       1       14    2.0000E+02
      1     13     15       1       15    2.0000E+02
      1     12     16       1       16    2.0000E+02
      1     12     17       1       17    2.0000E+02
      1     12     18       1       18    2.0000E+02
      1     12     19       1       19    2.0000E+02
      1     13     20       1       20    2.0000E+02
      1     14     21       1       21    2.0000E+02
      1     14     22       1       22    2.0000E+02
      1      9     30       2        1    2.0000E+02
      1      9     29       2        2    2.0000E+02
      1      9     28       2        3    2.0000E+02
      1      9     27       2        4    2.0000E+02
      1     10     26       2        5    2.0000E+02
      1     11     25       2        6    2.0000E+02
      1     12     24       2        7    2.0000E+02
      1     13     23       2        8    2.0000E+02
      1     14     22       2        9    2.0000E+02
      1     14     22       3        1    2.0000E+02
      1     15     23       3        2    2.0000E+02
      1     15     24       3        3    2.0000E+02
      1     15     25       3        4    2.0000E+02
      1     15     26       3        5    2.0000E+02
      1     16     27       3        6    2.0000E+02
      1     17     28       3        7    2.0000E+02
      1     18     29       3        8    2.0000E+02
      1     18     30       3        9    2.0000E+02




 PCG -- CONJUGATE-GRADIENT SOLUTION PACKAGE, VERSION 7, 5/2/2005
 MAXIMUM OF    500 CALLS OF SOLUTION ROUTINE
 MAXIMUM OF      5 INTERNAL ITERATIONS PER CALL TO SOLUTION ROUTINE
 MATRIX PRECONDITIONING TYPE :    1



                                    SOLUTION BY THE CONJUGATE-GRADIENT METHOD
                                   -------------------------------------------
                    MAXIMUM NUMBER OF CALLS TO PCG ROUTINE =      500
                        MAXIMUM ITERATIONS PER CALL TO PCG =        5
                               MATRIX PRECONDITIONING TYPE =        1
        RELAXATION FACTOR (ONLY USED WITH PRECOND. TYPE 1) =    0.10000E+01
 PARAMETER OF POLYNOMIAL PRECOND. = 2 (2) OR IS CALCULATED :        0
                         HEAD CHANGE CRITERION FOR CLOSURE =    0.10000E-05
                     RESIDUAL CHANGE CRITERION FOR CLOSURE =    0.10000E+01
            PCG HEAD AND RESIDUAL CHANGE PRINTOUT INTERVAL =        1
     PRINTING FROM SOLVER IS LIMITED(1) OR SUPPRESSED (>1) =        1
                            STEADY-STATE DAMPING PARAMETER =    0.10000E+01
                               TRANSIENT DAMPING PARAMETER =    0.10000E+01
1
                            STRESS PERIOD NO.    1, LENGTH =   92.00000    
                            -----------------------------------------------

                              NUMBER OF TIME STEPS =     1

                               MULTIPLIER FOR DELT =     1.500

                            INITIAL TIME STEP SIZE =   92.00000    

 WELL NO.  LAYER   ROW   COL   STRESS RATE         
 --------------------------------------------------
      1      1      6     22      -8915.    
      2      1     16     17      -8329.    
      3      1      8     28      -7077.    
      4      1     15     19     -0.1415E+05

      4 WELLS

                 RECHARGE =  5.000000E-04



 CLASSIFICATION & COUNT OF STREAM SEGMENTS BASED ON SOURCE OF INFLOW:

                HEADWATER     DIVERSION     RECEIVES TRIBUTARY FLOW
                ---------     ---------     -----------------------
                     2              0               1



                    INPUT DATA FOR EACH STREAM SEGMENT
 ---------------------------------------------------------------------------------------------

 SEGMENT    SEG.     INFLOW   OVERLAND   STREAM    STREAM   ICALC  OUTFLOW  DIVERSION PRIORITY
    NO.    LENGTH     RATE     RUNOFF      ET       PPT.    METH.  TO SEG.  FROM SEG.    NO.

      1  4.400E+03 1.000E+05 0.000E+00 0.000E+00 0.000E+00    1        3        0        0
      2  1.800E+03 5.000E+04 0.000E+00 0.000E+00 0.000E+00    1        3        0        0
      3  1.800E+03 0.000E+00 0.000E+00 0.000E+00 0.000E+00    1        0        0        0


         STREAMBED PROPERTIES AND STREAM DIMENSIONS

 SEGMENT     BED HYD. COND.      BED THICKNESS     ELEV.-TOP OF BED     WIDTH OF STREAM     DEPTH OF STREAM    STREAM ROUGHNESS
    No.     UPPER     LOWER     UPPER     LOWER     UPPER     LOWER     UPPER     LOWER     UPPER     LOWER   CHANNEL      BANK

     1  5.000E+00 5.000E+00 1.000E+00 1.000E+00 4.850E+01 3.800E+01 2.000E+01 2.000E+01                     5.000E-02
     2  5.000E+00 5.000E+00 1.000E+00 1.000E+00 4.025E+01 3.800E+01 2.000E+01 2.000E+01                     5.000E-02
     3  5.000E+00 5.000E+00 1.000E+00 1.000E+00 3.800E+01 3.000E+01 2.000E+01 2.000E+01                     5.000E-02



 
 SOLVING FOR HEAD 


     9 CALLS TO PCG ROUTINE FOR TIME STEP   1 IN STRESS PERIOD    1
    36 TOTAL ITERATIONS

 OUTPUT CONTROL FOR STRESS PERIOD    1   TIME STEP    1
    SAVE BUDGET
    SAVE HEAD FOR ALL LAYERS
    PRINT HEAD FOR ALL LAYERS
 UBDSV2 SAVING "STREAMFLOW OUT  " ON UNIT  50 AT TIME STEP  1, STRESS PERIOD   1



 STREAM LISTING     PERIOD      1   STEP        1

 LAYER ROW COL. STREAM  RCH.  FLOW INTO     FLOW TO   FLOW OUT OF   OVRLND.     DIRECT     STREAM       STREAM     STREAM     STREAM   STREAMBED  STREAMBED
                SEG.NO.  NO.  STRM. RCH.    AQUIFER    STRM. RCH.    RUNOFF     PRECIP       ET          HEAD       DEPTH      WIDTH   CONDCTNC.   GRADIENT

   1   13    1     1     1    1.0000E+05 -6.1202E+03   1.0612E+05  0.000E+00  0.000E+00  0.000E+00  4.84087E+01  1.473E-01  2.000E+01  2.000E+04 -3.060E-01
   1   13    2     1     2    1.0612E+05 -7.5899E+03   1.1371E+05  0.000E+00  0.000E+00  0.000E+00  4.79372E+01  1.531E-01  2.000E+01  2.000E+04 -3.795E-01
   1   14    3     1     3    1.1371E+05 -2.1982E+03   1.1591E+05  0.000E+00  0.000E+00  0.000E+00  4.74640E+01  1.571E-01  2.000E+01  2.000E+04 -1.099E-01
   1   15    4     1     4    1.1591E+05 -2.2688E+03   1.1818E+05  0.000E+00  0.000E+00  0.000E+00  4.69885E+01  1.590E-01  2.000E+01  2.000E+04 -1.134E-01
   1   16    5     1     5    1.1818E+05 -7.1665E+03   1.2534E+05  0.000E+00  0.000E+00  0.000E+00  4.65151E+01  1.628E-01  2.000E+01  2.000E+04 -3.583E-01
   1   16    6     1     6    1.2534E+05 -4.2870E+03   1.2963E+05  0.000E+00  0.000E+00  0.000E+00  4.60423E+01  1.673E-01  2.000E+01  2.000E+04 -2.144E-01
   1   16    7     1     7    1.2963E+05 -4.1154E+03   1.3375E+05  0.000E+00  0.000E+00  0.000E+00  4.55684E+01  1.706E-01  2.000E+01  2.000E+04 -2.058E-01
   1   16    8     1     8    1.3375E+05 -4.0638E+03   1.3781E+05  0.000E+00  0.000E+00  0.000E+00  4.50942E+01  1.738E-01  2.000E+01  2.000E+04 -2.032E-01
   1   16    9     1     9    1.3781E+05 -4.0357E+03   1.4185E+05  0.000E+00  0.000E+00  0.000E+00  4.46201E+01  1.769E-01  2.000E+01  2.000E+04 -2.018E-01
   1   16   10     1    10    1.4185E+05 -4.0030E+03   1.4585E+05  0.000E+00  0.000E+00  0.000E+00  4.41458E+01  1.799E-01  2.000E+01  2.000E+04 -2.001E-01
   1   16   11     1    11    1.4585E+05 -3.9758E+03   1.4982E+05  0.000E+00  0.000E+00  0.000E+00  4.36715E+01  1.829E-01  2.000E+01  2.000E+04 -1.988E-01
   1   16   12     1    12    1.4982E+05 -6.4398E+03   1.5626E+05  0.000E+00  0.000E+00  0.000E+00  4.31981E+01  1.867E-01  2.000E+01  2.000E+04 -3.220E-01
   1   15   13     1    13    1.5626E+05 -6.4952E+03   1.6276E+05  0.000E+00  0.000E+00  0.000E+00  4.27255E+01  1.914E-01  2.000E+01  2.000E+04 -3.248E-01
   1   14   14     1    14    1.6276E+05 -6.6964E+03   1.6946E+05  0.000E+00  0.000E+00  0.000E+00  4.22530E+01  1.961E-01  2.000E+01  2.000E+04 -3.348E-01
   1   13   15     1    15    1.6946E+05 -6.9753E+03   1.7643E+05  0.000E+00  0.000E+00  0.000E+00  4.17805E+01  2.009E-01  2.000E+01  2.000E+04 -3.488E-01
   1   12   16     1    16    1.7643E+05 -8.1612E+03   1.8459E+05  0.000E+00  0.000E+00  0.000E+00  4.13084E+01  2.062E-01  2.000E+01  2.000E+04 -4.081E-01
   1   12   17     1    17    1.8459E+05 -5.2628E+03   1.8985E+05  0.000E+00  0.000E+00  0.000E+00  4.08357E+01  2.107E-01  2.000E+01  2.000E+04 -2.631E-01
   1   12   18     1    18    1.8985E+05 -4.8720E+03   1.9473E+05  0.000E+00  0.000E+00  0.000E+00  4.03619E+01  2.141E-01  2.000E+01  2.000E+04 -2.436E-01
   1   12   19     1    19    1.9473E+05 -6.3768E+03   2.0110E+05  0.000E+00  0.000E+00  0.000E+00  3.98883E+01  2.179E-01  2.000E+01  2.000E+04 -3.188E-01
   1   13   20     1    20    2.0110E+05 -4.1627E+03   2.0527E+05  0.000E+00  0.000E+00  0.000E+00  3.94145E+01  2.213E-01  2.000E+01  2.000E+04 -2.081E-01
   1   14   21     1    21    2.0527E+05 -3.5006E+03   2.0877E+05  0.000E+00  0.000E+00  0.000E+00  3.89397E+01  2.238E-01  2.000E+01  2.000E+04 -1.750E-01
   1   14   22     1    22    2.0877E+05  3.9837E+03   2.0478E+05  0.000E+00  0.000E+00  0.000E+00  3.84623E+01  2.237E-01  2.000E+01  2.000E+04  1.992E-01
   1    9   30     2     1    5.0000E+04 -4.1674E+03   5.4167E+04  0.000E+00  0.000E+00  0.000E+00  4.02437E+01  1.187E-01  2.000E+01  2.000E+04 -2.084E-01
   1    9   29     2     2    5.4167E+04 -4.0069E+03   5.8174E+04  0.000E+00  0.000E+00  0.000E+00  3.99992E+01  1.242E-01  2.000E+01  2.000E+04 -2.003E-01
   1    9   28     2     3    5.8174E+04 -2.8402E+03   6.1015E+04  0.000E+00  0.000E+00  0.000E+00  3.97537E+01  1.287E-01  2.000E+01  2.000E+04 -1.420E-01
   1    9   27     2     4    6.1015E+04 -6.7120E+03   6.7727E+04  0.000E+00  0.000E+00  0.000E+00  3.95098E+01  1.348E-01  2.000E+01  2.000E+04 -3.356E-01
   1   10   26     2     5    6.7727E+04 -6.6849E+03   7.4411E+04  0.000E+00  0.000E+00  0.000E+00  3.92681E+01  1.431E-01  2.000E+01  2.000E+04 -3.342E-01
   1   11   25     2     6    7.4411E+04 -6.3377E+03   8.0749E+04  0.000E+00  0.000E+00  0.000E+00  3.90258E+01  1.508E-01  2.000E+01  2.000E+04 -3.169E-01
   1   12   24     2     7    8.0749E+04 -5.9478E+03   8.6697E+04  0.000E+00  0.000E+00  0.000E+00  3.87829E+01  1.579E-01  2.000E+01  2.000E+04 -2.974E-01
   1   13   23     2     8    8.6697E+04 -1.6034E+03   8.8300E+04  0.000E+00  0.000E+00  0.000E+00  3.85371E+01  1.621E-01  2.000E+01  2.000E+04 -8.017E-02
   1   14   22     2     9    8.8300E+04  4.9171E+02   8.7809E+04  0.000E+00  0.000E+00  0.000E+00  3.82877E+01  1.627E-01  2.000E+01  2.000E+04  2.459E-02
   1   14   22     3     1    2.9259E+05 -9.5351E+03   3.0213E+05  0.000E+00  0.000E+00  0.000E+00  3.77864E+01  2.308E-01  2.000E+01  2.000E+04 -4.768E-01
   1   15   23     3     2    3.0213E+05 -1.7647E+03   3.0389E+05  0.000E+00  0.000E+00  0.000E+00  3.69001E+01  2.334E-01  2.000E+01  2.000E+04 -8.824E-02
   1   15   24     3     3    3.0389E+05 -1.5035E+03   3.0540E+05  0.000E+00  0.000E+00  0.000E+00  3.60120E+01  2.342E-01  2.000E+01  2.000E+04 -7.518E-02
   1   15   25     3     4    3.0540E+05 -1.5687E+03   3.0696E+05  0.000E+00  0.000E+00  0.000E+00  3.51238E+01  2.349E-01  2.000E+01  2.000E+04 -7.843E-02
   1   15   26     3     5    3.0696E+05 -1.8784E+03   3.0884E+05  0.000E+00  0.000E+00  0.000E+00  3.42357E+01  2.357E-01  2.000E+01  2.000E+04 -9.392E-02
   1   16   27     3     6    3.0884E+05 -2.1573E+03   3.1100E+05  0.000E+00  0.000E+00  0.000E+00  3.33477E+01  2.366E-01  2.000E+01  2.000E+04 -1.079E-01
   1   17   28     3     7    3.1100E+05 -6.5527E+03   3.1755E+05  0.000E+00  0.000E+00  0.000E+00  3.24608E+01  2.386E-01  2.000E+01  2.000E+04 -3.276E-01
   1   18   29     3     8    3.1755E+05 -7.9368E+03   3.2549E+05  0.000E+00  0.000E+00  0.000E+00  3.15752E+01  2.419E-01  2.000E+01  2.000E+04 -3.968E-01
   1   18   30     3     9    3.2549E+05 -7.1415E+03   3.3263E+05  0.000E+00  0.000E+00  0.000E+00  3.06897E+01  2.453E-01  2.000E+01  2.000E+04 -3.571E-01



1
              HEAD IN LAYER   1 AT END OF TIME STEP   1 IN STRESS PERIOD    1
  ---------------------------------------------------------------------------

          1      2      3      4      5      6      7      8      9     10
         11     12     13     14     15     16     17     18     19     20
         21     22     23     24     25     26     27     28     29     30
 .........................................................................
   1  ****** ****** ****** ****** ****** ****** ****** ****** ****** ******
      ****** ****** ****** ****** ****** ****** ****** ****** ****** ******
      ****** ****** ****** ****** ****** ****** ****** ****** ****** ******
   2  ****** ****** ****** ****** ****** ****** ****** ****** ****** ******
      ****** ****** ****** ****** ****** ****** ****** ****** ****** ******
      ****** ****** ****** ****** ****** ****** ****** ****** ****** ******
   3  ****** ****** ****** ****** ****** ****** ****** ****** ****** ******
      ****** ****** ****** ****** ****** ****** ****** ****** ****** ******
      ****** ****** ****** ****** ****** ****** ****** ****** ****** ******
   4  ****** ****** ****** ****** ****** ****** ****** ****** ****** ******
      ****** ****** ****** ****** ****** ****** ****** ****** ****** ******
      ****** ****** ****** ****** ****** ****** ****** ****** ****** ******
   5  ****** ****** ****** ****** ****** ****** ****** ****** ****** ******
      ****** ****** ****** ****** ****** ****** ****** ****** ****** ******
      ****** ****** ****** ****** ****** ****** ****** ****** ****** ******
   6  ****** ****** ****** ****** ****** ****** ****** ****** ****** ******
      ****** ****** ****** ****** ****** ****** ****** ****** ****** ******
      ****** ****** ****** ****** ****** ****** ****** ****** ****** ******
   7  ****** ****** ****** ****** ****** ****** ****** ****** ****** ******
      ****** ****** ****** ****** ****** ****** ****** ****** ****** ******
      ****** ****** ****** ****** ****** ****** ****** ****** ****** ******
   8  ****** ****** ****** ****** ****** ****** ****** ****** ****** ******
      ****** ****** ****** ****** ****** ****** ****** ****** ****** ******
      ****** ****** ****** ****** ****** ****** ****** ****** ****** ******
   9  ****** ****** ****** ****** ****** ****** ****** ****** ****** ******
      ****** ****** ****** ****** ****** ****** ****** ****** ****** ******
      ****** ****** ****** ****** ****** ****** ****** ****** ****** ******
  10  ****** ****** ****** ****** ****** ****** ****** ****** ****** ******
      ****** ****** ****** ****** ****** ****** ****** ****** ****** ******
      ****** ****** ****** ****** ****** ****** ****** ****** ****** ******
  11  ****** ****** ****** ****** ****** ****** ****** ****** ****** ******
      ****** ****** ****** ****** ****** ****** ****** ****** ****** ******
      ****** ****** ****** ****** ****** ****** ****** ****** ****** ******
  12  ****** ****** ****** ****** ****** ****** ****** ****** ****** ******
      ****** ****** ****** ****** ****** ****** ****** ****** ****** ******
      ****** ****** ****** ****** ****** ****** ****** ****** ****** ******
  13  ****** ****** ****** ****** ****** ****** ****** ****** ****** ******
      ****** ****** ****** ****** ****** ****** ****** ****** ****** ******
      ****** ****** ****** ****** ****** ****** ****** ****** ****** ******
  14  ****** ****** ****** ****** ****** ****** ****** ****** ****** ******
      ****** ****** ****** ****** ****** ****** ****** ****** ****** ******
      ****** ****** ****** ****** ****** ****** ****** ****** ****** ******
  15  ****** ****** ****** ****** ****** ****** ****** ****** ****** ******
      ****** ****** ****** ****** ****** ****** ****** ****** ****** ******
      ****** ****** ****** ****** ****** ****** ****** ****** ****** ******
  16  ****** ****** ****** ****** ****** ****** ****** ****** ****** ******
      ****** ****** ****** ****** ****** ****** ****** ****** ****** ******
      ****** ****** ****** ****** ****** ****** ****** ****** ****** ******
  17  ****** ****** ****** ****** ****** ****** ****** ****** ****** ******
      ****** ****** ****** ****** ****** ****** ****** ****** ****** ******
      ****** ****** ****** ****** ****** ****** ****** ****** ****** ******
  18  ****** ****** ****** ****** ****** ****** ****** ****** ****** ******
      ****** ****** ****** ****** ****** ****** ****** ****** ****** ******
      ****** ****** ****** ****** ****** ****** ****** ****** ****** ******
  19  ****** ****** ****** ****** ****** ****** ****** ****** ****** ******
      ****** ****** ****** ****** ****** ****** ****** ****** ****** ******
      ****** ****** ****** ****** ****** ****** ****** ****** ****** ******
  20  ****** ****** ****** ****** ****** ****** ****** ****** ****** ******
      ****** ****** ****** ****** ****** ****** ****** ****** ****** ******
      ****** ****** ****** ****** ****** ****** ****** ****** ****** ******
  21  ****** ****** ****** ****** ****** ****** ****** ****** ****** ******
      ****** ****** ****** ****** ****** ****** ****** ****** ****** ******
      ****** ****** ****** ****** ****** ****** ****** ****** ****** ******
  22  ****** ****** ****** ****** ****** ****** ****** ****** ****** ******
      ****** ****** ****** ****** ****** ****** ****** ****** ****** ******
      ****** ****** ****** ****** ****** ****** ****** ****** ****** ******
  23  ****** ****** ****** ****** ****** ****** ****** ****** ****** ******
      ****** ****** ****** ****** ****** ****** ****** ****** ****** ******
      ****** ****** ****** ****** ****** ****** ****** ****** ****** ******
  24  ****** ****** ****** ****** ****** ****** ****** ****** ****** ******
      ****** ****** ****** ****** ****** ****** ****** ****** ****** ******
      ****** ****** ****** ****** ****** ****** ****** ****** ****** ******
  25  ****** ****** ****** ****** ****** ****** ****** ****** ****** ******
      ****** ****** ****** ****** ****** ****** ****** ****** ****** ******
      ****** ****** ****** ****** ****** ****** ****** ****** ****** ******

 HEAD WILL BE SAVED ON UNIT   51 AT END OF TIME STEP    1, STRESS PERIOD    1
1
  VOLUMETRIC BUDGET FOR ENTIRE MODEL AT END OF TIME STEP    1, STRESS PERIOD   1
  ------------------------------------------------------------------------------

     CUMULATIVE VOLUMES      L**3       RATES FOR THIS TIME STEP      L**3/T
     ------------------                 ------------------------

           IN:                                      IN:
           ---                                      ---
             STORAGE =    17908126.1249               STORAGE =      194653.5448
       CONSTANT HEAD =     1163673.9179         CONSTANT HEAD =       12648.6295
               WELLS =           0.0000                 WELLS =           0.0000
            RECHARGE =     1269600.0000              RECHARGE =       13800.0000
      STREAM LEAKAGE =      411739.9451        STREAM LEAKAGE =        4475.4342

            TOTAL IN =    20753139.9879              TOTAL IN =      225577.6086

          OUT:                                     OUT:
          ----                                     ----
             STORAGE =           0.0000               STORAGE =           0.0000
       CONSTANT HEAD =           0.0000         CONSTANT HEAD =           0.0000
               WELLS =     3539360.8527                 WELLS =       38471.3136
            RECHARGE =           0.0000              RECHARGE =           0.0000
      STREAM LEAKAGE =    17213779.4273        STREAM LEAKAGE =      187106.2981

           TOTAL OUT =    20753140.2800             TOTAL OUT =      225577.6117

            IN - OUT =          -0.2920              IN - OUT =      -3.1742E-03

 PERCENT DISCREPANCY =          -0.00     PERCENT DISCREPANCY =          -0.00






         TIME SUMMARY AT END OF TIME STEP    1 IN STRESS PERIOD    1
                    SECONDS     MINUTES      HOURS       DAYS        YEARS
                    -----------------------------------------------------------
   TIME STEP LENGTH 7.94880E+06 1.32480E+05  2208.0      92.000     0.25188    
 STRESS PERIOD TIME 7.94880E+06 1.32480E+05  2208.0      92.000     0.25188    
         TOTAL TIME 7.94880E+06 1.32480E+05  2208.0      92.000     0.25188    
1
1
                            STRESS PERIOD NO.    2, LENGTH =   91.00000    
                            -----------------------------------------------

                              NUMBER OF TIME STEPS =     1

                               MULTIPLIER FOR DELT =     1.500

                            INITIAL TIME STEP SIZE =   91.00000    

 WELL NO.  LAYER   ROW   COL   STRESS RATE         
 --------------------------------------------------
      1      1      6     22      -8915.    
      2      1     16     17      -8329.    
      3      1      8     28      -7077.    
      4      1     15     19     -0.1415E+05

      4 WELLS

                 RECHARGE =  2.000000E-03

 REUSING STREAM SEGMENT DATA FROM LAST STRESS PERIOD
 
 SOLVING FOR HEAD 


     7 CALLS TO PCG ROUTINE FOR TIME STEP   1 IN STRESS PERIOD    2
    27 TOTAL ITERATIONS

 OUTPUT CONTROL FOR STRESS PERIOD    2   TIME STEP    1
    SAVE BUDGET
    SAVE HEAD FOR ALL LAYERS
    PRINT HEAD FOR ALL LAYERS
 UBDSV2 SAVING "STREAMFLOW OUT  " ON UNIT  50 AT TIME STEP  1, STRESS PERIOD   2



 STREAM LISTING     PERIOD      2   STEP        1

 LAYER ROW COL. STREAM  RCH.  FLOW INTO     FLOW TO   FLOW OUT OF   OVRLND.     DIRECT     STREAM       STREAM     STREAM     STREAM   STREAMBED  STREAMBED
                SEG.NO.  NO.  STRM. RCH.    AQUIFER    STRM. RCH.    RUNOFF     PRECIP       ET          HEAD       DEPTH      WIDTH   CONDCTNC.   GRADIENT

   1   13    1     1     1    1.0000E+05 -4.0032E+03   1.0400E+05  0.000E+00  0.000E+00  0.000E+00  4.84077E+01  1.464E-01  2.000E+01  2.000E+04 -2.002E-01
   1   13    2     1     2    1.0400E+05 -5.2657E+03   1.0927E+05  0.000E+00  0.000E+00  0.000E+00  4.79344E+01  1.503E-01  2.000E+01  2.000E+04 -2.633E-01
   1   14    3     1     3    1.0927E+05 -1.1145E+03   1.1038E+05  0.000E+00  0.000E+00  0.000E+00  4.74598E+01  1.530E-01  2.000E+01  2.000E+04 -5.572E-02
   1   15    4     1     4    1.1038E+05 -1.1405E+03   1.1152E+05  0.000E+00  0.000E+00  0.000E+00  4.69835E+01  1.540E-01  2.000E+01  2.000E+04 -5.702E-02
   1   16    5     1     5    1.1152E+05 -4.2127E+03   1.1574E+05  0.000E+00  0.000E+00  0.000E+00  4.65085E+01  1.562E-01  2.000E+01  2.000E+04 -2.106E-01
   1   16    6     1     6    1.1574E+05 -2.4735E+03   1.1821E+05  0.000E+00  0.000E+00  0.000E+00  4.60339E+01  1.589E-01  2.000E+01  2.000E+04 -1.237E-01
   1   16    7     1     7    1.1821E+05 -2.3680E+03   1.2058E+05  0.000E+00  0.000E+00  0.000E+00  4.55586E+01  1.609E-01  2.000E+01  2.000E+04 -1.184E-01
   1   16    8     1     8    1.2058E+05 -2.3207E+03   1.2290E+05  0.000E+00  0.000E+00  0.000E+00  4.50832E+01  1.628E-01  2.000E+01  2.000E+04 -1.160E-01
   1   16    9     1     9    1.2290E+05 -2.2716E+03   1.2517E+05  0.000E+00  0.000E+00  0.000E+00  4.46078E+01  1.646E-01  2.000E+01  2.000E+04 -1.136E-01
   1   16   10     1    10    1.2517E+05 -2.2007E+03   1.2737E+05  0.000E+00  0.000E+00  0.000E+00  4.41323E+01  1.664E-01  2.000E+01  2.000E+04 -1.100E-01
   1   16   11     1    11    1.2737E+05 -2.1148E+03   1.2949E+05  0.000E+00  0.000E+00  0.000E+00  4.36567E+01  1.681E-01  2.000E+01  2.000E+04 -1.057E-01
   1   16   12     1    12    1.2949E+05 -3.3167E+03   1.3280E+05  0.000E+00  0.000E+00  0.000E+00  4.31816E+01  1.702E-01  2.000E+01  2.000E+04 -1.658E-01
   1   15   13     1    13    1.3280E+05 -3.0083E+03   1.3581E+05  0.000E+00  0.000E+00  0.000E+00  4.27067E+01  1.727E-01  2.000E+01  2.000E+04 -1.504E-01
   1   14   14     1    14    1.3581E+05 -3.0648E+03   1.3888E+05  0.000E+00  0.000E+00  0.000E+00  4.22318E+01  1.750E-01  2.000E+01  2.000E+04 -1.532E-01
   1   13   15     1    15    1.3888E+05 -3.3643E+03   1.4224E+05  0.000E+00  0.000E+00  0.000E+00  4.17570E+01  1.774E-01  2.000E+01  2.000E+04 -1.682E-01
   1   12   16     1    16    1.4224E+05 -4.8532E+03   1.4709E+05  0.000E+00  0.000E+00  0.000E+00  4.12828E+01  1.805E-01  2.000E+01  2.000E+04 -2.427E-01
   1   12   17     1    17    1.4709E+05 -2.5421E+03   1.4964E+05  0.000E+00  0.000E+00  0.000E+00  4.08083E+01  1.833E-01  2.000E+01  2.000E+04 -1.271E-01
   1   12   18     1    18    1.4964E+05 -2.1139E+03   1.5175E+05  0.000E+00  0.000E+00  0.000E+00  4.03327E+01  1.850E-01  2.000E+01  2.000E+04 -1.057E-01
   1   12   19     1    19    1.5175E+05 -2.9759E+03   1.5472E+05  0.000E+00  0.000E+00  0.000E+00  3.98573E+01  1.869E-01  2.000E+01  2.000E+04 -1.488E-01
   1   13   20     1    20    1.5472E+05 -6.1411E+02   1.5534E+05  0.000E+00  0.000E+00  0.000E+00  3.93814E+01  1.882E-01  2.000E+01  2.000E+04 -3.071E-02
   1   14   21     1    21    1.5534E+05 -2.3756E+02   1.5558E+05  0.000E+00  0.000E+00  0.000E+00  3.89044E+01  1.885E-01  2.000E+01  2.000E+04 -1.188E-02
   1   14   22     1    22    1.5558E+05  4.8340E+03   1.5074E+05  0.000E+00  0.000E+00  0.000E+00  3.84255E+01  1.868E-01  2.000E+01  2.000E+04  2.417E-01
   1    9   30     2     1    5.0000E+04 -1.2778E+03   5.1278E+04  0.000E+00  0.000E+00  0.000E+00  4.02418E+01  1.168E-01  2.000E+01  2.000E+04 -6.389E-02
   1    9   29     2     2    5.1278E+04 -1.1137E+03   5.2391E+04  0.000E+00  0.000E+00  0.000E+00  3.99934E+01  1.184E-01  2.000E+01  2.000E+04 -5.568E-02
   1    9   28     2     3    5.2391E+04  7.0030E+01   5.2321E+04  0.000E+00  0.000E+00  0.000E+00  3.97441E+01  1.191E-01  2.000E+01  2.000E+04  3.502E-03
   1    9   27     2     4    5.2321E+04 -2.9037E+03   5.5225E+04  0.000E+00  0.000E+00  0.000E+00  3.94960E+01  1.210E-01  2.000E+01  2.000E+04 -1.452E-01
   1   10   26     2     5    5.5225E+04 -2.8623E+03   5.8087E+04  0.000E+00  0.000E+00  0.000E+00  3.92499E+01  1.249E-01  2.000E+01  2.000E+04 -1.431E-01
   1   11   25     2     6    5.8087E+04 -2.7255E+03   6.0813E+04  0.000E+00  0.000E+00  0.000E+00  3.90035E+01  1.285E-01  2.000E+01  2.000E+04 -1.363E-01
   1   12   24     2     7    6.0813E+04 -2.7232E+03   6.3536E+04  0.000E+00  0.000E+00  0.000E+00  3.87571E+01  1.321E-01  2.000E+01  2.000E+04 -1.362E-01
   1   13   23     2     8    6.3536E+04 -5.4203E+02   6.4078E+04  0.000E+00  0.000E+00  0.000E+00  3.85091E+01  1.341E-01  2.000E+01  2.000E+04 -2.710E-02
   1   14   22     2     9    6.4078E+04  1.4953E+03   6.2583E+04  0.000E+00  0.000E+00  0.000E+00  3.82585E+01  1.335E-01  2.000E+01  2.000E+04  7.477E-02
   1   14   22     3     1    2.1333E+05 -8.7353E+03   2.2206E+05  0.000E+00  0.000E+00  0.000E+00  3.77470E+01  1.914E-01  2.000E+01  2.000E+04 -4.368E-01
   1   15   23     3     2    2.2206E+05 -7.4652E+02   2.2281E+05  0.000E+00  0.000E+00  0.000E+00  3.68606E+01  1.939E-01  2.000E+01  2.000E+04 -3.733E-02
   1   15   24     3     3    2.2281E+05 -6.1781E+02   2.2342E+05  0.000E+00  0.000E+00  0.000E+00  3.59721E+01  1.943E-01  2.000E+01  2.000E+04 -3.089E-02
   1   15   25     3     4    2.2342E+05 -6.4877E+02   2.2407E+05  0.000E+00  0.000E+00  0.000E+00  3.50835E+01  1.946E-01  2.000E+01  2.000E+04 -3.244E-02
   1   15   26     3     5    2.2407E+05 -7.6247E+02   2.2484E+05  0.000E+00  0.000E+00  0.000E+00  3.41950E+01  1.950E-01  2.000E+01  2.000E+04 -3.812E-02
   1   16   27     3     6    2.2484E+05 -8.8149E+02   2.2572E+05  0.000E+00  0.000E+00  0.000E+00  3.33065E+01  1.954E-01  2.000E+01  2.000E+04 -4.407E-02
   1   17   28     3     7    2.2572E+05 -3.1957E+03   2.2891E+05  0.000E+00  0.000E+00  0.000E+00  3.24187E+01  1.965E-01  2.000E+01  2.000E+04 -1.598E-01
   1   18   29     3     8    2.2891E+05 -4.9232E+03   2.3384E+05  0.000E+00  0.000E+00  0.000E+00  3.15319E+01  1.986E-01  2.000E+01  2.000E+04 -2.462E-01
   1   18   30     3     9    2.3384E+05 -4.6075E+03   2.3844E+05  0.000E+00  0.000E+00  0.000E+00  3.06454E+01  2.010E-01  2.000E+01  2.000E+04 -2.304E-01



1
              HEAD IN LAYER   1 AT END OF TIME STEP   1 IN STRESS PERIOD    2
  ---------------------------------------------------------------------------

          1      2      3      4      5      6      7      8      9     10
         11     12     13     14     15     16     17     18     19     20
         21     22     23     24     25     26     27     28     29     30
 .........................................................................
   1  ****** ****** ****** ****** ****** ****** ****** ****** ****** ******
      ****** ****** ****** ****** ****** ****** ****** ****** ****** ******
      ****** ****** ****** ****** ****** ****** ****** ****** ****** ******
   2  ****** ****** ****** ****** ****** ****** ****** ****** ****** ******
      ****** ****** ****** ****** ****** ****** ****** ****** ****** ******
      ****** ****** ****** ****** ****** ****** ****** ****** ****** ******
   3  ****** ****** ****** ****** ****** ****** ****** ****** ****** ******
      ****** ****** ****** ****** ****** ****** ****** ****** ****** ******
      ****** ****** ****** ****** ****** ****** ****** ****** ****** ******
   4  ****** ****** ****** ****** ****** ****** ****** ****** ****** ******
      ****** ****** ****** ****** ****** ****** ****** ****** ****** ******
      ****** ****** ****** ****** ****** ****** ****** ****** ****** ******
   5  ****** ****** ****** ****** ****** ****** ****** ****** ****** ******
      ****** ****** ****** ****** ****** ****** ****** ****** ****** ******
      ****** ****** ****** ****** ****** ****** ****** ****** ****** ******
   6  ****** ****** ****** ****** ****** ****** ****** ****** ****** ******
      ****** ****** ****** ****** ****** ****** ****** ****** ****** ******
      ****** ****** ****** ****** ****** ****** ****** ****** ****** ******
   7  ****** ****** ****** ****** ****** ****** ****** ****** ****** ******
      ****** ****** ****** ****** ****** ****** ****** ****** ****** ******
      ****** ****** ****** ****** ****** ****** ****** ****** ****** ******
   8  ****** ****** ****** ****** ****** ****** ****** ****** ****** ******
      ****** ****** ****** ****** ****** ****** ****** ****** ****** ******
      ****** ****** ****** ****** ****** ****** ****** ****** ****** ******
   9  ****** ****** ****** ****** ****** ****** ****** ****** ****** ******
      ****** ****** ****** ****** ****** ****** ****** ****** ****** ******
      ****** ****** ****** ****** ****** ****** ****** ****** ****** ******
  10  ****** ****** ****** ****** ****** ****** ****** ****** ****** ******
      ****** ****** ****** ****** ****** ****** ****** ****** ****** ******
      ****** ****** ****** ****** ****** ****** ****** ****** ****** ******
  11  ****** ****** ****** ****** ****** ****** ****** ****** ****** ******
      ****** ****** ****** ****** ****** ****** ****** ****** ****** ******
      ****** ****** ****** ****** ****** ****** ****** ****** ****** ******
  12  ****** ****** ****** ****** ****** ****** ****** ****** ****** ******
      ****** ****** ****** ****** ****** ****** ****** ****** ****** ******
      ****** ****** ****** ****** ****** ****** ****** ****** ****** ******
  13  ****** ****** ****** ****** ****** ****** ****** ****** ****** ******
      ****** ****** ****** ****** ****** ****** ****** ****** ****** ******
      ****** ****** ****** ****** ****** ****** ****** ****** ****** ******
  14  ****** ****** ****** ****** ****** ****** ****** ****** ****** ******
      ****** ****** ****** ****** ****** ****** ****** ****** ****** ******
      ****** ****** ****** ****** ****** ****** ****** ****** ****** ******
  15  ****** ****** ****** ****** ****** ****** ****** ****** ****** ******
      ****** ****** ****** ****** ****** ****** ****** ****** ****** ******
      ****** ****** ****** ****** ****** ****** ****** ****** ****** ******
  16  ****** ****** ****** ****** ****** ****** ****** ****** ****** ******
      ****** ****** ****** ****** ****** ****** ****** ****** ****** ******
      ****** ****** ****** ****** ****** ****** ****** ****** ****** ******
  17  ****** ****** ****** ****** ****** ****** ****** ****** ****** ******
      ****** ****** ****** ****** ****** ****** ****** ****** ****** ******
      ****** ****** ****** ****** ****** ****** ****** ****** ****** ******
  18  ****** ****** ****** ****** ****** ****** ****** ****** ****** ******
      ****** ****** ****** ****** ****** ****** ****** ****** ****** ******
      ****** ****** ****** ****** ****** ****** ****** ****** ****** ******
  19  ****** ****** ****** ****** ****** ****** ****** ****** ****** ******
      ****** ****** ****** ****** ****** ****** ****** ****** ****** ******
      ****** ****** ****** ****** ****** ****** ****** ****** ****** ******
  20  ****** ****** ****** ****** ****** ****** ****** ****** ****** ******
      ****** ****** ****** ****** ****** ****** ****** ****** ****** ******
      ****** ****** ****** ****** ****** ****** ****** ****** ****** ******
  21  ****** ****** ****** ****** ****** ****** ****** ****** ****** ******
      ****** ****** ****** ****** ****** ****** ****** ****** ****** ******
      ****** ****** ****** ****** ****** ****** ****** ****** ****** ******
  22  ****** ****** ****** ****** ****** ****** ****** ****** ****** ******
      ****** ****** ****** ****** ****** ****** ****** ****** ****** ******
      ****** ****** ****** ****** ****** ****** ****** ****** ****** ******
  23  ****** ****** ****** ****** ****** ****** ****** ****** ****** ******
      ****** ****** ****** ****** ****** ****** ****** ****** ****** ******
      ****** ****** ****** ****** ****** ****** ****** ****** ****** ******
  24  ****** ****** ****** ****** ****** ****** ****** ****** ****** ******
      ****** ****** ****** ****** ****** ****** ****** ****** ****** ******
      ****** ****** ****** ****** ****** ****** ****** ****** ****** ******
  25  ****** ****** ****** ****** ****** ****** ****** ****** ****** ******
      ****** ****** ****** ****** ****** ****** ****** ****** ****** ******
      ****** ****** ****** ****** ****** ****** ****** ****** ****** ******

 HEAD WILL BE SAVED ON UNIT   51 AT END OF TIME STEP    1, STRESS PERIOD    2
1
  VOLUMETRIC BUDGET FOR ENTIRE MODEL AT END OF TIME STEP    1, STRESS PERIOD   2
  ------------------------------------------------------------------------------

     CUMULATIVE VOLUMES      L**3       RATES FOR THIS TIME STEP      L**3/T
     ------------------                 ------------------------

           IN:                                      IN:
           ---                                      ---
             STORAGE =    22861498.6536               STORAGE =       54432.6652
       CONSTANT HEAD =     2736398.3398         CONSTANT HEAD =       17282.6860
               WELLS =           0.0000                 WELLS =           0.0000
            RECHARGE =     6292800.0000              RECHARGE =       55200.0000
      STREAM LEAKAGE =      994080.2659        STREAM LEAKAGE =        6399.3442

            TOTAL IN =    32884777.2594              TOTAL IN =      133314.6953

          OUT:                                     OUT:
          ----                                     ----
             STORAGE =           0.0000               STORAGE =           0.0000
       CONSTANT HEAD =           0.0000         CONSTANT HEAD =           0.0000
               WELLS =     7040250.3917                 WELLS =       38471.3136
            RECHARGE =           0.0000              RECHARGE =           0.0000
      STREAM LEAKAGE =    25844528.1361        STREAM LEAKAGE =       94843.3924

           TOTAL OUT =    32884778.5278             TOTAL OUT =      133314.7060

            IN - OUT =          -1.2685              IN - OUT =      -1.0730E-02

 PERCENT DISCREPANCY =          -0.00     PERCENT DISCREPANCY =          -0.00






         TIME SUMMARY AT END OF TIME STEP    1 IN STRESS PERIOD    2
                    SECONDS     MINUTES      HOURS       DAYS        YEARS
                    -----------------------------------------------------------
   TIME STEP LENGTH 7.86240E+06 1.31040E+05  2184.0      91.000     0.24914    
 STRESS PERIOD TIME 7.86240E+06 1.31040E+05  2184.0      91.000     0.24914    
         TOTAL TIME 1.58112E+07 2.63520E+05  4392.0      183.00     0.50103    
1
1
                            STRESS PERIOD NO.    3, LENGTH =   91.00000    
                            -----------------------------------------------

                              NUMBER OF TIME STEPS =     1

                               MULTIPLIER FOR DELT =     1.500

                            INITIAL TIME STEP SIZE =   91.00000    

 WELL NO.  LAYER   ROW   COL   STRESS RATE         
 --------------------------------------------------
      1      1      6     22      -8915.    
      2      1     16     17      -8329.    
      3      1      8     28      -7077.    
      4      1     15     19     -0.1415E+05

      4 WELLS

                 RECHARGE =   0.00000    

 REUSING STREAM SEGMENT DATA FROM LAST STRESS PERIOD
 
 SOLVING FOR HEAD 


     7 CALLS TO PCG ROUTINE FOR TIME STEP   1 IN STRESS PERIOD    3
    27 TOTAL ITERATIONS

 OUTPUT CONTROL FOR STRESS PERIOD    3   TIME STEP    1
    SAVE BUDGET
    SAVE HEAD FOR ALL LAYERS
    PRINT HEAD FOR ALL LAYERS
 UBDSV2 SAVING "STREAMFLOW OUT  " ON UNIT  50 AT TIME STEP  1, STRESS PERIOD   3



 STREAM LISTING     PERIOD      3   STEP        1

 LAYER ROW COL. STREAM  RCH.  FLOW INTO     FLOW TO   FLOW OUT OF   OVRLND.     DIRECT     STREAM       STREAM     STREAM     STREAM   STREAMBED  STREAMBED
                SEG.NO.  NO.  STRM. RCH.    AQUIFER    STRM. RCH.    RUNOFF     PRECIP       ET          HEAD       DEPTH      WIDTH   CONDCTNC.   GRADIENT

   1   13    1     1     1    1.0000E+05 -2.7552E+03   1.0276E+05  0.000E+00  0.000E+00  0.000E+00  4.84072E+01  1.458E-01  2.000E+01  2.000E+04 -1.378E-01
   1   13    2     1     2    1.0276E+05 -3.8649E+03   1.0662E+05  0.000E+00  0.000E+00  0.000E+00  4.79328E+01  1.487E-01  2.000E+01  2.000E+04 -1.932E-01
   1   14    3     1     3    1.0662E+05 -6.5324E+02   1.0727E+05  0.000E+00  0.000E+00  0.000E+00  4.74574E+01  1.506E-01  2.000E+01  2.000E+04 -3.266E-02
   1   15    4     1     4    1.0727E+05 -6.3411E+02   1.0791E+05  0.000E+00  0.000E+00  0.000E+00  4.69807E+01  1.511E-01  2.000E+01  2.000E+04 -3.171E-02
   1   16    5     1     5    1.0791E+05 -2.4012E+03   1.1031E+05  0.000E+00  0.000E+00  0.000E+00  4.65047E+01  1.524E-01  2.000E+01  2.000E+04 -1.201E-01
   1   16    6     1     6    1.1031E+05 -1.4588E+03   1.1177E+05  0.000E+00  0.000E+00  0.000E+00  4.60290E+01  1.540E-01  2.000E+01  2.000E+04 -7.294E-02
   1   16    7     1     7    1.1177E+05 -1.4091E+03   1.1318E+05  0.000E+00  0.000E+00  0.000E+00  4.55529E+01  1.552E-01  2.000E+01  2.000E+04 -7.046E-02
   1   16    8     1     8    1.1318E+05 -1.3762E+03   1.1455E+05  0.000E+00  0.000E+00  0.000E+00  4.50768E+01  1.564E-01  2.000E+01  2.000E+04 -6.881E-02
   1   16    9     1     9    1.1455E+05 -1.3265E+03   1.1588E+05  0.000E+00  0.000E+00  0.000E+00  4.46007E+01  1.575E-01  2.000E+01  2.000E+04 -6.632E-02
   1   16   10     1    10    1.1588E+05 -1.2487E+03   1.1713E+05  0.000E+00  0.000E+00  0.000E+00  4.41244E+01  1.585E-01  2.000E+01  2.000E+04 -6.244E-02
   1   16   11     1    11    1.1713E+05 -1.1455E+03   1.1827E+05  0.000E+00  0.000E+00  0.000E+00  4.36481E+01  1.595E-01  2.000E+01  2.000E+04 -5.728E-02
   1   16   12     1    12    1.1827E+05 -1.6062E+03   1.1988E+05  0.000E+00  0.000E+00  0.000E+00  4.31720E+01  1.606E-01  2.000E+01  2.000E+04 -8.031E-02
   1   15   13     1    13    1.1988E+05 -1.2695E+03   1.2115E+05  0.000E+00  0.000E+00  0.000E+00  4.26959E+01  1.618E-01  2.000E+01  2.000E+04 -6.347E-02
   1   14   14     1    14    1.2115E+05 -1.2826E+03   1.2243E+05  0.000E+00  0.000E+00  0.000E+00  4.22196E+01  1.628E-01  2.000E+01  2.000E+04 -6.413E-02
   1   13   15     1    15    1.2243E+05 -1.5866E+03   1.2402E+05  0.000E+00  0.000E+00  0.000E+00  4.17435E+01  1.640E-01  2.000E+01  2.000E+04 -7.933E-02
   1   12   16     1    16    1.2402E+05 -3.0342E+03   1.2705E+05  0.000E+00  0.000E+00  0.000E+00  4.12681E+01  1.658E-01  2.000E+01  2.000E+04 -1.517E-01
   1   12   17     1    17    1.2705E+05 -1.2011E+03   1.2825E+05  0.000E+00  0.000E+00  0.000E+00  4.07925E+01  1.675E-01  2.000E+01  2.000E+04 -6.005E-02
   1   12   18     1    18    1.2825E+05 -7.8376E+02   1.2904E+05  0.000E+00  0.000E+00  0.000E+00  4.03160E+01  1.683E-01  2.000E+01  2.000E+04 -3.919E-02
   1   12   19     1    19    1.2904E+05 -1.3072E+03   1.3034E+05  0.000E+00  0.000E+00  0.000E+00  3.98395E+01  1.691E-01  2.000E+01  2.000E+04 -6.536E-02
   1   13   20     1    20    1.3034E+05  9.4681E+02   1.2940E+05  0.000E+00  0.000E+00  0.000E+00  3.93624E+01  1.692E-01  2.000E+01  2.000E+04  4.734E-02
   1   14   21     1    21    1.2940E+05  1.3798E+03   1.2802E+05  0.000E+00  0.000E+00  0.000E+00  3.88842E+01  1.683E-01  2.000E+01  2.000E+04  6.899E-02
   1   14   22     1    22    1.2802E+05  5.2195E+03   1.2280E+05  0.000E+00  0.000E+00  0.000E+00  3.84043E+01  1.657E-01  2.000E+01  2.000E+04  2.610E-01
   1    9   30     2     1    5.0000E+04 -1.7854E+01   5.0018E+04  0.000E+00  0.000E+00  0.000E+00  4.02409E+01  1.159E-01  2.000E+01  2.000E+04 -8.927E-04
   1    9   29     2     2    5.0018E+04  1.4699E+02   4.9871E+04  0.000E+00  0.000E+00  0.000E+00  3.99908E+01  1.158E-01  2.000E+01  2.000E+04  7.350E-03
   1    9   28     2     3    4.9871E+04  1.3503E+03   4.8521E+04  0.000E+00  0.000E+00  0.000E+00  3.97397E+01  1.147E-01  2.000E+01  2.000E+04  6.752E-02
   1    9   27     2     4    4.8521E+04 -1.0396E+03   4.9560E+04  0.000E+00  0.000E+00  0.000E+00  3.94895E+01  1.145E-01  2.000E+01  2.000E+04 -5.198E-02
   1   10   26     2     5    4.9560E+04 -1.1536E+03   5.0714E+04  0.000E+00  0.000E+00  0.000E+00  3.92411E+01  1.161E-01  2.000E+01  2.000E+04 -5.768E-02
   1   11   25     2     6    5.0714E+04 -1.1462E+03   5.1860E+04  0.000E+00  0.000E+00  0.000E+00  3.89926E+01  1.176E-01  2.000E+01  2.000E+04 -5.731E-02
   1   12   24     2     7    5.1860E+04 -1.3144E+03   5.3174E+04  0.000E+00  0.000E+00  0.000E+00  3.87443E+01  1.193E-01  2.000E+01  2.000E+04 -6.572E-02
   1   13   23     2     8    5.3174E+04 -1.9851E+02   5.3373E+04  0.000E+00  0.000E+00  0.000E+00  3.84954E+01  1.204E-01  2.000E+01  2.000E+04 -9.925E-03
   1   14   22     2     9    5.3373E+04  2.0152E+03   5.1358E+04  0.000E+00  0.000E+00  0.000E+00  3.82441E+01  1.191E-01  2.000E+01  2.000E+04  1.008E-01
   1   14   22     3     1    1.7416E+05 -8.3593E+03   1.8252E+05  0.000E+00  0.000E+00  0.000E+00  3.77254E+01  1.698E-01  2.000E+01  2.000E+04 -4.180E-01
   1   15   23     3     2    1.8252E+05 -3.2679E+02   1.8284E+05  0.000E+00  0.000E+00  0.000E+00  3.68390E+01  1.723E-01  2.000E+01  2.000E+04 -1.634E-02
   1   15   24     3     3    1.8284E+05 -2.8509E+02   1.8313E+05  0.000E+00  0.000E+00  0.000E+00  3.59503E+01  1.725E-01  2.000E+01  2.000E+04 -1.425E-02
   1   15   25     3     4    1.8313E+05 -3.0302E+02   1.8343E+05  0.000E+00  0.000E+00  0.000E+00  3.50615E+01  1.727E-01  2.000E+01  2.000E+04 -1.515E-02
   1   15   26     3     5    1.8343E+05 -3.5502E+02   1.8379E+05  0.000E+00  0.000E+00  0.000E+00  3.41728E+01  1.728E-01  2.000E+01  2.000E+04 -1.775E-02
   1   16   27     3     6    1.8379E+05 -4.0958E+02   1.8420E+05  0.000E+00  0.000E+00  0.000E+00  3.32842E+01  1.731E-01  2.000E+01  2.000E+04 -2.048E-02
   1   17   28     3     7    1.8420E+05 -1.7610E+03   1.8596E+05  0.000E+00  0.000E+00  0.000E+00  3.23959E+01  1.737E-01  2.000E+01  2.000E+04 -8.805E-02
   1   18   29     3     8    1.8596E+05 -3.3566E+03   1.8931E+05  0.000E+00  0.000E+00  0.000E+00  3.15084E+01  1.751E-01  2.000E+01  2.000E+04 -1.678E-01
   1   18   30     3     9    1.8931E+05 -3.4417E+03   1.9275E+05  0.000E+00  0.000E+00  0.000E+00  3.06214E+01  1.770E-01  2.000E+01  2.000E+04 -1.721E-01



1
              HEAD IN LAYER   1 AT END OF TIME STEP   1 IN STRESS PERIOD    3
  ---------------------------------------------------------------------------

          1      2      3      4      5      6      7      8      9     10
         11     12     13     14     15     16     17     18     19     20
         21     22     23     24     25     26     27     28     29     30
 .........................................................................
   1  ****** ****** ****** ****** ****** ****** ****** ****** ****** ******
      ****** ****** ****** ****** ****** ****** ****** ****** ****** ******
      ****** ****** ****** ****** ****** ****** ****** ****** ****** ******
   2  ****** ****** ****** ****** ****** ****** ****** ****** ****** ******
      ****** ****** ****** ****** ****** ****** ****** ****** ****** ******
      ****** ****** ****** ****** ****** ****** ****** ****** ****** ******
   3  ****** ****** ****** ****** ****** ****** ****** ****** ****** ******
      ****** ****** ****** ****** ****** ****** ****** ****** ****** ******
      ****** ****** ****** ****** ****** ****** ****** ****** ****** ******
   4  ****** ****** ****** ****** ****** ****** ****** ****** ****** ******
      ****** ****** ****** ****** ****** ****** ****** ****** ****** ******
      ****** ****** ****** ****** ****** ****** ****** ****** ****** ******
   5  ****** ****** ****** ****** ****** ****** ****** ****** ****** ******
      ****** ****** ****** ****** ****** ****** ****** ****** ****** ******
      ****** ****** ****** ****** ****** ****** ****** ****** ****** ******
   6  ****** ****** ****** ****** ****** ****** ****** ****** ****** ******
      ****** ****** ****** ****** ****** ****** ****** ****** ****** ******
      ****** ****** ****** ****** ****** ****** ****** ****** ****** ******
   7  ****** ****** ****** ****** ****** ****** ****** ****** ****** ******
      ****** ****** ****** ****** ****** ****** ****** ****** ****** ******
      ****** ****** ****** ****** ****** ****** ****** ****** ****** ******
   8  ****** ****** ****** ****** ****** ****** ****** ****** ****** ******
      ****** ****** ****** ****** ****** ****** ****** ****** ****** ******
      ****** ****** ****** ****** ****** ****** ****** ****** ****** ******
   9  ****** ****** ****** ****** ****** ****** ****** ****** ****** ******
      ****** ****** ****** ****** ****** ****** ****** ****** ****** ******
      ****** ****** ****** ****** ****** ****** ****** ****** ****** ******
  10  ****** ****** ****** ****** ****** ****** ****** ****** ****** ******
      ****** ****** ****** ****** ****** ****** ****** ****** ****** ******
      ****** ****** ****** ****** ****** ****** ****** ****** ****** ******
  11  ****** ****** ****** ****** ****** ****** ****** ****** ****** ******
      ****** ****** ****** ****** ****** ****** ****** ****** ****** ******
      ****** ****** ****** ****** ****** ****** ****** ****** ****** ******
  12  ****** ****** ****** ****** ****** ****** ****** ****** ****** ******
      ****** ****** ****** ****** ****** ****** ****** ****** ****** ******
      ****** ****** ****** ****** ****** ****** ****** ****** ****** ******
  13  ****** ****** ****** ****** ****** ****** ****** ****** ****** ******
      ****** ****** ****** ****** ****** ****** ****** ****** ****** ******
      ****** ****** ****** ****** ****** ****** ****** ****** ****** ******
  14  ****** ****** ****** ****** ****** ****** ****** ****** ****** ******
      ****** ****** ****** ****** ****** ****** ****** ****** ****** ******
      ****** ****** ****** ****** ****** ****** ****** ****** ****** ******
  15  ****** ****** ****** ****** ****** ****** ****** ****** ****** ******
      ****** ****** ****** ****** ****** ****** ****** ****** ****** ******
      ****** ****** ****** ****** ****** ****** ****** ****** ****** ******
  16  ****** ****** ****** ****** ****** ****** ****** ****** ****** ******
      ****** ****** ****** ****** ****** ****** ****** ****** ****** ******
      ****** ****** ****** ****** ****** ****** ****** ****** ****** ******
  17  ****** ****** ****** ****** ****** ****** ****** ****** ****** ******
      ****** ****** ****** ****** ****** ****** ****** ****** ****** ******
      ****** ****** ****** ****** ****** ****** ****** ****** ****** ******
  18  ****** ****** ****** ****** ****** ****** ****** ****** ****** ******
      ****** ****** ****** ****** ****** ****** ****** ****** ****** ******
      ****** ****** ****** ****** ****** ****** ****** ****** ****** ******
  19  ****** ****** ****** ****** ****** ****** ****** ****** ****** ******
      ****** ****** ****** ****** ****** ****** ****** ****** ****** ******
      ****** ****** ****** ****** ****** ****** ****** ****** ****** ******
  20  ****** ****** ****** ****** ****** ****** ****** ****** ****** ******
      ****** ****** ****** ****** ****** ****** ****** ****** ****** ******
      ****** ****** ****** ****** ****** ****** ****** ****** ****** ******
  21  ****** ****** ****** ****** ****** ****** ****** ****** ****** ******
      ****** ****** ****** ****** ****** ****** ****** ****** ****** ******
      ****** ****** ****** ****** ****** ****** ****** ****** ****** ******
  22  ****** ****** ****** ****** ****** ****** ****** ****** ****** ******
      ****** ****** ****** ****** ****** ****** ****** ****** ****** ******
      ****** ****** ****** ****** ****** ****** ****** ****** ****** ******
  23  ****** ****** ****** ****** ****** ****** ****** ****** ****** ******
      ****** ****** ****** ****** ****** ****** ****** ****** ****** ******
      ****** ****** ****** ****** ****** ****** ****** ****** ****** ******
  24  ****** ****** ****** ****** ****** ****** ****** ****** ****** ******
      ****** ****** ****** ****** ****** ****** ****** ****** ****** ******
      ****** ****** ****** ****** ****** ****** ****** ****** ****** ******
  25  ****** ****** ****** ****** ****** ****** ****** ****** ****** ******
      ****** ****** ****** ****** ****** ****** ****** ****** ****** ******
      ****** ****** ****** ****** ****** ****** ****** ****** ****** ******

 HEAD WILL BE SAVED ON UNIT   51 AT END OF TIME STEP    1, STRESS PERIOD    3
1
  VOLUMETRIC BUDGET FOR ENTIRE MODEL AT END OF TIME STEP    1, STRESS PERIOD   3
  ------------------------------------------------------------------------------

     CUMULATIVE VOLUMES      L**3       RATES FOR THIS TIME STEP      L**3/T
     ------------------                 ------------------------

           IN:                                      IN:
           ---                                      ---
             STORAGE =    27894125.3139               STORAGE =       55303.5897
       CONSTANT HEAD =     5095296.8729         CONSTANT HEAD =       25921.9619
               WELLS =           0.0000                 WELLS =           0.0000
            RECHARGE =     6292800.0000              RECHARGE =           0.0000
      STREAM LEAKAGE =     2000415.3089        STREAM LEAKAGE =       11058.6268

            TOTAL IN =    41282637.4957              TOTAL IN =       92284.1784

          OUT:                                     OUT:
          ----                                     ----
             STORAGE =           0.0000               STORAGE =           0.0000
       CONSTANT HEAD =           0.0000         CONSTANT HEAD =           0.0000
               WELLS =    10541139.9308                 WELLS =       38471.3136
            RECHARGE =           0.0000              RECHARGE =           0.0000
      STREAM LEAKAGE =    30741499.5398        STREAM LEAKAGE =       53812.8726

           TOTAL OUT =    41282639.4705             TOTAL OUT =       92284.1862

            IN - OUT =          -1.9748              IN - OUT =      -7.7623E-03

 PERCENT DISCREPANCY =          -0.00     PERCENT DISCREPANCY =          -0.00






         TIME SUMMARY AT END OF TIME STEP    1 IN STRESS PERIOD    3
                    SECONDS     MINUTES      HOURS       DAYS        YEARS
                    -----------------------------------------------------------
   TIME STEP LENGTH 7.86240E+06 1.31040E+05  2184.0      91.000     0.24914    
 STRESS PERIOD TIME 7.86240E+06 1.31040E+05  2184.0      91.000     0.24914    
         TOTAL TIME 2.36736E+07 3.94560E+05  6576.0      274.00     0.75017    
1
1
                            STRESS PERIOD NO.    4, LENGTH =   91.00000    
                            -----------------------------------------------

                              NUMBER OF TIME STEPS =     1

                               MULTIPLIER FOR DELT =     1.500

                            INITIAL TIME STEP SIZE =   91.00000    

 WELL NO.  LAYER   ROW   COL   STRESS RATE         
 --------------------------------------------------
      1      1      6     22      -8915.    
      2      1     16     17      -8329.    
      3      1      8     28      -7077.    
      4      1     15     19     -0.1415E+05

      4 WELLS

                 RECHARGE =  1.000000E-03

 REUSING STREAM SEGMENT DATA FROM LAST STRESS PERIOD
 
 SOLVING FOR HEAD 


     6 CALLS TO PCG ROUTINE FOR TIME STEP   1 IN STRESS PERIOD    4
    23 TOTAL ITERATIONS

 OUTPUT CONTROL FOR STRESS PERIOD    4   TIME STEP    1
    SAVE BUDGET
    SAVE HEAD FOR ALL LAYERS
    PRINT HEAD FOR ALL LAYERS
 UBDSV2 SAVING "STREAMFLOW OUT  " ON UNIT  50 AT TIME STEP  1, STRESS PERIOD   4



 STREAM LISTING     PERIOD      4   STEP        1

 LAYER ROW COL. STREAM  RCH.  FLOW INTO     FLOW TO   FLOW OUT OF   OVRLND.     DIRECT     STREAM       STREAM     STREAM     STREAM   STREAMBED  STREAMBED
                SEG.NO.  NO.  STRM. RCH.    AQUIFER    STRM. RCH.    RUNOFF     PRECIP       ET          HEAD       DEPTH      WIDTH   CONDCTNC.   GRADIENT

   1   13    1     1     1    1.0000E+05 -2.5236E+03   1.0252E+05  0.000E+00  0.000E+00  0.000E+00  4.84071E+01  1.457E-01  2.000E+01  2.000E+04 -1.262E-01
   1   13    2     1     2    1.0252E+05 -3.5959E+03   1.0612E+05  0.000E+00  0.000E+00  0.000E+00  4.79325E+01  1.484E-01  2.000E+01  2.000E+04 -1.798E-01
   1   14    3     1     3    1.0612E+05 -6.2488E+02   1.0674E+05  0.000E+00  0.000E+00  0.000E+00  4.74570E+01  1.502E-01  2.000E+01  2.000E+04 -3.124E-02
   1   15    4     1     4    1.0674E+05 -5.9531E+02   1.0734E+05  0.000E+00  0.000E+00  0.000E+00  4.69802E+01  1.507E-01  2.000E+01  2.000E+04 -2.977E-02
   1   16    5     1     5    1.0734E+05 -2.0899E+03   1.0943E+05  0.000E+00  0.000E+00  0.000E+00  4.65041E+01  1.518E-01  2.000E+01  2.000E+04 -1.045E-01
   1   16    6     1     6    1.0943E+05 -1.3044E+03   1.1073E+05  0.000E+00  0.000E+00  0.000E+00  4.60282E+01  1.532E-01  2.000E+01  2.000E+04 -6.522E-02
   1   16    7     1     7    1.1073E+05 -1.2654E+03   1.1200E+05  0.000E+00  0.000E+00  0.000E+00  4.55520E+01  1.543E-01  2.000E+01  2.000E+04 -6.327E-02
   1   16    8     1     8    1.1200E+05 -1.2353E+03   1.1323E+05  0.000E+00  0.000E+00  0.000E+00  4.50758E+01  1.553E-01  2.000E+01  2.000E+04 -6.177E-02
   1   16    9     1     9    1.1323E+05 -1.1865E+03   1.1442E+05  0.000E+00  0.000E+00  0.000E+00  4.45995E+01  1.563E-01  2.000E+01  2.000E+04 -5.932E-02
   1   16   10     1    10    1.1442E+05 -1.1095E+03   1.1553E+05  0.000E+00  0.000E+00  0.000E+00  4.41232E+01  1.573E-01  2.000E+01  2.000E+04 -5.548E-02
   1   16   11     1    11    1.1553E+05 -1.0022E+03   1.1653E+05  0.000E+00  0.000E+00  0.000E+00  4.36468E+01  1.582E-01  2.000E+01  2.000E+04 -5.011E-02
   1   16   12     1    12    1.1653E+05 -1.3038E+03   1.1784E+05  0.000E+00  0.000E+00  0.000E+00  4.31705E+01  1.591E-01  2.000E+01  2.000E+04 -6.519E-02
   1   15   13     1    13    1.1784E+05 -9.9415E+02   1.1883E+05  0.000E+00  0.000E+00  0.000E+00  4.26941E+01  1.600E-01  2.000E+01  2.000E+04 -4.971E-02
   1   14   14     1    14    1.1883E+05 -9.8908E+02   1.1982E+05  0.000E+00  0.000E+00  0.000E+00  4.22176E+01  1.608E-01  2.000E+01  2.000E+04 -4.945E-02
   1   13   15     1    15    1.1982E+05 -1.2725E+03   1.2109E+05  0.000E+00  0.000E+00  0.000E+00  4.17413E+01  1.617E-01  2.000E+01  2.000E+04 -6.363E-02
   1   12   16     1    16    1.2109E+05 -2.6295E+03   1.2372E+05  0.000E+00  0.000E+00  0.000E+00  4.12656E+01  1.633E-01  2.000E+01  2.000E+04 -1.315E-01
   1   12   17     1    17    1.2372E+05 -9.4911E+02   1.2467E+05  0.000E+00  0.000E+00  0.000E+00  4.07897E+01  1.647E-01  2.000E+01  2.000E+04 -4.746E-02
   1   12   18     1    18    1.2467E+05 -5.4562E+02   1.2522E+05  0.000E+00  0.000E+00  0.000E+00  4.03131E+01  1.653E-01  2.000E+01  2.000E+04 -2.728E-02
   1   12   19     1    19    1.2522E+05 -1.0103E+03   1.2623E+05  0.000E+00  0.000E+00  0.000E+00  3.98364E+01  1.659E-01  2.000E+01  2.000E+04 -5.051E-02
   1   13   20     1    20    1.2623E+05  1.1529E+03   1.2507E+05  0.000E+00  0.000E+00  0.000E+00  3.93591E+01  1.659E-01  2.000E+01  2.000E+04  5.765E-02
   1   14   21     1    21    1.2507E+05  1.6583E+03   1.2342E+05  0.000E+00  0.000E+00  0.000E+00  3.88807E+01  1.648E-01  2.000E+01  2.000E+04  8.291E-02
   1   14   22     1    22    1.2342E+05  5.2651E+03   1.1815E+05  0.000E+00  0.000E+00  0.000E+00  3.84006E+01  1.620E-01  2.000E+01  2.000E+04  2.633E-01
   1    9   30     2     1    5.0000E+04  9.3959E+01   4.9906E+04  0.000E+00  0.000E+00  0.000E+00  4.02408E+01  1.158E-01  2.000E+01  2.000E+04  4.698E-03
   1    9   29     2     2    4.9906E+04  2.6664E+02   4.9639E+04  0.000E+00  0.000E+00  0.000E+00  3.99905E+01  1.155E-01  2.000E+01  2.000E+04  1.333E-02
   1    9   28     2     3    4.9639E+04  1.4926E+03   4.8147E+04  0.000E+00  0.000E+00  0.000E+00  3.97393E+01  1.143E-01  2.000E+01  2.000E+04  7.463E-02
   1    9   27     2     4    4.8147E+04 -7.2662E+02   4.8873E+04  0.000E+00  0.000E+00  0.000E+00  3.94888E+01  1.138E-01  2.000E+01  2.000E+04 -3.633E-02
   1   10   26     2     5    4.8873E+04 -9.6691E+02   4.9840E+04  0.000E+00  0.000E+00  0.000E+00  3.92400E+01  1.150E-01  2.000E+01  2.000E+04 -4.835E-02
   1   11   25     2     6    4.9840E+04 -1.0064E+03   5.0847E+04  0.000E+00  0.000E+00  0.000E+00  3.89913E+01  1.163E-01  2.000E+01  2.000E+04 -5.032E-02
   1   12   24     2     7    5.0847E+04 -1.1951E+03   5.2042E+04  0.000E+00  0.000E+00  0.000E+00  3.87429E+01  1.179E-01  2.000E+01  2.000E+04 -5.976E-02
   1   13   23     2     8    5.2042E+04 -2.2102E+02   5.2263E+04  0.000E+00  0.000E+00  0.000E+00  3.84938E+01  1.188E-01  2.000E+01  2.000E+04 -1.105E-02
   1   14   22     2     9    5.2263E+04  2.1032E+03   5.0160E+04  0.000E+00  0.000E+00  0.000E+00  3.82425E+01  1.175E-01  2.000E+01  2.000E+04  1.052E-01
   1   14   22     3     1    1.6831E+05 -8.3073E+03   1.7662E+05  0.000E+00  0.000E+00  0.000E+00  3.77220E+01  1.665E-01  2.000E+01  2.000E+04 -4.154E-01
   1   15   23     3     2    1.7662E+05 -2.9250E+02   1.7691E+05  0.000E+00  0.000E+00  0.000E+00  3.68356E+01  1.689E-01  2.000E+01  2.000E+04 -1.462E-02
   1   15   24     3     3    1.7691E+05 -2.7948E+02   1.7719E+05  0.000E+00  0.000E+00  0.000E+00  3.59469E+01  1.691E-01  2.000E+01  2.000E+04 -1.397E-02
   1   15   25     3     4    1.7719E+05 -2.9857E+02   1.7749E+05  0.000E+00  0.000E+00  0.000E+00  3.50582E+01  1.693E-01  2.000E+01  2.000E+04 -1.493E-02
   1   15   26     3     5    1.7749E+05 -3.6196E+02   1.7785E+05  0.000E+00  0.000E+00  0.000E+00  3.41695E+01  1.695E-01  2.000E+01  2.000E+04 -1.810E-02
   1   16   27     3     6    1.7785E+05 -4.0612E+02   1.7826E+05  0.000E+00  0.000E+00  0.000E+00  3.32808E+01  1.697E-01  2.000E+01  2.000E+04 -2.031E-02
   1   17   28     3     7    1.7826E+05 -1.6844E+03   1.7994E+05  0.000E+00  0.000E+00  0.000E+00  3.23925E+01  1.703E-01  2.000E+01  2.000E+04 -8.422E-02
   1   18   29     3     8    1.7994E+05 -3.1112E+03   1.8305E+05  0.000E+00  0.000E+00  0.000E+00  3.15050E+01  1.716E-01  2.000E+01  2.000E+04 -1.556E-01
   1   18   30     3     9    1.8305E+05 -3.3172E+03   1.8637E+05  0.000E+00  0.000E+00  0.000E+00  3.06179E+01  1.735E-01  2.000E+01  2.000E+04 -1.659E-01



1
              HEAD IN LAYER   1 AT END OF TIME STEP   1 IN STRESS PERIOD    4
  ---------------------------------------------------------------------------

          1      2      3      4      5      6      7      8      9     10
         11     12     13     14     15     16     17     18     19     20
         21     22     23     24     25     26     27     28     29     30
 .........................................................................
   1  ****** ****** ****** ****** ****** ****** ****** ****** ****** ******
      ****** ****** ****** ****** ****** ****** ****** ****** ****** ******
      ****** ****** ****** ****** ****** ****** ****** ****** ****** ******
   2  ****** ****** ****** ****** ****** ****** ****** ****** ****** ******
      ****** ****** ****** ****** ****** ****** ****** ****** ****** ******
      ****** ****** ****** ****** ****** ****** ****** ****** ****** ******
   3  ****** ****** ****** ****** ****** ****** ****** ****** ****** ******
      ****** ****** ****** ****** ****** ****** ****** ****** ****** ******
      ****** ****** ****** ****** ****** ****** ****** ****** ****** ******
   4  ****** ****** ****** ****** ****** ****** ****** ****** ****** ******
      ****** ****** ****** ****** ****** ****** ****** ****** ****** ******
      ****** ****** ****** ****** ****** ****** ****** ****** ****** ******
   5  ****** ****** ****** ****** ****** ****** ****** ****** ****** ******
      ****** ****** ****** ****** ****** ****** ****** ****** ****** ******
      ****** ****** ****** ****** ****** ****** ****** ****** ****** ******
   6  ****** ****** ****** ****** ****** ****** ****** ****** ****** ******
      ****** ****** ****** ****** ****** ****** ****** ****** ****** ******
      ****** ****** ****** ****** ****** ****** ****** ****** ****** ******
   7  ****** ****** ****** ****** ****** ****** ****** ****** ****** ******
      ****** ****** ****** ****** ****** ****** ****** ****** ****** ******
      ****** ****** ****** ****** ****** ****** ****** ****** ****** ******
   8  ****** ****** ****** ****** ****** ****** ****** ****** ****** ******
      ****** ****** ****** ****** ****** ****** ****** ****** ****** ******
      ****** ****** ****** ****** ****** ****** ****** ****** ****** ******
   9  ****** ****** ****** ****** ****** ****** ****** ****** ****** ******
      ****** ****** ****** ****** ****** ****** ****** ****** ****** ******
      ****** ****** ****** ****** ****** ****** ****** ****** ****** ******
  10  ****** ****** ****** ****** ****** ****** ****** ****** ****** ******
      ****** ****** ****** ****** ****** ****** ****** ****** ****** ******
      ****** ****** ****** ****** ****** ****** ****** ****** ****** ******
  11  ****** ****** ****** ****** ****** ****** ****** ****** ****** ******
      ****** ****** ****** ****** ****** ****** ****** ****** ****** ******
      ****** ****** ****** ****** ****** ****** ****** ****** ****** ******
  12  ****** ****** ****** ****** ****** ****** ****** ****** ****** ******
      ****** ****** ****** ****** ****** ****** ****** ****** ****** ******
      ****** ****** ****** ****** ****** ****** ****** ****** ****** ******
  13  ****** ****** ****** ****** ****** ****** ****** ****** ****** ******
      ****** ****** ****** ****** ****** ****** ****** ****** ****** ******
      ****** ****** ****** ****** ****** ****** ****** ****** ****** ******
  14  ****** ****** ****** ****** ****** ****** ****** ****** ****** ******
      ****** ****** ****** ****** ****** ****** ****** ****** ****** ******
      ****** ****** ****** ****** ****** ****** ****** ****** ****** ******
  15  ****** ****** ****** ****** ****** ****** ****** ****** ****** ******
      ****** ****** ****** ****** ****** ****** ****** ****** ****** ******
      ****** ****** ****** ****** ****** ****** ****** ****** ****** ******
  16  ****** ****** ****** ****** ****** ****** ****** ****** ****** ******
      ****** ****** ****** ****** ****** ****** ****** ****** ****** ******
      ****** ****** ****** ****** ****** ****** ****** ****** ****** ******
  17  ****** ****** ****** ****** ****** ****** ****** ****** ****** ******
      ****** ****** ****** ****** ****** ****** ****** ****** ****** ******
      ****** ****** ****** ****** ****** ****** ****** ****** ****** ******
  18  ****** ****** ****** ****** ****** ****** ****** ****** ****** ******
      ****** ****** ****** ****** ****** ****** ****** ****** ****** ******
      ****** ****** ****** ****** ****** ****** ****** ****** ****** ******
  19  ****** ****** ****** ****** ****** ****** ****** ****** ****** ******
      ****** ****** ****** ****** ****** ****** ****** ****** ****** ******
      ****** ****** ****** ****** ****** ****** ****** ****** ****** ******
  20  ****** ****** ****** ****** ****** ****** ****** ****** ****** ******
      ****** ****** ****** ****** ****** ****** ****** ****** ****** ******
      ****** ****** ****** ****** ****** ****** ****** ****** ****** ******
  21  ****** ****** ****** ****** ****** ****** ****** ****** ****** ******
      ****** ****** ****** ****** ****** ****** ****** ****** ****** ******
      ****** ****** ****** ****** ****** ****** ****** ****** ****** ******
  22  ****** ****** ****** ****** ****** ****** ****** ****** ****** ******
      ****** ****** ****** ****** ****** ****** ****** ****** ****** ******
      ****** ****** ****** ****** ****** ****** ****** ****** ****** ******
  23  ****** ****** ****** ****** ****** ****** ****** ****** ****** ******
      ****** ****** ****** ****** ****** ****** ****** ****** ****** ******
      ****** ****** ****** ****** ****** ****** ****** ****** ****** ******
  24  ****** ****** ****** ****** ****** ****** ****** ****** ****** ******
      ****** ****** ****** ****** ****** ****** ****** ****** ****** ******
      ****** ****** ****** ****** ****** ****** ****** ****** ****** ******
  25  ****** ****** ****** ****** ****** ****** ****** ****** ****** ******
      ****** ****** ****** ****** ****** ****** ****** ****** ****** ******
      ****** ****** ****** ****** ****** ****** ****** ****** ****** ******

 HEAD WILL BE SAVED ON UNIT   51 AT END OF TIME STEP    1, STRESS PERIOD    4
1
  VOLUMETRIC BUDGET FOR ENTIRE MODEL AT END OF TIME STEP    1, STRESS PERIOD   4
  ------------------------------------------------------------------------------

     CUMULATIVE VOLUMES      L**3       RATES FOR THIS TIME STEP      L**3/T
     ------------------                 ------------------------

           IN:                                      IN:
           ---                                      ---
             STORAGE =    29593340.0077               STORAGE =       18672.6889
       CONSTANT HEAD =     7696116.2892         CONSTANT HEAD =       28580.4331
               WELLS =           0.0000                 WELLS =           0.0000
            RECHARGE =     8804400.0000              RECHARGE =       27600.0000
      STREAM LEAKAGE =     3095385.7572        STREAM LEAKAGE =       12032.6423

            TOTAL IN =    49189242.0541              TOTAL IN =       86885.7644

          OUT:                                     OUT:
          ----                                     ----
             STORAGE =        1149.2347               STORAGE =          12.6290
       CONSTANT HEAD =           0.0000         CONSTANT HEAD =           0.0000
               WELLS =    14042029.4698                 WELLS =       38471.3136
            RECHARGE =           0.0000              RECHARGE =           0.0000
      STREAM LEAKAGE =    35146065.3984        STREAM LEAKAGE =       48401.8226

           TOTAL OUT =    49189244.1030             TOTAL OUT =       86885.7652

            IN - OUT =          -2.0489              IN - OUT =      -8.1350E-04

 PERCENT DISCREPANCY =          -0.00     PERCENT DISCREPANCY =          -0.00






         TIME SUMMARY AT END OF TIME STEP    1 IN STRESS PERIOD    4
                    SECONDS     MINUTES      HOURS       DAYS        YEARS
                    -----------------------------------------------------------
   TIME STEP LENGTH 7.86240E+06 1.31040E+05  2184.0      91.000     0.24914    
 STRESS PERIOD TIME 7.86240E+06 1.31040E+05  2184.0      91.000     0.24914    
         TOTAL TIME 3.15360E+07 5.25600E+05  8760.0      365.00     0.99932    
1
1
                            STRESS PERIOD NO.    5, LENGTH =   92.00000    
                            -----------------------------------------------

                              NUMBER OF TIME STEPS =     1

                               MULTIPLIER FOR DELT =     1.500

                            INITIAL TIME STEP SIZE =   92.00000    

 WELL NO.  LAYER   ROW   COL   STRESS RATE         
 --------------------------------------------------
      1      1      6     22      -8915.    
      2      1     16     17      -8329.    
      3      1      8     28      -7077.    
      4      1     15     19     -0.1415E+05

      4 WELLS

                 RECHARGE =  5.000000E-04

 REUSING STREAM SEGMENT DATA FROM LAST STRESS PERIOD
 
 SOLVING FOR HEAD 


     7 CALLS TO PCG ROUTINE FOR TIME STEP   1 IN STRESS PERIOD    5
    26 TOTAL ITERATIONS

 OUTPUT CONTROL FOR STRESS PERIOD    5   TIME STEP    1
    SAVE BUDGET
    SAVE HEAD FOR ALL LAYERS
    PRINT HEAD FOR ALL LAYERS
 UBDSV2 SAVING "STREAMFLOW OUT  " ON UNIT  50 AT TIME STEP  1, STRESS PERIOD   5



 STREAM LISTING     PERIOD      5   STEP        1

 LAYER ROW COL. STREAM  RCH.  FLOW INTO     FLOW TO   FLOW OUT OF   OVRLND.     DIRECT     STREAM       STREAM     STREAM     STREAM   STREAMBED  STREAMBED
                SEG.NO.  NO.  STRM. RCH.    AQUIFER    STRM. RCH.    RUNOFF     PRECIP       ET          HEAD       DEPTH      WIDTH   CONDCTNC.   GRADIENT

   1   13    1     1     1    1.0000E+05 -2.1120E+03   1.0211E+05  0.000E+00  0.000E+00  0.000E+00  4.84069E+01  1.456E-01  2.000E+01  2.000E+04 -1.056E-01
   1   13    2     1     2    1.0211E+05 -3.1311E+03   1.0524E+05  0.000E+00  0.000E+00  0.000E+00  4.79319E+01  1.478E-01  2.000E+01  2.000E+04 -1.566E-01
   1   14    3     1     3    1.0524E+05 -5.0299E+02   1.0575E+05  0.000E+00  0.000E+00  0.000E+00  4.74562E+01  1.494E-01  2.000E+01  2.000E+04 -2.515E-02
   1   15    4     1     4    1.0575E+05 -4.6648E+02   1.0621E+05  0.000E+00  0.000E+00  0.000E+00  4.69793E+01  1.498E-01  2.000E+01  2.000E+04 -2.332E-02
   1   16    5     1     5    1.0621E+05 -1.6539E+03   1.0787E+05  0.000E+00  0.000E+00  0.000E+00  4.65030E+01  1.507E-01  2.000E+01  2.000E+04 -8.270E-02
   1   16    6     1     6    1.0787E+05 -1.0493E+03   1.0892E+05  0.000E+00  0.000E+00  0.000E+00  4.60268E+01  1.518E-01  2.000E+01  2.000E+04 -5.247E-02
   1   16    7     1     7    1.0892E+05 -1.0204E+03   1.0994E+05  0.000E+00  0.000E+00  0.000E+00  4.55504E+01  1.527E-01  2.000E+01  2.000E+04 -5.102E-02
   1   16    8     1     8    1.0994E+05 -9.9348E+02   1.1093E+05  0.000E+00  0.000E+00  0.000E+00  4.50740E+01  1.535E-01  2.000E+01  2.000E+04 -4.967E-02
   1   16    9     1     9    1.1093E+05 -9.4679E+02   1.1188E+05  0.000E+00  0.000E+00  0.000E+00  4.45975E+01  1.543E-01  2.000E+01  2.000E+04 -4.734E-02
   1   16   10     1    10    1.1188E+05 -8.7208E+02   1.1275E+05  0.000E+00  0.000E+00  0.000E+00  4.41210E+01  1.551E-01  2.000E+01  2.000E+04 -4.360E-02
   1   16   11     1    11    1.1275E+05 -7.6254E+02   1.1351E+05  0.000E+00  0.000E+00  0.000E+00  4.36444E+01  1.558E-01  2.000E+01  2.000E+04 -3.813E-02
   1   16   12     1    12    1.1351E+05 -8.7253E+02   1.1438E+05  0.000E+00  0.000E+00  0.000E+00  4.31678E+01  1.564E-01  2.000E+01  2.000E+04 -4.363E-02
   1   15   13     1    13    1.1438E+05 -5.4525E+02   1.1493E+05  0.000E+00  0.000E+00  0.000E+00  4.26911E+01  1.570E-01  2.000E+01  2.000E+04 -2.726E-02
   1   14   14     1    14    1.1493E+05 -5.1466E+02   1.1544E+05  0.000E+00  0.000E+00  0.000E+00  4.22143E+01  1.575E-01  2.000E+01  2.000E+04 -2.573E-02
   1   13   15     1    15    1.1544E+05 -7.8271E+02   1.1623E+05  0.000E+00  0.000E+00  0.000E+00  4.17375E+01  1.580E-01  2.000E+01  2.000E+04 -3.914E-02
   1   12   16     1    16    1.1623E+05 -2.0958E+03   1.1832E+05  0.000E+00  0.000E+00  0.000E+00  4.12614E+01  1.592E-01  2.000E+01  2.000E+04 -1.048E-01
   1   12   17     1    17    1.1832E+05 -5.8717E+02   1.1891E+05  0.000E+00  0.000E+00  0.000E+00  4.07853E+01  1.603E-01  2.000E+01  2.000E+04 -2.936E-02
   1   12   18     1    18    1.1891E+05 -1.9958E+02   1.1911E+05  0.000E+00  0.000E+00  0.000E+00  4.03083E+01  1.606E-01  2.000E+01  2.000E+04 -9.979E-03
   1   12   19     1    19    1.1911E+05 -5.9014E+02   1.1970E+05  0.000E+00  0.000E+00  0.000E+00  3.98313E+01  1.609E-01  2.000E+01  2.000E+04 -2.951E-02
   1   13   20     1    20    1.1970E+05  1.5229E+03   1.1818E+05  0.000E+00  0.000E+00  0.000E+00  3.93537E+01  1.605E-01  2.000E+01  2.000E+04  7.614E-02
   1   14   21     1    21    1.1818E+05  2.0581E+03   1.1612E+05  0.000E+00  0.000E+00  0.000E+00  3.88750E+01  1.591E-01  2.000E+01  2.000E+04  1.029E-01
   1   14   22     1    22    1.1612E+05  5.3489E+03   1.1077E+05  0.000E+00  0.000E+00  0.000E+00  3.83947E+01  1.560E-01  2.000E+01  2.000E+04  2.674E-01
   1    9   30     2     1    5.0000E+04  3.3476E+02   4.9665E+04  0.000E+00  0.000E+00  0.000E+00  4.02406E+01  1.156E-01  2.000E+01  2.000E+04  1.674E-02
   1    9   29     2     2    4.9665E+04  5.1126E+02   4.9154E+04  0.000E+00  0.000E+00  0.000E+00  3.99900E+01  1.150E-01  2.000E+01  2.000E+04  2.556E-02
   1    9   28     2     3    4.9154E+04  1.7499E+03   4.7404E+04  0.000E+00  0.000E+00  0.000E+00  3.97385E+01  1.135E-01  2.000E+01  2.000E+04  8.750E-02
   1    9   27     2     4    4.7404E+04 -3.1955E+02   4.7724E+04  0.000E+00  0.000E+00  0.000E+00  3.94874E+01  1.124E-01  2.000E+01  2.000E+04 -1.598E-02
   1   10   26     2     5    4.7724E+04 -6.1547E+02   4.8339E+04  0.000E+00  0.000E+00  0.000E+00  3.92381E+01  1.131E-01  2.000E+01  2.000E+04 -3.077E-02
   1   11   25     2     6    4.8339E+04 -6.8545E+02   4.9025E+04  0.000E+00  0.000E+00  0.000E+00  3.89890E+01  1.140E-01  2.000E+01  2.000E+04 -3.427E-02
   1   12   24     2     7    4.9025E+04 -9.0247E+02   4.9927E+04  0.000E+00  0.000E+00  0.000E+00  3.87401E+01  1.151E-01  2.000E+01  2.000E+04 -4.512E-02
   1   13   23     2     8    4.9927E+04 -1.5133E+02   5.0078E+04  0.000E+00  0.000E+00  0.000E+00  3.84909E+01  1.159E-01  2.000E+01  2.000E+04 -7.567E-03
   1   14   22     2     9    5.0078E+04  2.2438E+03   4.7835E+04  0.000E+00  0.000E+00  0.000E+00  3.82394E+01  1.144E-01  2.000E+01  2.000E+04  1.122E-01
   1   14   22     3     1    1.5860E+05 -8.2182E+03   1.6682E+05  0.000E+00  0.000E+00  0.000E+00  3.77163E+01  1.608E-01  2.000E+01  2.000E+04 -4.109E-01
   1   15   23     3     2    1.6682E+05 -1.8856E+02   1.6701E+05  0.000E+00  0.000E+00  0.000E+00  3.68299E+01  1.632E-01  2.000E+01  2.000E+04 -9.428E-03
   1   15   24     3     3    1.6701E+05 -2.0451E+02   1.6722E+05  0.000E+00  0.000E+00  0.000E+00  3.59411E+01  1.633E-01  2.000E+01  2.000E+04 -1.023E-02
   1   15   25     3     4    1.6722E+05 -2.2476E+02   1.6744E+05  0.000E+00  0.000E+00  0.000E+00  3.50524E+01  1.635E-01  2.000E+01  2.000E+04 -1.124E-02
   1   15   26     3     5    1.6744E+05 -2.8829E+02   1.6773E+05  0.000E+00  0.000E+00  0.000E+00  3.41636E+01  1.636E-01  2.000E+01  2.000E+04 -1.441E-02
   1   16   27     3     6    1.6773E+05 -3.1279E+02   1.6804E+05  0.000E+00  0.000E+00  0.000E+00  3.32749E+01  1.638E-01  2.000E+01  2.000E+04 -1.564E-02
   1   17   28     3     7    1.6804E+05 -1.4068E+03   1.6945E+05  0.000E+00  0.000E+00  0.000E+00  3.23865E+01  1.643E-01  2.000E+01  2.000E+04 -7.034E-02
   1   18   29     3     8    1.6945E+05 -2.7165E+03   1.7216E+05  0.000E+00  0.000E+00  0.000E+00  3.14988E+01  1.655E-01  2.000E+01  2.000E+04 -1.358E-01
   1   18   30     3     9    1.7216E+05 -3.0472E+03   1.7521E+05  0.000E+00  0.000E+00  0.000E+00  3.06116E+01  1.672E-01  2.000E+01  2.000E+04 -1.524E-01



1
              HEAD IN LAYER   1 AT END OF TIME STEP   1 IN STRESS PERIOD    5
  ---------------------------------------------------------------------------

          1      2      3      4      5      6      7      8      9     10
         11     12     13     14     15     16     17     18     19     20
         21     22     23     24     25     26     27     28     29     30
 .........................................................................
   1  ****** ****** ****** ****** ****** ****** ****** ****** ****** ******
      ****** ****** ****** ****** ****** ****** ****** ****** ****** ******
      ****** ****** ****** ****** ****** ****** ****** ****** ****** ******
   2  ****** ****** ****** ****** ****** ****** ****** ****** ****** ******
      ****** ****** ****** ****** ****** ****** ****** ****** ****** ******
      ****** ****** ****** ****** ****** ****** ****** ****** ****** ******
   3  ****** ****** ****** ****** ****** ****** ****** ****** ****** ******
      ****** ****** ****** ****** ****** ****** ****** ****** ****** ******
      ****** ****** ****** ****** ****** ****** ****** ****** ****** ******
   4  ****** ****** ****** ****** ****** ****** ****** ****** ****** ******
      ****** ****** ****** ****** ****** ****** ****** ****** ****** ******
      ****** ****** ****** ****** ****** ****** ****** ****** ****** ******
   5  ****** ****** ****** ****** ****** ****** ****** ****** ****** ******
      ****** ****** ****** ****** ****** ****** ****** ****** ****** ******
      ****** ****** ****** ****** ****** ****** ****** ****** ****** ******
   6  ****** ****** ****** ****** ****** ****** ****** ****** ****** ******
      ****** ****** ****** ****** ****** ****** ****** ****** ****** ******
      ****** ****** ****** ****** ****** ****** ****** ****** ****** ******
   7  ****** ****** ****** ****** ****** ****** ****** ****** ****** ******
      ****** ****** ****** ****** ****** ****** ****** ****** ****** ******
      ****** ****** ****** ****** ****** ****** ****** ****** ****** ******
   8  ****** ****** ****** ****** ****** ****** ****** ****** ****** ******
      ****** ****** ****** ****** ****** ****** ****** ****** ****** ******
      ****** ****** ****** ****** ****** ****** ****** ****** ****** ******
   9  ****** ****** ****** ****** ****** ****** ****** ****** ****** ******
      ****** ****** ****** ****** ****** ****** ****** ****** ****** ******
      ****** ****** ****** ****** ****** ****** ****** ****** ****** ******
  10  ****** ****** ****** ****** ****** ****** ****** ****** ****** ******
      ****** ****** ****** ****** ****** ****** ****** ****** ****** ******
      ****** ****** ****** ****** ****** ****** ****** ****** ****** ******
  11  ****** ****** ****** ****** ****** ****** ****** ****** ****** ******
      ****** ****** ****** ****** ****** ****** ****** ****** ****** ******
      ****** ****** ****** ****** ****** ****** ****** ****** ****** ******
  12  ****** ****** ****** ****** ****** ****** ****** ****** ****** ******
      ****** ****** ****** ****** ****** ****** ****** ****** ****** ******
      ****** ****** ****** ****** ****** ****** ****** ****** ****** ******
  13  ****** ****** ****** ****** ****** ****** ****** ****** ****** ******
      ****** ****** ****** ****** ****** ****** ****** ****** ****** ******
      ****** ****** ****** ****** ****** ****** ****** ****** ****** ******
  14  ****** ****** ****** ****** ****** ****** ****** ****** ****** ******
      ****** ****** ****** ****** ****** ****** ****** ****** ****** ******
      ****** ****** ****** ****** ****** ****** ****** ****** ****** ******
  15  ****** ****** ****** ****** ****** ****** ****** ****** ****** ******
      ****** ****** ****** ****** ****** ****** ****** ****** ****** ******
      ****** ****** ****** ****** ****** ****** ****** ****** ****** ******
  16  ****** ****** ****** ****** ****** ****** ****** ****** ****** ******
      ****** ****** ****** ****** ****** ****** ****** ****** ****** ******
      ****** ****** ****** ****** ****** ****** ****** ****** ****** ******
  17  ****** ****** ****** ****** ****** ****** ****** ****** ****** ******
      ****** ****** ****** ****** ****** ****** ****** ****** ****** ******
      ****** ****** ****** ****** ****** ****** ****** ****** ****** ******
  18  ****** ****** ****** ****** ****** ****** ****** ****** ****** ******
      ****** ****** ****** ****** ****** ****** ****** ****** ****** ******
      ****** ****** ****** ****** ****** ****** ****** ****** ****** ******
  19  ****** ****** ****** ****** ****** ****** ****** ****** ****** ******
      ****** ****** ****** ****** ****** ****** ****** ****** ****** ******
      ****** ****** ****** ****** ****** ****** ****** ****** ****** ******
  20  ****** ****** ****** ****** ****** ****** ****** ****** ****** ******
      ****** ****** ****** ****** ****** ****** ****** ****** ****** ******
      ****** ****** ****** ****** ****** ****** ****** ****** ****** ******
  21  ****** ****** ****** ****** ****** ****** ****** ****** ****** ******
      ****** ****** ****** ****** ****** ****** ****** ****** ****** ******
      ****** ****** ****** ****** ****** ****** ****** ****** ****** ******
  22  ****** ****** ****** ****** ****** ****** ****** ****** ****** ******
      ****** ****** ****** ****** ****** ****** ****** ****** ****** ******
      ****** ****** ****** ****** ****** ****** ****** ****** ****** ******
  23  ****** ****** ****** ****** ****** ****** ****** ****** ****** ******
      ****** ****** ****** ****** ****** ****** ****** ****** ****** ******
      ****** ****** ****** ****** ****** ****** ****** ****** ****** ******
  24  ****** ****** ****** ****** ****** ****** ****** ****** ****** ******
      ****** ****** ****** ****** ****** ****** ****** ****** ****** ******
      ****** ****** ****** ****** ****** ****** ****** ****** ****** ******
  25  ****** ****** ****** ****** ****** ****** ****** ****** ****** ******
      ****** ****** ****** ****** ****** ****** ****** ****** ****** ******
      ****** ****** ****** ****** ****** ****** ****** ****** ****** ******

 HEAD WILL BE SAVED ON UNIT   51 AT END OF TIME STEP    1, STRESS PERIOD    5
1
  VOLUMETRIC BUDGET FOR ENTIRE MODEL AT END OF TIME STEP    1, STRESS PERIOD   5
  ------------------------------------------------------------------------------

     CUMULATIVE VOLUMES      L**3       RATES FOR THIS TIME STEP      L**3/T
     ------------------                 ------------------------

           IN:                                      IN:
           ---                                      ---
             STORAGE =    31281484.0779               STORAGE =       18349.3921
       CONSTANT HEAD =    10597173.4298         CONSTANT HEAD =       31533.2298
               WELLS =           0.0000                 WELLS =           0.0000
            RECHARGE =    10074000.0000              RECHARGE =       13800.0000
      STREAM LEAKAGE =     4362187.4160        STREAM LEAKAGE =       13769.5832

            TOTAL IN =    56314844.9237              TOTAL IN =       77452.2051

          OUT:                                     OUT:
          ----                                     ----
             STORAGE =        1149.2347               STORAGE =           0.0000
       CONSTANT HEAD =           0.0000         CONSTANT HEAD =           0.0000
               WELLS =    17581390.3225                 WELLS =       38471.3136
            RECHARGE =           0.0000              RECHARGE =           0.0000
      STREAM LEAKAGE =    38732307.7084        STREAM LEAKAGE =       38980.8947

           TOTAL OUT =    56314847.2656             TOTAL OUT =       77452.2083

            IN - OUT =          -2.3419              IN - OUT =      -3.1853E-03

 PERCENT DISCREPANCY =          -0.00     PERCENT DISCREPANCY =          -0.00






         TIME SUMMARY AT END OF TIME STEP    1 IN STRESS PERIOD    5
                    SECONDS     MINUTES      HOURS       DAYS        YEARS
                    -----------------------------------------------------------
   TIME STEP LENGTH 7.94880E+06 1.32480E+05  2208.0      92.000     0.25188    
 STRESS PERIOD TIME 7.94880E+06 1.32480E+05  2208.0      92.000     0.25188    
         TOTAL TIME 3.94848E+07 6.58080E+05  10968.      457.00      1.2512    
1
1
                            STRESS PERIOD NO.    6, LENGTH =   91.00000    
                            -----------------------------------------------

                              NUMBER OF TIME STEPS =     1

                               MULTIPLIER FOR DELT =     1.500

                            INITIAL TIME STEP SIZE =   91.00000    

 WELL NO.  LAYER   ROW   COL   STRESS RATE         
 --------------------------------------------------
      1      1      6     22      -8915.    
      2      1     16     17      -8329.    
      3      1      8     28      -7077.    
      4      1     15     19     -0.1415E+05

      4 WELLS

                 RECHARGE =  2.000000E-03

 REUSING STREAM SEGMENT DATA FROM LAST STRESS PERIOD
 
 SOLVING FOR HEAD 


     7 CALLS TO PCG ROUTINE FOR TIME STEP   1 IN STRESS PERIOD    6
    26 TOTAL ITERATIONS

 OUTPUT CONTROL FOR STRESS PERIOD    6   TIME STEP    1
    SAVE BUDGET
    SAVE HEAD FOR ALL LAYERS
    PRINT HEAD FOR ALL LAYERS
 UBDSV2 SAVING "STREAMFLOW OUT  " ON UNIT  50 AT TIME STEP  1, STRESS PERIOD   6



 STREAM LISTING     PERIOD      6   STEP        1

 LAYER ROW COL. STREAM  RCH.  FLOW INTO     FLOW TO   FLOW OUT OF   OVRLND.     DIRECT     STREAM       STREAM     STREAM     STREAM   STREAMBED  STREAMBED
                SEG.NO.  NO.  STRM. RCH.    AQUIFER    STRM. RCH.    RUNOFF     PRECIP       ET          HEAD       DEPTH      WIDTH   CONDCTNC.   GRADIENT

   1   13    1     1     1    1.0000E+05 -2.4300E+03   1.0243E+05  0.000E+00  0.000E+00  0.000E+00  4.84071E+01  1.457E-01  2.000E+01  2.000E+04 -1.215E-01
   1   13    2     1     2    1.0243E+05 -3.4797E+03   1.0591E+05  0.000E+00  0.000E+00  0.000E+00  4.79323E+01  1.482E-01  2.000E+01  2.000E+04 -1.740E-01
   1   14    3     1     3    1.0591E+05 -6.5832E+02   1.0657E+05  0.000E+00  0.000E+00  0.000E+00  4.74568E+01  1.500E-01  2.000E+01  2.000E+04 -3.292E-02
   1   15    4     1     4    1.0657E+05 -6.3298E+02   1.0720E+05  0.000E+00  0.000E+00  0.000E+00  4.69801E+01  1.505E-01  2.000E+01  2.000E+04 -3.165E-02
   1   16    5     1     5    1.0720E+05 -2.1476E+03   1.0935E+05  0.000E+00  0.000E+00  0.000E+00  4.65040E+01  1.517E-01  2.000E+01  2.000E+04 -1.074E-01
   1   16    6     1     6    1.0935E+05 -1.3392E+03   1.1069E+05  0.000E+00  0.000E+00  0.000E+00  4.60282E+01  1.532E-01  2.000E+01  2.000E+04 -6.696E-02
   1   16    7     1     7    1.1069E+05 -1.2950E+03   1.1198E+05  0.000E+00  0.000E+00  0.000E+00  4.55520E+01  1.543E-01  2.000E+01  2.000E+04 -6.475E-02
   1   16    8     1     8    1.1198E+05 -1.2632E+03   1.1325E+05  0.000E+00  0.000E+00  0.000E+00  4.50758E+01  1.553E-01  2.000E+01  2.000E+04 -6.316E-02
   1   16    9     1     9    1.1325E+05 -1.2157E+03   1.1446E+05  0.000E+00  0.000E+00  0.000E+00  4.45995E+01  1.564E-01  2.000E+01  2.000E+04 -6.078E-02
   1   16   10     1    10    1.1446E+05 -1.1420E+03   1.1560E+05  0.000E+00  0.000E+00  0.000E+00  4.41232E+01  1.573E-01  2.000E+01  2.000E+04 -5.710E-02
   1   16   11     1    11    1.1560E+05 -1.0349E+03   1.1664E+05  0.000E+00  0.000E+00  0.000E+00  4.36469E+01  1.582E-01  2.000E+01  2.000E+04 -5.175E-02
   1   16   12     1    12    1.1664E+05 -1.3109E+03   1.1795E+05  0.000E+00  0.000E+00  0.000E+00  4.31705E+01  1.592E-01  2.000E+01  2.000E+04 -6.555E-02
   1   15   13     1    13    1.1795E+05 -9.9591E+02   1.1895E+05  0.000E+00  0.000E+00  0.000E+00  4.26942E+01  1.601E-01  2.000E+01  2.000E+04 -4.980E-02
   1   14   14     1    14    1.1895E+05 -9.6154E+02   1.1991E+05  0.000E+00  0.000E+00  0.000E+00  4.22177E+01  1.609E-01  2.000E+01  2.000E+04 -4.808E-02
   1   13   15     1    15    1.1991E+05 -1.2112E+03   1.2112E+05  0.000E+00  0.000E+00  0.000E+00  4.17413E+01  1.618E-01  2.000E+01  2.000E+04 -6.056E-02
   1   12   16     1    16    1.2112E+05 -2.4793E+03   1.2360E+05  0.000E+00  0.000E+00  0.000E+00  4.12655E+01  1.633E-01  2.000E+01  2.000E+04 -1.240E-01
   1   12   17     1    17    1.2360E+05 -8.9827E+02   1.2450E+05  0.000E+00  0.000E+00  0.000E+00  4.07896E+01  1.646E-01  2.000E+01  2.000E+04 -4.491E-02
   1   12   18     1    18    1.2450E+05 -5.1385E+02   1.2501E+05  0.000E+00  0.000E+00  0.000E+00  4.03129E+01  1.652E-01  2.000E+01  2.000E+04 -2.569E-02
   1   12   19     1    19    1.2501E+05 -9.8049E+02   1.2599E+05  0.000E+00  0.000E+00  0.000E+00  3.98362E+01  1.658E-01  2.000E+01  2.000E+04 -4.902E-02
   1   13   20     1    20    1.2599E+05  1.1068E+03   1.2488E+05  0.000E+00  0.000E+00  0.000E+00  3.93589E+01  1.657E-01  2.000E+01  2.000E+04  5.534E-02
   1   14   21     1    21    1.2488E+05  1.6556E+03   1.2323E+05  0.000E+00  0.000E+00  0.000E+00  3.88805E+01  1.646E-01  2.000E+01  2.000E+04  8.278E-02
   1   14   22     1    22    1.2323E+05  5.2437E+03   1.1798E+05  0.000E+00  0.000E+00  0.000E+00  3.84005E+01  1.619E-01  2.000E+01  2.000E+04  2.622E-01
   1    9   30     2     1    5.0000E+04 -2.5402E+01   5.0025E+04  0.000E+00  0.000E+00  0.000E+00  4.02409E+01  1.159E-01  2.000E+01  2.000E+04 -1.270E-03
   1    9   29     2     2    5.0025E+04  1.5555E+02   4.9870E+04  0.000E+00  0.000E+00  0.000E+00  3.99908E+01  1.158E-01  2.000E+01  2.000E+04  7.777E-03
   1    9   28     2     3    4.9870E+04  1.4012E+03   4.8469E+04  0.000E+00  0.000E+00  0.000E+00  3.97397E+01  1.147E-01  2.000E+01  2.000E+04  7.006E-02
   1    9   27     2     4    4.8469E+04 -7.5870E+02   4.9227E+04  0.000E+00  0.000E+00  0.000E+00  3.94893E+01  1.143E-01  2.000E+01  2.000E+04 -3.794E-02
   1   10   26     2     5    4.9227E+04 -1.0812E+03   5.0308E+04  0.000E+00  0.000E+00  0.000E+00  3.92405E+01  1.155E-01  2.000E+01  2.000E+04 -5.406E-02
   1   11   25     2     6    5.0308E+04 -1.1375E+03   5.1446E+04  0.000E+00  0.000E+00  0.000E+00  3.89921E+01  1.171E-01  2.000E+01  2.000E+04 -5.688E-02
   1   12   24     2     7    5.1446E+04 -1.3102E+03   5.2756E+04  0.000E+00  0.000E+00  0.000E+00  3.87438E+01  1.188E-01  2.000E+01  2.000E+04 -6.551E-02
   1   13   23     2     8    5.2756E+04 -2.8887E+02   5.3045E+04  0.000E+00  0.000E+00  0.000E+00  3.84949E+01  1.199E-01  2.000E+01  2.000E+04 -1.444E-02
   1   14   22     2     9    5.3045E+04  2.1060E+03   5.0939E+04  0.000E+00  0.000E+00  0.000E+00  3.82436E+01  1.186E-01  2.000E+01  2.000E+04  1.053E-01
   1   14   22     3     1    1.6892E+05 -8.3188E+03   1.7724E+05  0.000E+00  0.000E+00  0.000E+00  3.77224E+01  1.668E-01  2.000E+01  2.000E+04 -4.159E-01
   1   15   23     3     2    1.7724E+05 -3.2357E+02   1.7757E+05  0.000E+00  0.000E+00  0.000E+00  3.68360E+01  1.693E-01  2.000E+01  2.000E+04 -1.618E-02
   1   15   24     3     3    1.7757E+05 -3.2522E+02   1.7789E+05  0.000E+00  0.000E+00  0.000E+00  3.59473E+01  1.695E-01  2.000E+01  2.000E+04 -1.626E-02
   1   15   25     3     4    1.7789E+05 -3.5015E+02   1.7824E+05  0.000E+00  0.000E+00  0.000E+00  3.50586E+01  1.697E-01  2.000E+01  2.000E+04 -1.751E-02
   1   15   26     3     5    1.7824E+05 -4.3904E+02   1.7868E+05  0.000E+00  0.000E+00  0.000E+00  3.41699E+01  1.699E-01  2.000E+01  2.000E+04 -2.195E-02
   1   16   27     3     6    1.7868E+05 -4.8036E+02   1.7916E+05  0.000E+00  0.000E+00  0.000E+00  3.32813E+01  1.702E-01  2.000E+01  2.000E+04 -2.402E-02
   1   17   28     3     7    1.7916E+05 -1.8658E+03   1.8103E+05  0.000E+00  0.000E+00  0.000E+00  3.23931E+01  1.708E-01  2.000E+01  2.000E+04 -9.329E-02
   1   18   29     3     8    1.8103E+05 -3.1483E+03   1.8417E+05  0.000E+00  0.000E+00  0.000E+00  3.15056E+01  1.723E-01  2.000E+01  2.000E+04 -1.574E-01
   1   18   30     3     9    1.8417E+05 -3.3989E+03   1.8757E+05  0.000E+00  0.000E+00  0.000E+00  3.06186E+01  1.741E-01  2.000E+01  2.000E+04 -1.699E-01



1
              HEAD IN LAYER   1 AT END OF TIME STEP   1 IN STRESS PERIOD    6
  ---------------------------------------------------------------------------

          1      2      3      4      5      6      7      8      9     10
         11     12     13     14     15     16     17     18     19     20
         21     22     23     24     25     26     27     28     29     30
 .........................................................................
   1  ****** ****** ****** ****** ****** ****** ****** ****** ****** ******
      ****** ****** ****** ****** ****** ****** ****** ****** ****** ******
      ****** ****** ****** ****** ****** ****** ****** ****** ****** ******
   2  ****** ****** ****** ****** ****** ****** ****** ****** ****** ******
      ****** ****** ****** ****** ****** ****** ****** ****** ****** ******
      ****** ****** ****** ****** ****** ****** ****** ****** ****** ******
   3  ****** ****** ****** ****** ****** ****** ****** ****** ****** ******
      ****** ****** ****** ****** ****** ****** ****** ****** ****** ******
      ****** ****** ****** ****** ****** ****** ****** ****** ****** ******
   4  ****** ****** ****** ****** ****** ****** ****** ****** ****** ******
      ****** ****** ****** ****** ****** ****** ****** ****** ****** ******
      ****** ****** ****** ****** ****** ****** ****** ****** ****** ******
   5  ****** ****** ****** ****** ****** ****** ****** ****** ****** ******
      ****** ****** ****** ****** ****** ****** ****** ****** ****** ******
      ****** ****** ****** ****** ****** ****** ****** ****** ****** ******
   6  ****** ****** ****** ****** ****** ****** ****** ****** ****** ******
      ****** ****** ****** ****** ****** ****** ****** ****** ****** ******
      ****** ****** ****** ****** ****** ****** ****** ****** ****** ******
   7  ****** ****** ****** ****** ****** ****** ****** ****** ****** ******
      ****** ****** ****** ****** ****** ****** ****** ****** ****** ******
      ****** ****** ****** ****** ****** ****** ****** ****** ****** ******
   8  ****** ****** ****** ****** ****** ****** ****** ****** ****** ******
      ****** ****** ****** ****** ****** ****** ****** ****** ****** ******
      ****** ****** ****** ****** ****** ****** ****** ****** ****** ******
   9  ****** ****** ****** ****** ****** ****** ****** ****** ****** ******
      ****** ****** ****** ****** ****** ****** ****** ****** ****** ******
      ****** ****** ****** ****** ****** ****** ****** ****** ****** ******
  10  ****** ****** ****** ****** ****** ****** ****** ****** ****** ******
      ****** ****** ****** ****** ****** ****** ****** ****** ****** ******
      ****** ****** ****** ****** ****** ****** ****** ****** ****** ******
  11  ****** ****** ****** ****** ****** ****** ****** ****** ****** ******
      ****** ****** ****** ****** ****** ****** ****** ****** ****** ******
      ****** ****** ****** ****** ****** ****** ****** ****** ****** ******
  12  ****** ****** ****** ****** ****** ****** ****** ****** ****** ******
      ****** ****** ****** ****** ****** ****** ****** ****** ****** ******
      ****** ****** ****** ****** ****** ****** ****** ****** ****** ******
  13  ****** ****** ****** ****** ****** ****** ****** ****** ****** ******
      ****** ****** ****** ****** ****** ****** ****** ****** ****** ******
      ****** ****** ****** ****** ****** ****** ****** ****** ****** ******
  14  ****** ****** ****** ****** ****** ****** ****** ****** ****** ******
      ****** ****** ****** ****** ****** ****** ****** ****** ****** ******
      ****** ****** ****** ****** ****** ****** ****** ****** ****** ******
  15  ****** ****** ****** ****** ****** ****** ****** ****** ****** ******
      ****** ****** ****** ****** ****** ****** ****** ****** ****** ******
      ****** ****** ****** ****** ****** ****** ****** ****** ****** ******
  16  ****** ****** ****** ****** ****** ****** ****** ****** ****** ******
      ****** ****** ****** ****** ****** ****** ****** ****** ****** ******
      ****** ****** ****** ****** ****** ****** ****** ****** ****** ******
  17  ****** ****** ****** ****** ****** ****** ****** ****** ****** ******
      ****** ****** ****** ****** ****** ****** ****** ****** ****** ******
      ****** ****** ****** ****** ****** ****** ****** ****** ****** ******
  18  ****** ****** ****** ****** ****** ****** ****** ****** ****** ******
      ****** ****** ****** ****** ****** ****** ****** ****** ****** ******
      ****** ****** ****** ****** ****** ****** ****** ****** ****** ******
  19  ****** ****** ****** ****** ****** ****** ****** ****** ****** ******
      ****** ****** ****** ****** ****** ****** ****** ****** ****** ******
      ****** ****** ****** ****** ****** ****** ****** ****** ****** ******
  20  ****** ****** ****** ****** ****** ****** ****** ****** ****** ******
      ****** ****** ****** ****** ****** ****** ****** ****** ****** ******
      ****** ****** ****** ****** ****** ****** ****** ****** ****** ******
  21  ****** ****** ****** ****** ****** ****** ****** ****** ****** ******
      ****** ****** ****** ****** ****** ****** ****** ****** ****** ******
      ****** ****** ****** ****** ****** ****** ****** ****** ****** ******
  22  ****** ****** ****** ****** ****** ****** ****** ****** ****** ******
      ****** ****** ****** ****** ****** ****** ****** ****** ****** ******
      ****** ****** ****** ****** ****** ****** ****** ****** ****** ******
  23  ****** ****** ****** ****** ****** ****** ****** ****** ****** ******
      ****** ****** ****** ****** ****** ****** ****** ****** ****** ******
      ****** ****** ****** ****** ****** ****** ****** ****** ****** ******
  24  ****** ****** ****** ****** ****** ****** ****** ****** ****** ******
      ****** ****** ****** ****** ****** ****** ****** ****** ****** ******
      ****** ****** ****** ****** ****** ****** ****** ****** ****** ******
  25  ****** ****** ****** ****** ****** ****** ****** ****** ****** ******
      ****** ****** ****** ****** ****** ****** ****** ****** ****** ******
      ****** ****** ****** ****** ****** ****** ****** ****** ****** ******

 HEAD WILL BE SAVED ON UNIT   51 AT END OF TIME STEP    1, STRESS PERIOD    6
1
  VOLUMETRIC BUDGET FOR ENTIRE MODEL AT END OF TIME STEP    1, STRESS PERIOD   6
  ------------------------------------------------------------------------------

     CUMULATIVE VOLUMES      L**3       RATES FOR THIS TIME STEP      L**3/T
     ------------------                 ------------------------

           IN:                                      IN:
           ---                                      ---
             STORAGE =    31281484.0779               STORAGE =           0.0000
       CONSTANT HEAD =    13294348.7427         CONSTANT HEAD =       29639.2892
               WELLS =           0.0000                 WELLS =           0.0000
            RECHARGE =    15097200.0000              RECHARGE =       55200.0000
      STREAM LEAKAGE =     5424046.9624        STREAM LEAKAGE =       11668.7862

            TOTAL IN =    65097079.7831              TOTAL IN =       96508.0754

          OUT:                                     OUT:
          ----                                     ----
             STORAGE =      801477.6680               STORAGE =        8794.8179
       CONSTANT HEAD =           0.0000         CONSTANT HEAD =           0.0000
               WELLS =    21082279.8615                 WELLS =       38471.3136
            RECHARGE =           0.0000              RECHARGE =           0.0000
      STREAM LEAKAGE =    43213324.3273        STREAM LEAKAGE =       49241.9409

           TOTAL OUT =    65097081.8568             TOTAL OUT =       96508.0724

            IN - OUT =          -2.0737              IN - OUT =       2.9469E-03

 PERCENT DISCREPANCY =          -0.00     PERCENT DISCREPANCY =           0.00






         TIME SUMMARY AT END OF TIME STEP    1 IN STRESS PERIOD    6
                    SECONDS     MINUTES      HOURS       DAYS        YEARS
                    -----------------------------------------------------------
   TIME STEP LENGTH 7.86240E+06 1.31040E+05  2184.0      91.000     0.24914    
 STRESS PERIOD TIME 7.86240E+06 1.31040E+05  2184.0      91.000     0.24914    
         TOTAL TIME 4.73472E+07 7.89120E+05  13152.      548.00      1.5003    
1
1
                            STRESS PERIOD NO.    7, LENGTH =   91.00000    
                            -----------------------------------------------

                              NUMBER OF TIME STEPS =     1

                               MULTIPLIER FOR DELT =     1.500

                            INITIAL TIME STEP SIZE =   91.00000    

 WELL NO.  LAYER   ROW   COL   STRESS RATE         
 --------------------------------------------------
      1      1      6     22      -8915.    
      2      1     16     17      -8329.    
      3      1      8     28      -7077.    
      4      1     15     19     -0.1415E+05

      4 WELLS

                 RECHARGE =   0.00000    

 REUSING STREAM SEGMENT DATA FROM LAST STRESS PERIOD
 
 SOLVING FOR HEAD 


     7 CALLS TO PCG ROUTINE FOR TIME STEP   1 IN STRESS PERIOD    7
    26 TOTAL ITERATIONS

 OUTPUT CONTROL FOR STRESS PERIOD    7   TIME STEP    1
    SAVE BUDGET
    SAVE HEAD FOR ALL LAYERS
    PRINT HEAD FOR ALL LAYERS
 UBDSV2 SAVING "STREAMFLOW OUT  " ON UNIT  50 AT TIME STEP  1, STRESS PERIOD   7



 STREAM LISTING     PERIOD      7   STEP        1

 LAYER ROW COL. STREAM  RCH.  FLOW INTO     FLOW TO   FLOW OUT OF   OVRLND.     DIRECT     STREAM       STREAM     STREAM     STREAM   STREAMBED  STREAMBED
                SEG.NO.  NO.  STRM. RCH.    AQUIFER    STRM. RCH.    RUNOFF     PRECIP       ET          HEAD       DEPTH      WIDTH   CONDCTNC.   GRADIENT

   1   13    1     1     1    1.0000E+05 -1.7669E+03   1.0177E+05  0.000E+00  0.000E+00  0.000E+00  4.84068E+01  1.454E-01  2.000E+01  2.000E+04 -8.834E-02
   1   13    2     1     2    1.0177E+05 -2.7380E+03   1.0450E+05  0.000E+00  0.000E+00  0.000E+00  4.79314E+01  1.474E-01  2.000E+01  2.000E+04 -1.369E-01
   1   14    3     1     3    1.0450E+05 -4.0682E+02   1.0491E+05  0.000E+00  0.000E+00  0.000E+00  4.74555E+01  1.487E-01  2.000E+01  2.000E+04 -2.034E-02
   1   15    4     1     4    1.0491E+05 -3.7053E+02   1.0528E+05  0.000E+00  0.000E+00  0.000E+00  4.69786E+01  1.490E-01  2.000E+01  2.000E+04 -1.853E-02
   1   16    5     1     5    1.0528E+05 -1.3928E+03   1.0668E+05  0.000E+00  0.000E+00  0.000E+00  4.65021E+01  1.498E-01  2.000E+01  2.000E+04 -6.964E-02
   1   16    6     1     6    1.0668E+05 -8.8417E+02   1.0756E+05  0.000E+00  0.000E+00  0.000E+00  4.60257E+01  1.507E-01  2.000E+01  2.000E+04 -4.421E-02
   1   16    7     1     7    1.0756E+05 -8.5833E+02   1.0842E+05  0.000E+00  0.000E+00  0.000E+00  4.55492E+01  1.515E-01  2.000E+01  2.000E+04 -4.292E-02
   1   16    8     1     8    1.0842E+05 -8.3240E+02   1.0925E+05  0.000E+00  0.000E+00  0.000E+00  4.50726E+01  1.522E-01  2.000E+01  2.000E+04 -4.162E-02
   1   16    9     1     9    1.0925E+05 -7.8777E+02   1.1004E+05  0.000E+00  0.000E+00  0.000E+00  4.45960E+01  1.529E-01  2.000E+01  2.000E+04 -3.939E-02
   1   16   10     1    10    1.1004E+05 -7.1623E+02   1.1075E+05  0.000E+00  0.000E+00  0.000E+00  4.41194E+01  1.535E-01  2.000E+01  2.000E+04 -3.581E-02
   1   16   11     1    11    1.1075E+05 -6.0741E+02   1.1136E+05  0.000E+00  0.000E+00  0.000E+00  4.36427E+01  1.540E-01  2.000E+01  2.000E+04 -3.037E-02
   1   16   12     1    12    1.1136E+05 -5.9185E+02   1.1195E+05  0.000E+00  0.000E+00  0.000E+00  4.31659E+01  1.545E-01  2.000E+01  2.000E+04 -2.959E-02
   1   15   13     1    13    1.1195E+05 -2.2642E+02   1.1218E+05  0.000E+00  0.000E+00  0.000E+00  4.26890E+01  1.549E-01  2.000E+01  2.000E+04 -1.132E-02
   1   14   14     1    14    1.1218E+05 -1.6511E+02   1.1234E+05  0.000E+00  0.000E+00  0.000E+00  4.22119E+01  1.550E-01  2.000E+01  2.000E+04 -8.255E-03
   1   13   15     1    15    1.1234E+05 -4.1346E+02   1.1276E+05  0.000E+00  0.000E+00  0.000E+00  4.17348E+01  1.553E-01  2.000E+01  2.000E+04 -2.067E-02
   1   12   16     1    16    1.1276E+05 -1.6890E+03   1.1445E+05  0.000E+00  0.000E+00  0.000E+00  4.12584E+01  1.562E-01  2.000E+01  2.000E+04 -8.445E-02
   1   12   17     1    17    1.1445E+05 -3.2213E+02   1.1477E+05  0.000E+00  0.000E+00  0.000E+00  4.07820E+01  1.570E-01  2.000E+01  2.000E+04 -1.611E-02
   1   12   18     1    18    1.1477E+05  4.8722E+01   1.1472E+05  0.000E+00  0.000E+00  0.000E+00  4.03048E+01  1.571E-01  2.000E+01  2.000E+04  2.436E-03
   1   12   19     1    19    1.1472E+05 -2.9308E+02   1.1501E+05  0.000E+00  0.000E+00  0.000E+00  3.98277E+01  1.572E-01  2.000E+01  2.000E+04 -1.465E-02
   1   13   20     1    20    1.1501E+05  1.7781E+03   1.1324E+05  0.000E+00  0.000E+00  0.000E+00  3.93498E+01  1.566E-01  2.000E+01  2.000E+04  8.890E-02
   1   14   21     1    21    1.1324E+05  2.3202E+03   1.1092E+05  0.000E+00  0.000E+00  0.000E+00  3.88708E+01  1.549E-01  2.000E+01  2.000E+04  1.160E-01
   1   14   22     1    22    1.1092E+05  5.4023E+03   1.0551E+05  0.000E+00  0.000E+00  0.000E+00  3.83903E+01  1.517E-01  2.000E+01  2.000E+04  2.701E-01
   1    9   30     2     1    5.0000E+04  4.8955E+02   4.9510E+04  0.000E+00  0.000E+00  0.000E+00  4.02405E+01  1.155E-01  2.000E+01  2.000E+04  2.448E-02
   1    9   29     2     2    4.9510E+04  6.6875E+02   4.8842E+04  0.000E+00  0.000E+00  0.000E+00  3.99897E+01  1.147E-01  2.000E+01  2.000E+04  3.344E-02
   1    9   28     2     3    4.8842E+04  1.9158E+03   4.6926E+04  0.000E+00  0.000E+00  0.000E+00  3.97379E+01  1.129E-01  2.000E+01  2.000E+04  9.579E-02
   1    9   27     2     4    4.6926E+04 -5.9239E+01   4.6985E+04  0.000E+00  0.000E+00  0.000E+00  3.94866E+01  1.116E-01  2.000E+01  2.000E+04 -2.962E-03
   1   10   26     2     5    4.6985E+04 -3.8078E+02   4.7366E+04  0.000E+00  0.000E+00  0.000E+00  3.92369E+01  1.119E-01  2.000E+01  2.000E+04 -1.904E-02
   1   11   25     2     6    4.7366E+04 -4.6624E+02   4.7832E+04  0.000E+00  0.000E+00  0.000E+00  3.89875E+01  1.125E-01  2.000E+01  2.000E+04 -2.331E-02
   1   12   24     2     7    4.7832E+04 -6.9838E+02   4.8530E+04  0.000E+00  0.000E+00  0.000E+00  3.87383E+01  1.133E-01  2.000E+01  2.000E+04 -3.492E-02
   1   13   23     2     8    4.8530E+04 -9.6965E+01   4.8627E+04  0.000E+00  0.000E+00  0.000E+00  3.84889E+01  1.139E-01  2.000E+01  2.000E+04 -4.848E-03
   1   14   22     2     9    4.8627E+04  2.3420E+03   4.6285E+04  0.000E+00  0.000E+00  0.000E+00  3.82373E+01  1.123E-01  2.000E+01  2.000E+04  1.171E-01
   1   14   22     3     1    1.5180E+05 -8.1594E+03   1.5996E+05  0.000E+00  0.000E+00  0.000E+00  3.77122E+01  1.567E-01  2.000E+01  2.000E+04 -4.080E-01
   1   15   23     3     2    1.5996E+05 -1.1643E+02   1.6007E+05  0.000E+00  0.000E+00  0.000E+00  3.68258E+01  1.591E-01  2.000E+01  2.000E+04 -5.821E-03
   1   15   24     3     3    1.6007E+05 -1.5122E+02   1.6023E+05  0.000E+00  0.000E+00  0.000E+00  3.59370E+01  1.592E-01  2.000E+01  2.000E+04 -7.561E-03
   1   15   25     3     4    1.6023E+05 -1.7315E+02   1.6040E+05  0.000E+00  0.000E+00  0.000E+00  3.50482E+01  1.593E-01  2.000E+01  2.000E+04 -8.657E-03
   1   15   26     3     5    1.6040E+05 -2.3768E+02   1.6064E+05  0.000E+00  0.000E+00  0.000E+00  3.41594E+01  1.594E-01  2.000E+01  2.000E+04 -1.188E-02
   1   16   27     3     6    1.6064E+05 -2.4771E+02   1.6088E+05  0.000E+00  0.000E+00  0.000E+00  3.32707E+01  1.596E-01  2.000E+01  2.000E+04 -1.239E-02
   1   17   28     3     7    1.6088E+05 -1.2232E+03   1.6211E+05  0.000E+00  0.000E+00  0.000E+00  3.23823E+01  1.600E-01  2.000E+01  2.000E+04 -6.116E-02
   1   18   29     3     8    1.6211E+05 -2.4597E+03   1.6457E+05  0.000E+00  0.000E+00  0.000E+00  3.14945E+01  1.611E-01  2.000E+01  2.000E+04 -1.230E-01
   1   18   30     3     9    1.6457E+05 -2.8689E+03   1.6744E+05  0.000E+00  0.000E+00  0.000E+00  3.06071E+01  1.627E-01  2.000E+01  2.000E+04 -1.434E-01



1
              HEAD IN LAYER   1 AT END OF TIME STEP   1 IN STRESS PERIOD    7
  ---------------------------------------------------------------------------

          1      2      3      4      5      6      7      8      9     10
         11     12     13     14     15     16     17     18     19     20
         21     22     23     24     25     26     27     28     29     30
 .........................................................................
   1  ****** ****** ****** ****** ****** ****** ****** ****** ****** ******
      ****** ****** ****** ****** ****** ****** ****** ****** ****** ******
      ****** ****** ****** ****** ****** ****** ****** ****** ****** ******
   2  ****** ****** ****** ****** ****** ****** ****** ****** ****** ******
      ****** ****** ****** ****** ****** ****** ****** ****** ****** ******
      ****** ****** ****** ****** ****** ****** ****** ****** ****** ******
   3  ****** ****** ****** ****** ****** ****** ****** ****** ****** ******
      ****** ****** ****** ****** ****** ****** ****** ****** ****** ******
      ****** ****** ****** ****** ****** ****** ****** ****** ****** ******
   4  ****** ****** ****** ****** ****** ****** ****** ****** ****** ******
      ****** ****** ****** ****** ****** ****** ****** ****** ****** ******
      ****** ****** ****** ****** ****** ****** ****** ****** ****** ******
   5  ****** ****** ****** ****** ****** ****** ****** ****** ****** ******
      ****** ****** ****** ****** ****** ****** ****** ****** ****** ******
      ****** ****** ****** ****** ****** ****** ****** ****** ****** ******
   6  ****** ****** ****** ****** ****** ****** ****** ****** ****** ******
      ****** ****** ****** ****** ****** ****** ****** ****** ****** ******
      ****** ****** ****** ****** ****** ****** ****** ****** ****** ******
   7  ****** ****** ****** ****** ****** ****** ****** ****** ****** ******
      ****** ****** ****** ****** ****** ****** ****** ****** ****** ******
      ****** ****** ****** ****** ****** ****** ****** ****** ****** ******
   8  ****** ****** ****** ****** ****** ****** ****** ****** ****** ******
      ****** ****** ****** ****** ****** ****** ****** ****** ****** ******
      ****** ****** ****** ****** ****** ****** ****** ****** ****** ******
   9  ****** ****** ****** ****** ****** ****** ****** ****** ****** ******
      ****** ****** ****** ****** ****** ****** ****** ****** ****** ******
      ****** ****** ****** ****** ****** ****** ****** ****** ****** ******
  10  ****** ****** ****** ****** ****** ****** ****** ****** ****** ******
      ****** ****** ****** ****** ****** ****** ****** ****** ****** ******
      ****** ****** ****** ****** ****** ****** ****** ****** ****** ******
  11  ****** ****** ****** ****** ****** ****** ****** ****** ****** ******
      ****** ****** ****** ****** ****** ****** ****** ****** ****** ******
      ****** ****** ****** ****** ****** ****** ****** ****** ****** ******
  12  ****** ****** ****** ****** ****** ****** ****** ****** ****** ******
      ****** ****** ****** ****** ****** ****** ****** ****** ****** ******
      ****** ****** ****** ****** ****** ****** ****** ****** ****** ******
  13  ****** ****** ****** ****** ****** ****** ****** ****** ****** ******
      ****** ****** ****** ****** ****** ****** ****** ****** ****** ******
      ****** ****** ****** ****** ****** ****** ****** ****** ****** ******
  14  ****** ****** ****** ****** ****** ****** ****** ****** ****** ******
      ****** ****** ****** ****** ****** ****** ****** ****** ****** ******
      ****** ****** ****** ****** ****** ****** ****** ****** ****** ******
  15  ****** ****** ****** ****** ****** ****** ****** ****** ****** ******
      ****** ****** ****** ****** ****** ****** ****** ****** ****** ******
      ****** ****** ****** ****** ****** ****** ****** ****** ****** ******
  16  ****** ****** ****** ****** ****** ****** ****** ****** ****** ******
      ****** ****** ****** ****** ****** ****** ****** ****** ****** ******
      ****** ****** ****** ****** ****** ****** ****** ****** ****** ******
  17  ****** ****** ****** ****** ****** ****** ****** ****** ****** ******
      ****** ****** ****** ****** ****** ****** ****** ****** ****** ******
      ****** ****** ****** ****** ****** ****** ****** ****** ****** ******
  18  ****** ****** ****** ****** ****** ****** ****** ****** ****** ******
      ****** ****** ****** ****** ****** ****** ****** ****** ****** ******
      ****** ****** ****** ****** ****** ****** ****** ****** ****** ******
  19  ****** ****** ****** ****** ****** ****** ****** ****** ****** ******
      ****** ****** ****** ****** ****** ****** ****** ****** ****** ******
      ****** ****** ****** ****** ****** ****** ****** ****** ****** ******
  20  ****** ****** ****** ****** ****** ****** ****** ****** ****** ******
      ****** ****** ****** ****** ****** ****** ****** ****** ****** ******
      ****** ****** ****** ****** ****** ****** ****** ****** ****** ******
  21  ****** ****** ****** ****** ****** ****** ****** ****** ****** ******
      ****** ****** ****** ****** ****** ****** ****** ****** ****** ******
      ****** ****** ****** ****** ****** ****** ****** ****** ****** ******
  22  ****** ****** ****** ****** ****** ****** ****** ****** ****** ******
      ****** ****** ****** ****** ****** ****** ****** ****** ****** ******
      ****** ****** ****** ****** ****** ****** ****** ****** ****** ******
  23  ****** ****** ****** ****** ****** ****** ****** ****** ****** ******
      ****** ****** ****** ****** ****** ****** ****** ****** ****** ******
      ****** ****** ****** ****** ****** ****** ****** ****** ****** ******
  24  ****** ****** ****** ****** ****** ****** ****** ****** ****** ******
      ****** ****** ****** ****** ****** ****** ****** ****** ****** ******
      ****** ****** ****** ****** ****** ****** ****** ****** ****** ******
  25  ****** ****** ****** ****** ****** ****** ****** ****** ****** ******
      ****** ****** ****** ****** ****** ****** ****** ****** ****** ******
      ****** ****** ****** ****** ****** ****** ****** ****** ****** ******

 HEAD WILL BE SAVED ON UNIT   51 AT END OF TIME STEP    1, STRESS PERIOD    7
1
  VOLUMETRIC BUDGET FOR ENTIRE MODEL AT END OF TIME STEP    1, STRESS PERIOD   7
  ------------------------------------------------------------------------------

     CUMULATIVE VOLUMES      L**3       RATES FOR THIS TIME STEP      L**3/T
     ------------------                 ------------------------

           IN:                                      IN:
           ---                                      ---
             STORAGE =    33314196.9400               STORAGE =       22337.5040
       CONSTANT HEAD =    16349194.8441         CONSTANT HEAD =       33569.7374
               WELLS =           0.0000                 WELLS =           0.0000
            RECHARGE =    15097200.0000              RECHARGE =           0.0000
      STREAM LEAKAGE =     6785902.6103        STREAM LEAKAGE =       14965.4467

            TOTAL IN =    71546494.3943              TOTAL IN =       70872.6880

          OUT:                                     OUT:
          ----                                     ----
             STORAGE =      801477.6680               STORAGE =           0.0000
       CONSTANT HEAD =           0.0000         CONSTANT HEAD =           0.0000
               WELLS =    24583169.4006                 WELLS =       38471.3136
            RECHARGE =           0.0000              RECHARGE =           0.0000
      STREAM LEAKAGE =    46161849.9115        STREAM LEAKAGE =       32401.3800

           TOTAL OUT =    71546496.9801             TOTAL OUT =       70872.6937

            IN - OUT =          -2.5857              IN - OUT =      -5.6262E-03

 PERCENT DISCREPANCY =          -0.00     PERCENT DISCREPANCY =          -0.00






         TIME SUMMARY AT END OF TIME STEP    1 IN STRESS PERIOD    7
                    SECONDS     MINUTES      HOURS       DAYS        YEARS
                    -----------------------------------------------------------
   TIME STEP LENGTH 7.86240E+06 1.31040E+05  2184.0      91.000     0.24914    
 STRESS PERIOD TIME 7.86240E+06 1.31040E+05  2184.0      91.000     0.24914    
         TOTAL TIME 5.52096E+07 9.20160E+05  15336.      639.00      1.7495    
1
1
                            STRESS PERIOD NO.    8, LENGTH =   91.00000    
                            -----------------------------------------------

                              NUMBER OF TIME STEPS =     1

                               MULTIPLIER FOR DELT =     1.500

                            INITIAL TIME STEP SIZE =   91.00000    

 WELL NO.  LAYER   ROW   COL   STRESS RATE         
 --------------------------------------------------
      1      1      6     22      -8915.    
      2      1     16     17      -8329.    
      3      1      8     28      -7077.    
      4      1     15     19     -0.1415E+05

      4 WELLS

                 RECHARGE =  1.000000E-03

 REUSING STREAM SEGMENT DATA FROM LAST STRESS PERIOD
 
 SOLVING FOR HEAD 


     6 CALLS TO PCG ROUTINE FOR TIME STEP   1 IN STRESS PERIOD    8
    22 TOTAL ITERATIONS

 OUTPUT CONTROL FOR STRESS PERIOD    8   TIME STEP    1
    SAVE BUDGET
    SAVE HEAD FOR ALL LAYERS
    PRINT HEAD FOR ALL LAYERS
 UBDSV2 SAVING "STREAMFLOW OUT  " ON UNIT  50 AT TIME STEP  1, STRESS PERIOD   8



 STREAM LISTING     PERIOD      8   STEP        1

 LAYER ROW COL. STREAM  RCH.  FLOW INTO     FLOW TO   FLOW OUT OF   OVRLND.     DIRECT     STREAM       STREAM     STREAM     STREAM   STREAMBED  STREAMBED
                SEG.NO.  NO.  STRM. RCH.    AQUIFER    STRM. RCH.    RUNOFF     PRECIP       ET          HEAD       DEPTH      WIDTH   CONDCTNC.   GRADIENT

   1   13    1     1     1    1.0000E+05 -1.8427E+03   1.0184E+05  0.000E+00  0.000E+00  0.000E+00  4.84068E+01  1.455E-01  2.000E+01  2.000E+04 -9.213E-02
   1   13    2     1     2    1.0184E+05 -2.8138E+03   1.0466E+05  0.000E+00  0.000E+00  0.000E+00  4.79315E+01  1.475E-01  2.000E+01  2.000E+04 -1.407E-01
   1   14    3     1     3    1.0466E+05 -4.7122E+02   1.0513E+05  0.000E+00  0.000E+00  0.000E+00  4.74557E+01  1.489E-01  2.000E+01  2.000E+04 -2.356E-02
   1   15    4     1     4    1.0513E+05 -4.3943E+02   1.0557E+05  0.000E+00  0.000E+00  0.000E+00  4.69788E+01  1.492E-01  2.000E+01  2.000E+04 -2.197E-02
   1   16    5     1     5    1.0557E+05 -1.5660E+03   1.0713E+05  0.000E+00  0.000E+00  0.000E+00  4.65024E+01  1.501E-01  2.000E+01  2.000E+04 -7.830E-02
   1   16    6     1     6    1.0713E+05 -9.9086E+02   1.0812E+05  0.000E+00  0.000E+00  0.000E+00  4.60262E+01  1.512E-01  2.000E+01  2.000E+04 -4.954E-02
   1   16    7     1     7    1.0812E+05 -9.6004E+02   1.0908E+05  0.000E+00  0.000E+00  0.000E+00  4.55497E+01  1.520E-01  2.000E+01  2.000E+04 -4.800E-02
   1   16    8     1     8    1.0908E+05 -9.3322E+02   1.1002E+05  0.000E+00  0.000E+00  0.000E+00  4.50732E+01  1.528E-01  2.000E+01  2.000E+04 -4.666E-02
   1   16    9     1     9    1.1002E+05 -8.8964E+02   1.1091E+05  0.000E+00  0.000E+00  0.000E+00  4.45967E+01  1.536E-01  2.000E+01  2.000E+04 -4.448E-02
   1   16   10     1    10    1.1091E+05 -8.2046E+02   1.1173E+05  0.000E+00  0.000E+00  0.000E+00  4.41202E+01  1.543E-01  2.000E+01  2.000E+04 -4.102E-02
   1   16   11     1    11    1.1173E+05 -7.1447E+02   1.1244E+05  0.000E+00  0.000E+00  0.000E+00  4.36435E+01  1.549E-01  2.000E+01  2.000E+04 -3.572E-02
   1   16   12     1    12    1.1244E+05 -7.5159E+02   1.1319E+05  0.000E+00  0.000E+00  0.000E+00  4.31669E+01  1.555E-01  2.000E+01  2.000E+04 -3.758E-02
   1   15   13     1    13    1.1319E+05 -3.9371E+02   1.1359E+05  0.000E+00  0.000E+00  0.000E+00  4.26901E+01  1.560E-01  2.000E+01  2.000E+04 -1.969E-02
   1   14   14     1    14    1.1359E+05 -3.2568E+02   1.1391E+05  0.000E+00  0.000E+00  0.000E+00  4.22131E+01  1.563E-01  2.000E+01  2.000E+04 -1.628E-02
   1   13   15     1    15    1.1391E+05 -5.6132E+02   1.1447E+05  0.000E+00  0.000E+00  0.000E+00  4.17362E+01  1.566E-01  2.000E+01  2.000E+04 -2.807E-02
   1   12   16     1    16    1.1447E+05 -1.7990E+03   1.1627E+05  0.000E+00  0.000E+00  0.000E+00  4.12599E+01  1.576E-01  2.000E+01  2.000E+04 -8.995E-02
   1   12   17     1    17    1.1627E+05 -4.3229E+02   1.1671E+05  0.000E+00  0.000E+00  0.000E+00  4.07835E+01  1.585E-01  2.000E+01  2.000E+04 -2.161E-02
   1   12   18     1    18    1.1671E+05 -6.8080E+01   1.1677E+05  0.000E+00  0.000E+00  0.000E+00  4.03065E+01  1.587E-01  2.000E+01  2.000E+04 -3.404E-03
   1   12   19     1    19    1.1677E+05 -4.4041E+02   1.1721E+05  0.000E+00  0.000E+00  0.000E+00  3.98294E+01  1.589E-01  2.000E+01  2.000E+04 -2.202E-02
   1   13   20     1    20    1.1721E+05  1.6017E+03   1.1561E+05  0.000E+00  0.000E+00  0.000E+00  3.93516E+01  1.585E-01  2.000E+01  2.000E+04  8.008E-02
   1   14   21     1    21    1.1561E+05  2.1639E+03   1.1345E+05  0.000E+00  0.000E+00  0.000E+00  3.88728E+01  1.569E-01  2.000E+01  2.000E+04  1.082E-01
   1   14   22     1    22    1.1345E+05  5.3548E+03   1.0809E+05  0.000E+00  0.000E+00  0.000E+00  3.83924E+01  1.538E-01  2.000E+01  2.000E+04  2.677E-01
   1    9   30     2     1    5.0000E+04  3.2727E+02   4.9673E+04  0.000E+00  0.000E+00  0.000E+00  4.02406E+01  1.156E-01  2.000E+01  2.000E+04  1.636E-02
   1    9   29     2     2    4.9673E+04  5.0929E+02   4.9163E+04  0.000E+00  0.000E+00  0.000E+00  3.99901E+01  1.151E-01  2.000E+01  2.000E+04  2.546E-02
   1    9   28     2     3    4.9163E+04  1.7621E+03   4.7401E+04  0.000E+00  0.000E+00  0.000E+00  3.97385E+01  1.135E-01  2.000E+01  2.000E+04  8.810E-02
   1    9   27     2     4    4.7401E+04 -2.3537E+02   4.7637E+04  0.000E+00  0.000E+00  0.000E+00  3.94874E+01  1.124E-01  2.000E+01  2.000E+04 -1.177E-02
   1   10   26     2     5    4.7637E+04 -5.8457E+02   4.8221E+04  0.000E+00  0.000E+00  0.000E+00  3.92380E+01  1.130E-01  2.000E+01  2.000E+04 -2.923E-02
   1   11   25     2     6    4.8221E+04 -6.6874E+02   4.8890E+04  0.000E+00  0.000E+00  0.000E+00  3.89888E+01  1.138E-01  2.000E+01  2.000E+04 -3.344E-02
   1   12   24     2     7    4.8890E+04 -8.8217E+02   4.9772E+04  0.000E+00  0.000E+00  0.000E+00  3.87399E+01  1.149E-01  2.000E+01  2.000E+04 -4.411E-02
   1   13   23     2     8    4.9772E+04 -1.7106E+02   4.9943E+04  0.000E+00  0.000E+00  0.000E+00  3.84907E+01  1.157E-01  2.000E+01  2.000E+04 -8.553E-03
   1   14   22     2     9    4.9943E+04  2.2897E+03   4.7654E+04  0.000E+00  0.000E+00  0.000E+00  3.82392E+01  1.142E-01  2.000E+01  2.000E+04  1.145E-01
   1   14   22     3     1    1.5575E+05 -8.2020E+03   1.6395E+05  0.000E+00  0.000E+00  0.000E+00  3.77146E+01  1.590E-01  2.000E+01  2.000E+04 -4.101E-01
   1   15   23     3     2    1.6395E+05 -1.8007E+02   1.6413E+05  0.000E+00  0.000E+00  0.000E+00  3.68282E+01  1.615E-01  2.000E+01  2.000E+04 -9.004E-03
   1   15   24     3     3    1.6413E+05 -2.1140E+02   1.6434E+05  0.000E+00  0.000E+00  0.000E+00  3.59394E+01  1.617E-01  2.000E+01  2.000E+04 -1.057E-02
   1   15   25     3     4    1.6434E+05 -2.3510E+02   1.6458E+05  0.000E+00  0.000E+00  0.000E+00  3.50507E+01  1.618E-01  2.000E+01  2.000E+04 -1.175E-02
   1   15   26     3     5    1.6458E+05 -3.1214E+02   1.6489E+05  0.000E+00  0.000E+00  0.000E+00  3.41619E+01  1.619E-01  2.000E+01  2.000E+04 -1.561E-02
   1   16   27     3     6    1.6489E+05 -3.2920E+02   1.6522E+05  0.000E+00  0.000E+00  0.000E+00  3.32732E+01  1.621E-01  2.000E+01  2.000E+04 -1.646E-02
   1   17   28     3     7    1.6522E+05 -1.4259E+03   1.6664E+05  0.000E+00  0.000E+00  0.000E+00  3.23849E+01  1.627E-01  2.000E+01  2.000E+04 -7.129E-02
   1   18   29     3     8    1.6664E+05 -2.6228E+03   1.6927E+05  0.000E+00  0.000E+00  0.000E+00  3.14972E+01  1.638E-01  2.000E+01  2.000E+04 -1.311E-01
   1   18   30     3     9    1.6927E+05 -3.0142E+03   1.7228E+05  0.000E+00  0.000E+00  0.000E+00  3.06099E+01  1.655E-01  2.000E+01  2.000E+04 -1.507E-01



1
              HEAD IN LAYER   1 AT END OF TIME STEP   1 IN STRESS PERIOD    8
  ---------------------------------------------------------------------------

          1      2      3      4      5      6      7      8      9     10
         11     12     13     14     15     16     17     18     19     20
         21     22     23     24     25     26     27     28     29     30
 .........................................................................
   1  ****** ****** ****** ****** ****** ****** ****** ****** ****** ******
      ****** ****** ****** ****** ****** ****** ****** ****** ****** ******
      ****** ****** ****** ****** ****** ****** ****** ****** ****** ******
   2  ****** ****** ****** ****** ****** ****** ****** ****** ****** ******
      ****** ****** ****** ****** ****** ****** ****** ****** ****** ******
      ****** ****** ****** ****** ****** ****** ****** ****** ****** ******
   3  ****** ****** ****** ****** ****** ****** ****** ****** ****** ******
      ****** ****** ****** ****** ****** ****** ****** ****** ****** ******
      ****** ****** ****** ****** ****** ****** ****** ****** ****** ******
   4  ****** ****** ****** ****** ****** ****** ****** ****** ****** ******
      ****** ****** ****** ****** ****** ****** ****** ****** ****** ******
      ****** ****** ****** ****** ****** ****** ****** ****** ****** ******
   5  ****** ****** ****** ****** ****** ****** ****** ****** ****** ******
      ****** ****** ****** ****** ****** ****** ****** ****** ****** ******
      ****** ****** ****** ****** ****** ****** ****** ****** ****** ******
   6  ****** ****** ****** ****** ****** ****** ****** ****** ****** ******
      ****** ****** ****** ****** ****** ****** ****** ****** ****** ******
      ****** ****** ****** ****** ****** ****** ****** ****** ****** ******
   7  ****** ****** ****** ****** ****** ****** ****** ****** ****** ******
      ****** ****** ****** ****** ****** ****** ****** ****** ****** ******
      ****** ****** ****** ****** ****** ****** ****** ****** ****** ******
   8  ****** ****** ****** ****** ****** ****** ****** ****** ****** ******
      ****** ****** ****** ****** ****** ****** ****** ****** ****** ******
      ****** ****** ****** ****** ****** ****** ****** ****** ****** ******
   9  ****** ****** ****** ****** ****** ****** ****** ****** ****** ******
      ****** ****** ****** ****** ****** ****** ****** ****** ****** ******
      ****** ****** ****** ****** ****** ****** ****** ****** ****** ******
  10  ****** ****** ****** ****** ****** ****** ****** ****** ****** ******
      ****** ****** ****** ****** ****** ****** ****** ****** ****** ******
      ****** ****** ****** ****** ****** ****** ****** ****** ****** ******
  11  ****** ****** ****** ****** ****** ****** ****** ****** ****** ******
      ****** ****** ****** ****** ****** ****** ****** ****** ****** ******
      ****** ****** ****** ****** ****** ****** ****** ****** ****** ******
  12  ****** ****** ****** ****** ****** ****** ****** ****** ****** ******
      ****** ****** ****** ****** ****** ****** ****** ****** ****** ******
      ****** ****** ****** ****** ****** ****** ****** ****** ****** ******
  13  ****** ****** ****** ****** ****** ****** ****** ****** ****** ******
      ****** ****** ****** ****** ****** ****** ****** ****** ****** ******
      ****** ****** ****** ****** ****** ****** ****** ****** ****** ******
  14  ****** ****** ****** ****** ****** ****** ****** ****** ****** ******
      ****** ****** ****** ****** ****** ****** ****** ****** ****** ******
      ****** ****** ****** ****** ****** ****** ****** ****** ****** ******
  15  ****** ****** ****** ****** ****** ****** ****** ****** ****** ******
      ****** ****** ****** ****** ****** ****** ****** ****** ****** ******
      ****** ****** ****** ****** ****** ****** ****** ****** ****** ******
  16  ****** ****** ****** ****** ****** ****** ****** ****** ****** ******
      ****** ****** ****** ****** ****** ****** ****** ****** ****** ******
      ****** ****** ****** ****** ****** ****** ****** ****** ****** ******
  17  ****** ****** ****** ****** ****** ****** ****** ****** ****** ******
      ****** ****** ****** ****** ****** ****** ****** ****** ****** ******
      ****** ****** ****** ****** ****** ****** ****** ****** ****** ******
  18  ****** ****** ****** ****** ****** ****** ****** ****** ****** ******
      ****** ****** ****** ****** ****** ****** ****** ****** ****** ******
      ****** ****** ****** ****** ****** ****** ****** ****** ****** ******
  19  ****** ****** ****** ****** ****** ****** ****** ****** ****** ******
      ****** ****** ****** ****** ****** ****** ****** ****** ****** ******
      ****** ****** ****** ****** ****** ****** ****** ****** ****** ******
  20  ****** ****** ****** ****** ****** ****** ****** ****** ****** ******
      ****** ****** ****** ****** ****** ****** ****** ****** ****** ******
      ****** ****** ****** ****** ****** ****** ****** ****** ****** ******
  21  ****** ****** ****** ****** ****** ****** ****** ****** ****** ******
      ****** ****** ****** ****** ****** ****** ****** ****** ****** ******
      ****** ****** ****** ****** ****** ****** ****** ****** ****** ******
  22  ****** ****** ****** ****** ****** ****** ****** ****** ****** ******
      ****** ****** ****** ****** ****** ****** ****** ****** ****** ******
      ****** ****** ****** ****** ****** ****** ****** ****** ****** ******
  23  ****** ****** ****** ****** ****** ****** ****** ****** ****** ******
      ****** ****** ****** ****** ****** ****** ****** ****** ****** ******
      ****** ****** ****** ****** ****** ****** ****** ****** ****** ******
  24  ****** ****** ****** ****** ****** ****** ****** ****** ****** ******
      ****** ****** ****** ****** ****** ****** ****** ****** ****** ******
      ****** ****** ****** ****** ****** ****** ****** ****** ****** ******
  25  ****** ****** ****** ****** ****** ****** ****** ****** ****** ******
      ****** ****** ****** ****** ****** ****** ****** ****** ****** ******
      ****** ****** ****** ****** ****** ****** ****** ****** ****** ******

 HEAD WILL BE SAVED ON UNIT   51 AT END OF TIME STEP    1, STRESS PERIOD    8
1
  VOLUMETRIC BUDGET FOR ENTIRE MODEL AT END OF TIME STEP    1, STRESS PERIOD   8
  ------------------------------------------------------------------------------

     CUMULATIVE VOLUMES      L**3       RATES FOR THIS TIME STEP      L**3/T
     ------------------                 ------------------------

           IN:                                      IN:
           ---                                      ---
             STORAGE =    33442376.3761               STORAGE =        1408.5652
       CONSTANT HEAD =    19377203.6298         CONSTANT HEAD =       33274.8218
               WELLS =           0.0000                 WELLS =           0.0000
            RECHARGE =    17608800.0000              RECHARGE =       27600.0000
      STREAM LEAKAGE =     8060689.6905        STREAM LEAKAGE =       14008.6492

            TOTAL IN =    78489069.6964              TOTAL IN =       76292.0363

          OUT:                                     OUT:
          ----                                     ----
             STORAGE =      940907.9530               STORAGE =        1532.2009
       CONSTANT HEAD =           0.0000         CONSTANT HEAD =           0.0000
               WELLS =    28084058.9396                 WELLS =       38471.3136
            RECHARGE =           0.0000              RECHARGE =           0.0000
      STREAM LEAKAGE =    49464104.6101        STREAM LEAKAGE =       36288.5132

           TOTAL OUT =    78489071.5028             TOTAL OUT =       76292.0277

            IN - OUT =          -1.8064              IN - OUT =       8.5643E-03

 PERCENT DISCREPANCY =          -0.00     PERCENT DISCREPANCY =           0.00






         TIME SUMMARY AT END OF TIME STEP    1 IN STRESS PERIOD    8
                    SECONDS     MINUTES      HOURS       DAYS        YEARS
                    -----------------------------------------------------------
   TIME STEP LENGTH 7.86240E+06 1.31040E+05  2184.0      91.000     0.24914    
 STRESS PERIOD TIME 7.86240E+06 1.31040E+05  2184.0      91.000     0.24914    
         TOTAL TIME 6.30720E+07 1.05120E+06  17520.      730.00      1.9986    
1
1
                            STRESS PERIOD NO.    9, LENGTH =   92.00000    
                            -----------------------------------------------

                              NUMBER OF TIME STEPS =     1

                               MULTIPLIER FOR DELT =     1.500

                            INITIAL TIME STEP SIZE =   92.00000    

 WELL NO.  LAYER   ROW   COL   STRESS RATE         
 --------------------------------------------------
      1      1      6     22      -8915.    
      2      1     16     17      -8329.    
      3      1      8     28      -7077.    
      4      1     15     19     -0.1415E+05

      4 WELLS

                 RECHARGE =  5.000000E-04

 REUSING STREAM SEGMENT DATA FROM LAST STRESS PERIOD
 
 SOLVING FOR HEAD 


     6 CALLS TO PCG ROUTINE FOR TIME STEP   1 IN STRESS PERIOD    9
    23 TOTAL ITERATIONS

 OUTPUT CONTROL FOR STRESS PERIOD    9   TIME STEP    1
    SAVE BUDGET
    SAVE HEAD FOR ALL LAYERS
    PRINT HEAD FOR ALL LAYERS
 UBDSV2 SAVING "STREAMFLOW OUT  " ON UNIT  50 AT TIME STEP  1, STRESS PERIOD   9



 STREAM LISTING     PERIOD      9   STEP        1

 LAYER ROW COL. STREAM  RCH.  FLOW INTO     FLOW TO   FLOW OUT OF   OVRLND.     DIRECT     STREAM       STREAM     STREAM     STREAM   STREAMBED  STREAMBED
                SEG.NO.  NO.  STRM. RCH.    AQUIFER    STRM. RCH.    RUNOFF     PRECIP       ET          HEAD       DEPTH      WIDTH   CONDCTNC.   GRADIENT

   1   13    1     1     1    1.0000E+05 -1.6300E+03   1.0163E+05  0.000E+00  0.000E+00  0.000E+00  4.84067E+01  1.454E-01  2.000E+01  2.000E+04 -8.150E-02
   1   13    2     1     2    1.0163E+05 -2.5731E+03   1.0420E+05  0.000E+00  0.000E+00  0.000E+00  4.79313E+01  1.472E-01  2.000E+01  2.000E+04 -1.287E-01
   1   14    3     1     3    1.0420E+05 -4.0070E+02   1.0460E+05  0.000E+00  0.000E+00  0.000E+00  4.74553E+01  1.484E-01  2.000E+01  2.000E+04 -2.004E-02
   1   15    4     1     4    1.0460E+05 -3.6781E+02   1.0497E+05  0.000E+00  0.000E+00  0.000E+00  4.69783E+01  1.488E-01  2.000E+01  2.000E+04 -1.839E-02
   1   16    5     1     5    1.0497E+05 -1.3733E+03   1.0634E+05  0.000E+00  0.000E+00  0.000E+00  4.65018E+01  1.495E-01  2.000E+01  2.000E+04 -6.866E-02
   1   16    6     1     6    1.0634E+05 -8.7087E+02   1.0722E+05  0.000E+00  0.000E+00  0.000E+00  4.60255E+01  1.505E-01  2.000E+01  2.000E+04 -4.354E-02
   1   16    7     1     7    1.0722E+05 -8.4379E+02   1.0806E+05  0.000E+00  0.000E+00  0.000E+00  4.55489E+01  1.512E-01  2.000E+01  2.000E+04 -4.219E-02
   1   16    8     1     8    1.0806E+05 -8.1848E+02   1.0888E+05  0.000E+00  0.000E+00  0.000E+00  4.50723E+01  1.519E-01  2.000E+01  2.000E+04 -4.092E-02
   1   16    9     1     9    1.0888E+05 -7.7644E+02   1.0965E+05  0.000E+00  0.000E+00  0.000E+00  4.45957E+01  1.526E-01  2.000E+01  2.000E+04 -3.882E-02
   1   16   10     1    10    1.0965E+05 -7.0918E+02   1.1036E+05  0.000E+00  0.000E+00  0.000E+00  4.41191E+01  1.532E-01  2.000E+01  2.000E+04 -3.546E-02
   1   16   11     1    11    1.1036E+05 -6.0406E+02   1.1097E+05  0.000E+00  0.000E+00  0.000E+00  4.36424E+01  1.537E-01  2.000E+01  2.000E+04 -3.020E-02
   1   16   12     1    12    1.1097E+05 -5.6259E+02   1.1153E+05  0.000E+00  0.000E+00  0.000E+00  4.31656E+01  1.542E-01  2.000E+01  2.000E+04 -2.813E-02
   1   15   13     1    13    1.1153E+05 -1.8398E+02   1.1171E+05  0.000E+00  0.000E+00  0.000E+00  4.26886E+01  1.545E-01  2.000E+01  2.000E+04 -9.199E-03
   1   14   14     1    14    1.1171E+05 -1.0283E+02   1.1182E+05  0.000E+00  0.000E+00  0.000E+00  4.22115E+01  1.546E-01  2.000E+01  2.000E+04 -5.141E-03
   1   13   15     1    15    1.1182E+05 -3.3289E+02   1.1215E+05  0.000E+00  0.000E+00  0.000E+00  4.17344E+01  1.548E-01  2.000E+01  2.000E+04 -1.664E-02
   1   12   16     1    16    1.1215E+05 -1.5627E+03   1.1371E+05  0.000E+00  0.000E+00  0.000E+00  4.12579E+01  1.556E-01  2.000E+01  2.000E+04 -7.814E-02
   1   12   17     1    17    1.1371E+05 -2.6970E+02   1.1398E+05  0.000E+00  0.000E+00  0.000E+00  4.07814E+01  1.564E-01  2.000E+01  2.000E+04 -1.348E-02
   1   12   18     1    18    1.1398E+05  8.7167E+01   1.1390E+05  0.000E+00  0.000E+00  0.000E+00  4.03042E+01  1.564E-01  2.000E+01  2.000E+04  4.358E-03
   1   12   19     1    19    1.1390E+05 -2.5350E+02   1.1415E+05  0.000E+00  0.000E+00  0.000E+00  3.98270E+01  1.565E-01  2.000E+01  2.000E+04 -1.267E-02
   1   13   20     1    20    1.1415E+05  1.7756E+03   1.1237E+05  0.000E+00  0.000E+00  0.000E+00  3.93491E+01  1.559E-01  2.000E+01  2.000E+04  8.878E-02
   1   14   21     1    21    1.1237E+05  2.3364E+03   1.1004E+05  0.000E+00  0.000E+00  0.000E+00  3.88701E+01  1.542E-01  2.000E+01  2.000E+04  1.168E-01
   1   14   22     1    22    1.1004E+05  5.3932E+03   1.0464E+05  0.000E+00  0.000E+00  0.000E+00  3.83896E+01  1.509E-01  2.000E+01  2.000E+04  2.697E-01
   1    9   30     2     1    5.0000E+04  4.5085E+02   4.9549E+04  0.000E+00  0.000E+00  0.000E+00  4.02406E+01  1.156E-01  2.000E+01  2.000E+04  2.254E-02
   1    9   29     2     2    4.9549E+04  6.3309E+02   4.8916E+04  0.000E+00  0.000E+00  0.000E+00  3.99898E+01  1.148E-01  2.000E+01  2.000E+04  3.165E-02
   1    9   28     2     3    4.8916E+04  1.8878E+03   4.7028E+04  0.000E+00  0.000E+00  0.000E+00  3.97380E+01  1.130E-01  2.000E+01  2.000E+04  9.439E-02
   1    9   27     2     4    4.7028E+04 -5.8455E+01   4.7087E+04  0.000E+00  0.000E+00  0.000E+00  3.94867E+01  1.117E-01  2.000E+01  2.000E+04 -2.923E-03
   1   10   26     2     5    4.7087E+04 -4.1072E+02   4.7497E+04  0.000E+00  0.000E+00  0.000E+00  3.92371E+01  1.121E-01  2.000E+01  2.000E+04 -2.054E-02
   1   11   25     2     6    4.7497E+04 -5.0245E+02   4.8000E+04  0.000E+00  0.000E+00  0.000E+00  3.89877E+01  1.127E-01  2.000E+01  2.000E+04 -2.512E-02
   1   12   24     2     7    4.8000E+04 -7.2932E+02   4.8729E+04  0.000E+00  0.000E+00  0.000E+00  3.87386E+01  1.136E-01  2.000E+01  2.000E+04 -3.647E-02
   1   13   23     2     8    4.8729E+04 -1.2395E+02   4.8853E+04  0.000E+00  0.000E+00  0.000E+00  3.84892E+01  1.142E-01  2.000E+01  2.000E+04 -6.197E-03
   1   14   22     2     9    4.8853E+04  2.3539E+03   4.6499E+04  0.000E+00  0.000E+00  0.000E+00  3.82376E+01  1.126E-01  2.000E+01  2.000E+04  1.177E-01
   1   14   22     3     1    1.5114E+05 -8.1617E+03   1.5930E+05  0.000E+00  0.000E+00  0.000E+00  3.77118E+01  1.563E-01  2.000E+01  2.000E+04 -4.081E-01
   1   15   23     3     2    1.5930E+05 -1.2729E+02   1.5943E+05  0.000E+00  0.000E+00  0.000E+00  3.68254E+01  1.588E-01  2.000E+01  2.000E+04 -6.365E-03
   1   15   24     3     3    1.5943E+05 -1.6828E+02   1.5960E+05  0.000E+00  0.000E+00  0.000E+00  3.59366E+01  1.588E-01  2.000E+01  2.000E+04 -8.414E-03
   1   15   25     3     4    1.5960E+05 -1.9173E+02   1.5979E+05  0.000E+00  0.000E+00  0.000E+00  3.50478E+01  1.590E-01  2.000E+01  2.000E+04 -9.587E-03
   1   15   26     3     5    1.5979E+05 -2.6449E+02   1.6006E+05  0.000E+00  0.000E+00  0.000E+00  3.41591E+01  1.591E-01  2.000E+01  2.000E+04 -1.322E-02
   1   16   27     3     6    1.6006E+05 -2.7309E+02   1.6033E+05  0.000E+00  0.000E+00  0.000E+00  3.32704E+01  1.593E-01  2.000E+01  2.000E+04 -1.365E-02
   1   17   28     3     7    1.6033E+05 -1.2720E+03   1.6160E+05  0.000E+00  0.000E+00  0.000E+00  3.23819E+01  1.597E-01  2.000E+01  2.000E+04 -6.360E-02
   1   18   29     3     8    1.6160E+05 -2.4460E+03   1.6405E+05  0.000E+00  0.000E+00  0.000E+00  3.14942E+01  1.608E-01  2.000E+01  2.000E+04 -1.223E-01
   1   18   30     3     9    1.6405E+05 -2.8815E+03   1.6693E+05  0.000E+00  0.000E+00  0.000E+00  3.06068E+01  1.624E-01  2.000E+01  2.000E+04 -1.441E-01



1
              HEAD IN LAYER   1 AT END OF TIME STEP   1 IN STRESS PERIOD    9
  ---------------------------------------------------------------------------

          1      2      3      4      5      6      7      8      9     10
         11     12     13     14     15     16     17     18     19     20
         21     22     23     24     25     26     27     28     29     30
 .........................................................................
   1  ****** ****** ****** ****** ****** ****** ****** ****** ****** ******
      ****** ****** ****** ****** ****** ****** ****** ****** ****** ******
      ****** ****** ****** ****** ****** ****** ****** ****** ****** ******
   2  ****** ****** ****** ****** ****** ****** ****** ****** ****** ******
      ****** ****** ****** ****** ****** ****** ****** ****** ****** ******
      ****** ****** ****** ****** ****** ****** ****** ****** ****** ******
   3  ****** ****** ****** ****** ****** ****** ****** ****** ****** ******
      ****** ****** ****** ****** ****** ****** ****** ****** ****** ******
      ****** ****** ****** ****** ****** ****** ****** ****** ****** ******
   4  ****** ****** ****** ****** ****** ****** ****** ****** ****** ******
      ****** ****** ****** ****** ****** ****** ****** ****** ****** ******
      ****** ****** ****** ****** ****** ****** ****** ****** ****** ******
   5  ****** ****** ****** ****** ****** ****** ****** ****** ****** ******
      ****** ****** ****** ****** ****** ****** ****** ****** ****** ******
      ****** ****** ****** ****** ****** ****** ****** ****** ****** ******
   6  ****** ****** ****** ****** ****** ****** ****** ****** ****** ******
      ****** ****** ****** ****** ****** ****** ****** ****** ****** ******
      ****** ****** ****** ****** ****** ****** ****** ****** ****** ******
   7  ****** ****** ****** ****** ****** ****** ****** ****** ****** ******
      ****** ****** ****** ****** ****** ****** ****** ****** ****** ******
      ****** ****** ****** ****** ****** ****** ****** ****** ****** ******
   8  ****** ****** ****** ****** ****** ****** ****** ****** ****** ******
      ****** ****** ****** ****** ****** ****** ****** ****** ****** ******
      ****** ****** ****** ****** ****** ****** ****** ****** ****** ******
   9  ****** ****** ****** ****** ****** ****** ****** ****** ****** ******
      ****** ****** ****** ****** ****** ****** ****** ****** ****** ******
      ****** ****** ****** ****** ****** ****** ****** ****** ****** ******
  10  ****** ****** ****** ****** ****** ****** ****** ****** ****** ******
      ****** ****** ****** ****** ****** ****** ****** ****** ****** ******
      ****** ****** ****** ****** ****** ****** ****** ****** ****** ******
  11  ****** ****** ****** ****** ****** ****** ****** ****** ****** ******
      ****** ****** ****** ****** ****** ****** ****** ****** ****** ******
      ****** ****** ****** ****** ****** ****** ****** ****** ****** ******
  12  ****** ****** ****** ****** ****** ****** ****** ****** ****** ******
      ****** ****** ****** ****** ****** ****** ****** ****** ****** ******
      ****** ****** ****** ****** ****** ****** ****** ****** ****** ******
  13  ****** ****** ****** ****** ****** ****** ****** ****** ****** ******
      ****** ****** ****** ****** ****** ****** ****** ****** ****** ******
      ****** ****** ****** ****** ****** ****** ****** ****** ****** ******
  14  ****** ****** ****** ****** ****** ****** ****** ****** ****** ******
      ****** ****** ****** ****** ****** ****** ****** ****** ****** ******
      ****** ****** ****** ****** ****** ****** ****** ****** ****** ******
  15  ****** ****** ****** ****** ****** ****** ****** ****** ****** ******
      ****** ****** ****** ****** ****** ****** ****** ****** ****** ******
      ****** ****** ****** ****** ****** ****** ****** ****** ****** ******
  16  ****** ****** ****** ****** ****** ****** ****** ****** ****** ******
      ****** ****** ****** ****** ****** ****** ****** ****** ****** ******
      ****** ****** ****** ****** ****** ****** ****** ****** ****** ******
  17  ****** ****** ****** ****** ****** ****** ****** ****** ****** ******
      ****** ****** ****** ****** ****** ****** ****** ****** ****** ******
      ****** ****** ****** ****** ****** ****** ****** ****** ****** ******
  18  ****** ****** ****** ****** ****** ****** ****** ****** ****** ******
      ****** ****** ****** ****** ****** ****** ****** ****** ****** ******
      ****** ****** ****** ****** ****** ****** ****** ****** ****** ******
  19  ****** ****** ****** ****** ****** ****** ****** ****** ****** ******
      ****** ****** ****** ****** ****** ****** ****** ****** ****** ******
      ****** ****** ****** ****** ****** ****** ****** ****** ****** ******
  20  ****** ****** ****** ****** ****** ****** ****** ****** ****** ******
      ****** ****** ****** ****** ****** ****** ****** ****** ****** ******
      ****** ****** ****** ****** ****** ****** ****** ****** ****** ******
  21  ****** ****** ****** ****** ****** ****** ****** ****** ****** ******
      ****** ****** ****** ****** ****** ****** ****** ****** ****** ******
      ****** ****** ****** ****** ****** ****** ****** ****** ****** ******
  22  ****** ****** ****** ****** ****** ****** ****** ****** ****** ******
      ****** ****** ****** ****** ****** ****** ****** ****** ****** ******
      ****** ****** ****** ****** ****** ****** ****** ****** ****** ******
  23  ****** ****** ****** ****** ****** ****** ****** ****** ****** ******
      ****** ****** ****** ****** ****** ****** ****** ****** ****** ******
      ****** ****** ****** ****** ****** ****** ****** ****** ****** ******
  24  ****** ****** ****** ****** ****** ****** ****** ****** ****** ******
      ****** ****** ****** ****** ****** ****** ****** ****** ****** ******
      ****** ****** ****** ****** ****** ****** ****** ****** ****** ******
  25  ****** ****** ****** ****** ****** ****** ****** ****** ****** ******
      ****** ****** ****** ****** ****** ****** ****** ****** ****** ******
      ****** ****** ****** ****** ****** ****** ****** ****** ****** ******

 HEAD WILL BE SAVED ON UNIT   51 AT END OF TIME STEP    1, STRESS PERIOD    9
1
  VOLUMETRIC BUDGET FOR ENTIRE MODEL AT END OF TIME STEP    1, STRESS PERIOD   9
  ------------------------------------------------------------------------------

     CUMULATIVE VOLUMES      L**3       RATES FOR THIS TIME STEP      L**3/T
     ------------------                 ------------------------

           IN:                                      IN:
           ---                                      ---
             STORAGE =    34101213.9691               STORAGE =        7161.2782
       CONSTANT HEAD =    22545576.6642         CONSTANT HEAD =       34438.8373
               WELLS =           0.0000                 WELLS =           0.0000
            RECHARGE =    18878400.0000              RECHARGE =       13800.0000
      STREAM LEAKAGE =     9433137.6811        STREAM LEAKAGE =       14917.9129

            TOTAL IN =    84958328.3144              TOTAL IN =       70318.0285

          OUT:                                     OUT:
          ----                                     ----
             STORAGE =      940907.9530               STORAGE =           0.0000
       CONSTANT HEAD =           0.0000         CONSTANT HEAD =           0.0000
               WELLS =    31623419.7923                 WELLS =       38471.3136
            RECHARGE =           0.0000              RECHARGE =           0.0000
      STREAM LEAKAGE =    52394002.4467        STREAM LEAKAGE =       31846.7156

           TOTAL OUT =    84958330.1921             TOTAL OUT =       70318.0292

            IN - OUT =          -1.8777              IN - OUT =      -7.7485E-04

 PERCENT DISCREPANCY =          -0.00     PERCENT DISCREPANCY =          -0.00






         TIME SUMMARY AT END OF TIME STEP    1 IN STRESS PERIOD    9
                    SECONDS     MINUTES      HOURS       DAYS        YEARS
                    -----------------------------------------------------------
   TIME STEP LENGTH 7.94880E+06 1.32480E+05  2208.0      92.000     0.25188    
 STRESS PERIOD TIME 7.94880E+06 1.32480E+05  2208.0      92.000     0.25188    
         TOTAL TIME 7.10208E+07 1.18368E+06  19728.      822.00      2.2505    
1
1
                            STRESS PERIOD NO.   10, LENGTH =   91.00000    
                            -----------------------------------------------

                              NUMBER OF TIME STEPS =     1

                               MULTIPLIER FOR DELT =     1.500

                            INITIAL TIME STEP SIZE =   91.00000    

 WELL NO.  LAYER   ROW   COL   STRESS RATE         
 --------------------------------------------------
      1      1      6     22      -8915.    
      2      1     16     17      -8329.    
      3      1      8     28      -7077.    
      4      1     15     19     -0.1415E+05

      4 WELLS

                 RECHARGE =  2.000000E-03

 REUSING STREAM SEGMENT DATA FROM LAST STRESS PERIOD
 
 SOLVING FOR HEAD 


     7 CALLS TO PCG ROUTINE FOR TIME STEP   1 IN STRESS PERIOD   10
    26 TOTAL ITERATIONS

 OUTPUT CONTROL FOR STRESS PERIOD   10   TIME STEP    1
    SAVE BUDGET
    SAVE HEAD FOR ALL LAYERS
    PRINT HEAD FOR ALL LAYERS
 UBDSV2 SAVING "STREAMFLOW OUT  " ON UNIT  50 AT TIME STEP  1, STRESS PERIOD  10



 STREAM LISTING     PERIOD     10   STEP        1

 LAYER ROW COL. STREAM  RCH.  FLOW INTO     FLOW TO   FLOW OUT OF   OVRLND.     DIRECT     STREAM       STREAM     STREAM     STREAM   STREAMBED  STREAMBED
                SEG.NO.  NO.  STRM. RCH.    AQUIFER    STRM. RCH.    RUNOFF     PRECIP       ET          HEAD       DEPTH      WIDTH   CONDCTNC.   GRADIENT

   1   13    1     1     1    1.0000E+05 -2.0837E+03   1.0208E+05  0.000E+00  0.000E+00  0.000E+00  4.84069E+01  1.456E-01  2.000E+01  2.000E+04 -1.042E-01
   1   13    2     1     2    1.0208E+05 -3.0761E+03   1.0516E+05  0.000E+00  0.000E+00  0.000E+00  4.79319E+01  1.478E-01  2.000E+01  2.000E+04 -1.538E-01
   1   14    3     1     3    1.0516E+05 -5.8745E+02   1.0575E+05  0.000E+00  0.000E+00  0.000E+00  4.74562E+01  1.493E-01  2.000E+01  2.000E+04 -2.937E-02
   1   15    4     1     4    1.0575E+05 -5.6740E+02   1.0631E+05  0.000E+00  0.000E+00  0.000E+00  4.69794E+01  1.498E-01  2.000E+01  2.000E+04 -2.837E-02
   1   16    5     1     5    1.0631E+05 -1.9921E+03   1.0831E+05  0.000E+00  0.000E+00  0.000E+00  4.65032E+01  1.509E-01  2.000E+01  2.000E+04 -9.961E-02
   1   16    6     1     6    1.0831E+05 -1.2332E+03   1.0954E+05  0.000E+00  0.000E+00  0.000E+00  4.60273E+01  1.523E-01  2.000E+01  2.000E+04 -6.166E-02
   1   16    7     1     7    1.0954E+05 -1.1883E+03   1.1073E+05  0.000E+00  0.000E+00  0.000E+00  4.55510E+01  1.533E-01  2.000E+01  2.000E+04 -5.941E-02
   1   16    8     1     8    1.1073E+05 -1.1575E+03   1.1189E+05  0.000E+00  0.000E+00  0.000E+00  4.50747E+01  1.543E-01  2.000E+01  2.000E+04 -5.788E-02
   1   16    9     1     9    1.1189E+05 -1.1139E+03   1.1300E+05  0.000E+00  0.000E+00  0.000E+00  4.45984E+01  1.552E-01  2.000E+01  2.000E+04 -5.570E-02
   1   16   10     1    10    1.1300E+05 -1.0468E+03   1.1405E+05  0.000E+00  0.000E+00  0.000E+00  4.41220E+01  1.561E-01  2.000E+01  2.000E+04 -5.234E-02
   1   16   11     1    11    1.1405E+05 -9.4501E+02   1.1499E+05  0.000E+00  0.000E+00  0.000E+00  4.36455E+01  1.569E-01  2.000E+01  2.000E+04 -4.725E-02
   1   16   12     1    12    1.1499E+05 -1.1318E+03   1.1612E+05  0.000E+00  0.000E+00  0.000E+00  4.31691E+01  1.578E-01  2.000E+01  2.000E+04 -5.659E-02
   1   15   13     1    13    1.1612E+05 -7.7054E+02   1.1689E+05  0.000E+00  0.000E+00  0.000E+00  4.26926E+01  1.585E-01  2.000E+01  2.000E+04 -3.853E-02
   1   14   14     1    14    1.1689E+05 -6.9682E+02   1.1759E+05  0.000E+00  0.000E+00  0.000E+00  4.22160E+01  1.591E-01  2.000E+01  2.000E+04 -3.484E-02
   1   13   15     1    15    1.1759E+05 -9.1708E+02   1.1851E+05  0.000E+00  0.000E+00  0.000E+00  4.17393E+01  1.598E-01  2.000E+01  2.000E+04 -4.585E-02
   1   12   16     1    16    1.1851E+05 -2.1258E+03   1.2063E+05  0.000E+00  0.000E+00  0.000E+00  4.12633E+01  1.610E-01  2.000E+01  2.000E+04 -1.063E-01
   1   12   17     1    17    1.2063E+05 -6.9569E+02   1.2133E+05  0.000E+00  0.000E+00  0.000E+00  4.07872E+01  1.622E-01  2.000E+01  2.000E+04 -3.478E-02
   1   12   18     1    18    1.2133E+05 -3.3454E+02   1.2166E+05  0.000E+00  0.000E+00  0.000E+00  4.03103E+01  1.626E-01  2.000E+01  2.000E+04 -1.673E-02
   1   12   19     1    19    1.2166E+05 -7.7244E+02   1.2244E+05  0.000E+00  0.000E+00  0.000E+00  3.98335E+01  1.630E-01  2.000E+01  2.000E+04 -3.862E-02
   1   13   20     1    20    1.2244E+05  1.2544E+03   1.2118E+05  0.000E+00  0.000E+00  0.000E+00  3.93560E+01  1.628E-01  2.000E+01  2.000E+04  6.272E-02
   1   14   21     1    21    1.2118E+05  1.8118E+03   1.1937E+05  0.000E+00  0.000E+00  0.000E+00  3.88775E+01  1.616E-01  2.000E+01  2.000E+04  9.059E-02
   1   14   22     1    22    1.1937E+05  5.2664E+03   1.1410E+05  0.000E+00  0.000E+00  0.000E+00  3.83974E+01  1.587E-01  2.000E+01  2.000E+04  2.633E-01
   1    9   30     2     1    5.0000E+04  3.6636E+01   4.9963E+04  0.000E+00  0.000E+00  0.000E+00  4.02408E+01  1.158E-01  2.000E+01  2.000E+04  1.832E-03
   1    9   29     2     2    4.9963E+04  2.2116E+02   4.9742E+04  0.000E+00  0.000E+00  0.000E+00  3.99907E+01  1.157E-01  2.000E+01  2.000E+04  1.106E-02
   1    9   28     2     3    4.9742E+04  1.4766E+03   4.8266E+04  0.000E+00  0.000E+00  0.000E+00  3.97395E+01  1.145E-01  2.000E+01  2.000E+04  7.383E-02
   1    9   27     2     4    4.8266E+04 -6.1139E+02   4.8877E+04  0.000E+00  0.000E+00  0.000E+00  3.94889E+01  1.139E-01  2.000E+01  2.000E+04 -3.057E-02
   1   10   26     2     5    4.8877E+04 -9.6369E+02   4.9841E+04  0.000E+00  0.000E+00  0.000E+00  3.92400E+01  1.150E-01  2.000E+01  2.000E+04 -4.818E-02
   1   11   25     2     6    4.9841E+04 -1.0309E+03   5.0872E+04  0.000E+00  0.000E+00  0.000E+00  3.89914E+01  1.164E-01  2.000E+01  2.000E+04 -5.155E-02
   1   12   24     2     7    5.0872E+04 -1.2076E+03   5.2079E+04  0.000E+00  0.000E+00  0.000E+00  3.87429E+01  1.179E-01  2.000E+01  2.000E+04 -6.038E-02
   1   13   23     2     8    5.2079E+04 -2.7265E+02   5.2352E+04  0.000E+00  0.000E+00  0.000E+00  3.84939E+01  1.189E-01  2.000E+01  2.000E+04 -1.363E-02
   1   14   22     2     9    5.2352E+04  2.1715E+03   5.0180E+04  0.000E+00  0.000E+00  0.000E+00  3.82426E+01  1.176E-01  2.000E+01  2.000E+04  1.086E-01
   1   14   22     3     1    1.6428E+05 -8.2875E+03   1.7257E+05  0.000E+00  0.000E+00  0.000E+00  3.77197E+01  1.641E-01  2.000E+01  2.000E+04 -4.144E-01
   1   15   23     3     2    1.7257E+05 -2.8969E+02   1.7286E+05  0.000E+00  0.000E+00  0.000E+00  3.68333E+01  1.666E-01  2.000E+01  2.000E+04 -1.448E-02
   1   15   24     3     3    1.7286E+05 -3.0537E+02   1.7317E+05  0.000E+00  0.000E+00  0.000E+00  3.59446E+01  1.668E-01  2.000E+01  2.000E+04 -1.527E-02
   1   15   25     3     4    1.7317E+05 -3.3224E+02   1.7350E+05  0.000E+00  0.000E+00  0.000E+00  3.50559E+01  1.670E-01  2.000E+01  2.000E+04 -1.661E-02
   1   15   26     3     5    1.7350E+05 -4.2668E+02   1.7393E+05  0.000E+00  0.000E+00  0.000E+00  3.41672E+01  1.672E-01  2.000E+01  2.000E+04 -2.133E-02
   1   16   27     3     6    1.7393E+05 -4.5885E+02   1.7438E+05  0.000E+00  0.000E+00  0.000E+00  3.32786E+01  1.674E-01  2.000E+01  2.000E+04 -2.294E-02
   1   17   28     3     7    1.7438E+05 -1.7923E+03   1.7618E+05  0.000E+00  0.000E+00  0.000E+00  3.23903E+01  1.681E-01  2.000E+01  2.000E+04 -8.962E-02
   1   18   29     3     8    1.7618E+05 -2.9968E+03   1.7917E+05  0.000E+00  0.000E+00  0.000E+00  3.15028E+01  1.695E-01  2.000E+01  2.000E+04 -1.498E-01
   1   18   30     3     9    1.7917E+05 -3.3065E+03   1.8248E+05  0.000E+00  0.000E+00  0.000E+00  3.06157E+01  1.713E-01  2.000E+01  2.000E+04 -1.653E-01



1
              HEAD IN LAYER   1 AT END OF TIME STEP   1 IN STRESS PERIOD   10
  ---------------------------------------------------------------------------

          1      2      3      4      5      6      7      8      9     10
         11     12     13     14     15     16     17     18     19     20
         21     22     23     24     25     26     27     28     29     30
 .........................................................................
   1  ****** ****** ****** ****** ****** ****** ****** ****** ****** ******
      ****** ****** ****** ****** ****** ****** ****** ****** ****** ******
      ****** ****** ****** ****** ****** ****** ****** ****** ****** ******
   2  ****** ****** ****** ****** ****** ****** ****** ****** ****** ******
      ****** ****** ****** ****** ****** ****** ****** ****** ****** ******
      ****** ****** ****** ****** ****** ****** ****** ****** ****** ******
   3  ****** ****** ****** ****** ****** ****** ****** ****** ****** ******
      ****** ****** ****** ****** ****** ****** ****** ****** ****** ******
      ****** ****** ****** ****** ****** ****** ****** ****** ****** ******
   4  ****** ****** ****** ****** ****** ****** ****** ****** ****** ******
      ****** ****** ****** ****** ****** ****** ****** ****** ****** ******
      ****** ****** ****** ****** ****** ****** ****** ****** ****** ******
   5  ****** ****** ****** ****** ****** ****** ****** ****** ****** ******
      ****** ****** ****** ****** ****** ****** ****** ****** ****** ******
      ****** ****** ****** ****** ****** ****** ****** ****** ****** ******
   6  ****** ****** ****** ****** ****** ****** ****** ****** ****** ******
      ****** ****** ****** ****** ****** ****** ****** ****** ****** ******
      ****** ****** ****** ****** ****** ****** ****** ****** ****** ******
   7  ****** ****** ****** ****** ****** ****** ****** ****** ****** ******
      ****** ****** ****** ****** ****** ****** ****** ****** ****** ******
      ****** ****** ****** ****** ****** ****** ****** ****** ****** ******
   8  ****** ****** ****** ****** ****** ****** ****** ****** ****** ******
      ****** ****** ****** ****** ****** ****** ****** ****** ****** ******
      ****** ****** ****** ****** ****** ****** ****** ****** ****** ******
   9  ****** ****** ****** ****** ****** ****** ****** ****** ****** ******
      ****** ****** ****** ****** ****** ****** ****** ****** ****** ******
      ****** ****** ****** ****** ****** ****** ****** ****** ****** ******
  10  ****** ****** ****** ****** ****** ****** ****** ****** ****** ******
      ****** ****** ****** ****** ****** ****** ****** ****** ****** ******
      ****** ****** ****** ****** ****** ****** ****** ****** ****** ******
  11  ****** ****** ****** ****** ****** ****** ****** ****** ****** ******
      ****** ****** ****** ****** ****** ****** ****** ****** ****** ******
      ****** ****** ****** ****** ****** ****** ****** ****** ****** ******
  12  ****** ****** ****** ****** ****** ****** ****** ****** ****** ******
      ****** ****** ****** ****** ****** ****** ****** ****** ****** ******
      ****** ****** ****** ****** ****** ****** ****** ****** ****** ******
  13  ****** ****** ****** ****** ****** ****** ****** ****** ****** ******
      ****** ****** ****** ****** ****** ****** ****** ****** ****** ******
      ****** ****** ****** ****** ****** ****** ****** ****** ****** ******
  14  ****** ****** ****** ****** ****** ****** ****** ****** ****** ******
      ****** ****** ****** ****** ****** ****** ****** ****** ****** ******
      ****** ****** ****** ****** ****** ****** ****** ****** ****** ******
  15  ****** ****** ****** ****** ****** ****** ****** ****** ****** ******
      ****** ****** ****** ****** ****** ****** ****** ****** ****** ******
      ****** ****** ****** ****** ****** ****** ****** ****** ****** ******
  16  ****** ****** ****** ****** ****** ****** ****** ****** ****** ******
      ****** ****** ****** ****** ****** ****** ****** ****** ****** ******
      ****** ****** ****** ****** ****** ****** ****** ****** ****** ******
  17  ****** ****** ****** ****** ****** ****** ****** ****** ****** ******
      ****** ****** ****** ****** ****** ****** ****** ****** ****** ******
      ****** ****** ****** ****** ****** ****** ****** ****** ****** ******
  18  ****** ****** ****** ****** ****** ****** ****** ****** ****** ******
      ****** ****** ****** ****** ****** ****** ****** ****** ****** ******
      ****** ****** ****** ****** ****** ****** ****** ****** ****** ******
  19  ****** ****** ****** ****** ****** ****** ****** ****** ****** ******
      ****** ****** ****** ****** ****** ****** ****** ****** ****** ******
      ****** ****** ****** ****** ****** ****** ****** ****** ****** ******
  20  ****** ****** ****** ****** ****** ****** ****** ****** ****** ******
      ****** ****** ****** ****** ****** ****** ****** ****** ****** ******
      ****** ****** ****** ****** ****** ****** ****** ****** ****** ******
  21  ****** ****** ****** ****** ****** ****** ****** ****** ****** ******
      ****** ****** ****** ****** ****** ****** ****** ****** ****** ******
      ****** ****** ****** ****** ****** ****** ****** ****** ****** ******
  22  ****** ****** ****** ****** ****** ****** ****** ****** ****** ******
      ****** ****** ****** ****** ****** ****** ****** ****** ****** ******
      ****** ****** ****** ****** ****** ****** ****** ****** ****** ******
  23  ****** ****** ****** ****** ****** ****** ****** ****** ****** ******
      ****** ****** ****** ****** ****** ****** ****** ****** ****** ******
      ****** ****** ****** ****** ****** ****** ****** ****** ****** ******
  24  ****** ****** ****** ****** ****** ****** ****** ****** ****** ******
      ****** ****** ****** ****** ****** ****** ****** ****** ****** ******
      ****** ****** ****** ****** ****** ****** ****** ****** ****** ******
  25  ****** ****** ****** ****** ****** ****** ****** ****** ****** ******
      ****** ****** ****** ****** ****** ****** ****** ****** ****** ******
      ****** ****** ****** ****** ****** ****** ****** ****** ****** ******

 HEAD WILL BE SAVED ON UNIT   51 AT END OF TIME STEP    1, STRESS PERIOD   10
1
  VOLUMETRIC BUDGET FOR ENTIRE MODEL AT END OF TIME STEP    1, STRESS PERIOD  10
  ------------------------------------------------------------------------------

     CUMULATIVE VOLUMES      L**3       RATES FOR THIS TIME STEP      L**3/T
     ------------------                 ------------------------

           IN:                                      IN:
           ---                                      ---
             STORAGE =    34101213.9691               STORAGE =           0.0000
       CONSTANT HEAD =    25410483.9664         CONSTANT HEAD =       31482.4978
               WELLS =           0.0000                 WELLS =           0.0000
            RECHARGE =    23901600.0000              RECHARGE =       55200.0000
      STREAM LEAKAGE =    10546837.4578        STREAM LEAKAGE =       12238.4591

            TOTAL IN =    93960135.3933              TOTAL IN =       98920.9569

          OUT:                                     OUT:
          ----                                     ----
             STORAGE =     2372460.6118               STORAGE =       15731.3479
       CONSTANT HEAD =           0.0000         CONSTANT HEAD =           0.0000
               WELLS =    35124309.3314                 WELLS =       38471.3136
            RECHARGE =           0.0000              RECHARGE =           0.0000
      STREAM LEAKAGE =    56463366.9687        STREAM LEAKAGE =       44718.2914

           TOTAL OUT =    93960136.9119             TOTAL OUT =       98920.9530

            IN - OUT =          -1.5185              IN - OUT =       3.9465E-03

 PERCENT DISCREPANCY =          -0.00     PERCENT DISCREPANCY =           0.00






         TIME SUMMARY AT END OF TIME STEP    1 IN STRESS PERIOD   10
                    SECONDS     MINUTES      HOURS       DAYS        YEARS
                    -----------------------------------------------------------
   TIME STEP LENGTH 7.86240E+06 1.31040E+05  2184.0      91.000     0.24914    
 STRESS PERIOD TIME 7.86240E+06 1.31040E+05  2184.0      91.000     0.24914    
         TOTAL TIME 7.88832E+07 1.31472E+06  21912.      913.00      2.4997    
1
1
                            STRESS PERIOD NO.   11, LENGTH =   91.00000    
                            -----------------------------------------------

                              NUMBER OF TIME STEPS =     1

                               MULTIPLIER FOR DELT =     1.500

                            INITIAL TIME STEP SIZE =   91.00000    

 WELL NO.  LAYER   ROW   COL   STRESS RATE         
 --------------------------------------------------
      1      1      6     22      -8915.    
      2      1     16     17      -8329.    
      3      1      8     28      -7077.    
      4      1     15     19     -0.1415E+05

      4 WELLS

                 RECHARGE =   0.00000    

 REUSING STREAM SEGMENT DATA FROM LAST STRESS PERIOD
 
 SOLVING FOR HEAD 


     7 CALLS TO PCG ROUTINE FOR TIME STEP   1 IN STRESS PERIOD   11
    26 TOTAL ITERATIONS

 OUTPUT CONTROL FOR STRESS PERIOD   11   TIME STEP    1
    SAVE BUDGET
    SAVE HEAD FOR ALL LAYERS
    PRINT HEAD FOR ALL LAYERS
 UBDSV2 SAVING "STREAMFLOW OUT  " ON UNIT  50 AT TIME STEP  1, STRESS PERIOD  11



 STREAM LISTING     PERIOD     11   STEP        1

 LAYER ROW COL. STREAM  RCH.  FLOW INTO     FLOW TO   FLOW OUT OF   OVRLND.     DIRECT     STREAM       STREAM     STREAM     STREAM   STREAMBED  STREAMBED
                SEG.NO.  NO.  STRM. RCH.    AQUIFER    STRM. RCH.    RUNOFF     PRECIP       ET          HEAD       DEPTH      WIDTH   CONDCTNC.   GRADIENT

   1   13    1     1     1    1.0000E+05 -1.5170E+03   1.0152E+05  0.000E+00  0.000E+00  0.000E+00  4.84067E+01  1.453E-01  2.000E+01  2.000E+04 -7.585E-02
   1   13    2     1     2    1.0152E+05 -2.4450E+03   1.0396E+05  0.000E+00  0.000E+00  0.000E+00  4.79311E+01  1.470E-01  2.000E+01  2.000E+04 -1.223E-01
   1   14    3     1     3    1.0396E+05 -3.5673E+02   1.0432E+05  0.000E+00  0.000E+00  0.000E+00  4.74550E+01  1.482E-01  2.000E+01  2.000E+04 -1.784E-02
   1   15    4     1     4    1.0432E+05 -3.2564E+02   1.0464E+05  0.000E+00  0.000E+00  0.000E+00  4.69781E+01  1.485E-01  2.000E+01  2.000E+04 -1.628E-02
   1   16    5     1     5    1.0464E+05 -1.3043E+03   1.0595E+05  0.000E+00  0.000E+00  0.000E+00  4.65015E+01  1.492E-01  2.000E+01  2.000E+04 -6.522E-02
   1   16    6     1     6    1.0595E+05 -8.1894E+02   1.0677E+05  0.000E+00  0.000E+00  0.000E+00  4.60251E+01  1.501E-01  2.000E+01  2.000E+04 -4.095E-02
   1   16    7     1     7    1.0677E+05 -7.9170E+02   1.0756E+05  0.000E+00  0.000E+00  0.000E+00  4.55485E+01  1.508E-01  2.000E+01  2.000E+04 -3.958E-02
   1   16    8     1     8    1.0756E+05 -7.6642E+02   1.0833E+05  0.000E+00  0.000E+00  0.000E+00  4.50719E+01  1.514E-01  2.000E+01  2.000E+04 -3.832E-02
   1   16    9     1     9    1.0833E+05 -7.2502E+02   1.0905E+05  0.000E+00  0.000E+00  0.000E+00  4.45952E+01  1.521E-01  2.000E+01  2.000E+04 -3.625E-02
   1   16   10     1    10    1.0905E+05 -6.5890E+02   1.0971E+05  0.000E+00  0.000E+00  0.000E+00  4.41186E+01  1.526E-01  2.000E+01  2.000E+04 -3.295E-02
   1   16   11     1    11    1.0971E+05 -5.5529E+02   1.1026E+05  0.000E+00  0.000E+00  0.000E+00  4.36418E+01  1.532E-01  2.000E+01  2.000E+04 -2.776E-02
   1   16   12     1    12    1.1026E+05 -4.8600E+02   1.1075E+05  0.000E+00  0.000E+00  0.000E+00  4.31650E+01  1.536E-01  2.000E+01  2.000E+04 -2.430E-02
   1   15   13     1    13    1.1075E+05 -8.2182E+01   1.1083E+05  0.000E+00  0.000E+00  0.000E+00  4.26879E+01  1.538E-01  2.000E+01  2.000E+04 -4.109E-03
   1   14   14     1    14    1.1083E+05  9.0943E+00   1.1082E+05  0.000E+00  0.000E+00  0.000E+00  4.22107E+01  1.539E-01  2.000E+01  2.000E+04  4.547E-04
   1   13   15     1    15    1.1082E+05 -2.1689E+02   1.1104E+05  0.000E+00  0.000E+00  0.000E+00  4.17335E+01  1.539E-01  2.000E+01  2.000E+04 -1.084E-02
   1   12   16     1    16    1.1104E+05 -1.4493E+03   1.1249E+05  0.000E+00  0.000E+00  0.000E+00  4.12569E+01  1.546E-01  2.000E+01  2.000E+04 -7.247E-02
   1   12   17     1    17    1.1249E+05 -1.8932E+02   1.1268E+05  0.000E+00  0.000E+00  0.000E+00  4.07803E+01  1.553E-01  2.000E+01  2.000E+04 -9.466E-03
   1   12   18     1    18    1.1268E+05  1.6422E+02   1.1252E+05  0.000E+00  0.000E+00  0.000E+00  4.03031E+01  1.553E-01  2.000E+01  2.000E+04  8.211E-03
   1   12   19     1    19    1.1252E+05 -1.6015E+02   1.1268E+05  0.000E+00  0.000E+00  0.000E+00  3.98258E+01  1.553E-01  2.000E+01  2.000E+04 -8.008E-03
   1   13   20     1    20    1.1268E+05  1.8666E+03   1.1081E+05  0.000E+00  0.000E+00  0.000E+00  3.93478E+01  1.546E-01  2.000E+01  2.000E+04  9.333E-02
   1   14   21     1    21    1.1081E+05  2.4088E+03   1.0840E+05  0.000E+00  0.000E+00  0.000E+00  3.88687E+01  1.528E-01  2.000E+01  2.000E+04  1.204E-01
   1   14   22     1    22    1.0840E+05  5.4130E+03   1.0299E+05  0.000E+00  0.000E+00  0.000E+00  3.83882E+01  1.495E-01  2.000E+01  2.000E+04  2.706E-01
   1    9   30     2     1    5.0000E+04  5.2466E+02   4.9475E+04  0.000E+00  0.000E+00  0.000E+00  4.02405E+01  1.155E-01  2.000E+01  2.000E+04  2.623E-02
   1    9   29     2     2    4.9475E+04  7.0613E+02   4.8769E+04  0.000E+00  0.000E+00  0.000E+00  3.99896E+01  1.146E-01  2.000E+01  2.000E+04  3.531E-02
   1    9   28     2     3    4.8769E+04  1.9594E+03   4.6810E+04  0.000E+00  0.000E+00  0.000E+00  3.97378E+01  1.128E-01  2.000E+01  2.000E+04  9.797E-02
   1    9   27     2     4    4.6810E+04  2.8125E+01   4.6782E+04  0.000E+00  0.000E+00  0.000E+00  3.94864E+01  1.114E-01  2.000E+01  2.000E+04  1.406E-03
   1   10   26     2     5    4.6782E+04 -3.0978E+02   4.7091E+04  0.000E+00  0.000E+00  0.000E+00  3.92366E+01  1.116E-01  2.000E+01  2.000E+04 -1.549E-02
   1   11   25     2     6    4.7091E+04 -4.0084E+02   4.7492E+04  0.000E+00  0.000E+00  0.000E+00  3.89871E+01  1.121E-01  2.000E+01  2.000E+04 -2.004E-02
   1   12   24     2     7    4.7492E+04 -6.3457E+02   4.8127E+04  0.000E+00  0.000E+00  0.000E+00  3.87378E+01  1.128E-01  2.000E+01  2.000E+04 -3.173E-02
   1   13   23     2     8    4.8127E+04 -8.6848E+01   4.8214E+04  0.000E+00  0.000E+00  0.000E+00  3.84883E+01  1.133E-01  2.000E+01  2.000E+04 -4.342E-03
   1   14   22     2     9    4.8214E+04  2.3830E+03   4.5831E+04  0.000E+00  0.000E+00  0.000E+00  3.82367E+01  1.117E-01  2.000E+01  2.000E+04  1.191E-01
   1   14   22     3     1    1.4882E+05 -8.1423E+03   1.5696E+05  0.000E+00  0.000E+00  0.000E+00  3.77104E+01  1.549E-01  2.000E+01  2.000E+04 -4.071E-01
   1   15   23     3     2    1.5696E+05 -9.7634E+01   1.5706E+05  0.000E+00  0.000E+00  0.000E+00  3.68240E+01  1.573E-01  2.000E+01  2.000E+04 -4.882E-03
   1   15   24     3     3    1.5706E+05 -1.4024E+02   1.5720E+05  0.000E+00  0.000E+00  0.000E+00  3.59352E+01  1.574E-01  2.000E+01  2.000E+04 -7.012E-03
   1   15   25     3     4    1.5720E+05 -1.6329E+02   1.5736E+05  0.000E+00  0.000E+00  0.000E+00  3.50464E+01  1.575E-01  2.000E+01  2.000E+04 -8.164E-03
   1   15   26     3     5    1.5736E+05 -2.3101E+02   1.5759E+05  0.000E+00  0.000E+00  0.000E+00  3.41576E+01  1.576E-01  2.000E+01  2.000E+04 -1.155E-02
   1   16   27     3     6    1.5759E+05 -2.3586E+02   1.5783E+05  0.000E+00  0.000E+00  0.000E+00  3.32689E+01  1.578E-01  2.000E+01  2.000E+04 -1.179E-02
   1   17   28     3     7    1.5783E+05 -1.1826E+03   1.5901E+05  0.000E+00  0.000E+00  0.000E+00  3.23804E+01  1.582E-01  2.000E+01  2.000E+04 -5.913E-02
   1   18   29     3     8    1.5901E+05 -2.3748E+03   1.6139E+05  0.000E+00  0.000E+00  0.000E+00  3.14926E+01  1.593E-01  2.000E+01  2.000E+04 -1.187E-01
   1   18   30     3     9    1.6139E+05 -2.8172E+03   1.6420E+05  0.000E+00  0.000E+00  0.000E+00  3.06052E+01  1.608E-01  2.000E+01  2.000E+04 -1.409E-01



1
              HEAD IN LAYER   1 AT END OF TIME STEP   1 IN STRESS PERIOD   11
  ---------------------------------------------------------------------------

          1      2      3      4      5      6      7      8      9     10
         11     12     13     14     15     16     17     18     19     20
         21     22     23     24     25     26     27     28     29     30
 .........................................................................
   1  ****** ****** ****** ****** ****** ****** ****** ****** ****** ******
      ****** ****** ****** ****** ****** ****** ****** ****** ****** ******
      ****** ****** ****** ****** ****** ****** ****** ****** ****** ******
   2  ****** ****** ****** ****** ****** ****** ****** ****** ****** ******
      ****** ****** ****** ****** ****** ****** ****** ****** ****** ******
      ****** ****** ****** ****** ****** ****** ****** ****** ****** ******
   3  ****** ****** ****** ****** ****** ****** ****** ****** ****** ******
      ****** ****** ****** ****** ****** ****** ****** ****** ****** ******
      ****** ****** ****** ****** ****** ****** ****** ****** ****** ******
   4  ****** ****** ****** ****** ****** ****** ****** ****** ****** ******
      ****** ****** ****** ****** ****** ****** ****** ****** ****** ******
      ****** ****** ****** ****** ****** ****** ****** ****** ****** ******
   5  ****** ****** ****** ****** ****** ****** ****** ****** ****** ******
      ****** ****** ****** ****** ****** ****** ****** ****** ****** ******
      ****** ****** ****** ****** ****** ****** ****** ****** ****** ******
   6  ****** ****** ****** ****** ****** ****** ****** ****** ****** ******
      ****** ****** ****** ****** ****** ****** ****** ****** ****** ******
      ****** ****** ****** ****** ****** ****** ****** ****** ****** ******
   7  ****** ****** ****** ****** ****** ****** ****** ****** ****** ******
      ****** ****** ****** ****** ****** ****** ****** ****** ****** ******
      ****** ****** ****** ****** ****** ****** ****** ****** ****** ******
   8  ****** ****** ****** ****** ****** ****** ****** ****** ****** ******
      ****** ****** ****** ****** ****** ****** ****** ****** ****** ******
      ****** ****** ****** ****** ****** ****** ****** ****** ****** ******
   9  ****** ****** ****** ****** ****** ****** ****** ****** ****** ******
      ****** ****** ****** ****** ****** ****** ****** ****** ****** ******
      ****** ****** ****** ****** ****** ****** ****** ****** ****** ******
  10  ****** ****** ****** ****** ****** ****** ****** ****** ****** ******
      ****** ****** ****** ****** ****** ****** ****** ****** ****** ******
      ****** ****** ****** ****** ****** ****** ****** ****** ****** ******
  11  ****** ****** ****** ****** ****** ****** ****** ****** ****** ******
      ****** ****** ****** ****** ****** ****** ****** ****** ****** ******
      ****** ****** ****** ****** ****** ****** ****** ****** ****** ******
  12  ****** ****** ****** ****** ****** ****** ****** ****** ****** ******
      ****** ****** ****** ****** ****** ****** ****** ****** ****** ******
      ****** ****** ****** ****** ****** ****** ****** ****** ****** ******
  13  ****** ****** ****** ****** ****** ****** ****** ****** ****** ******
      ****** ****** ****** ****** ****** ****** ****** ****** ****** ******
      ****** ****** ****** ****** ****** ****** ****** ****** ****** ******
  14  ****** ****** ****** ****** ****** ****** ****** ****** ****** ******
      ****** ****** ****** ****** ****** ****** ****** ****** ****** ******
      ****** ****** ****** ****** ****** ****** ****** ****** ****** ******
  15  ****** ****** ****** ****** ****** ****** ****** ****** ****** ******
      ****** ****** ****** ****** ****** ****** ****** ****** ****** ******
      ****** ****** ****** ****** ****** ****** ****** ****** ****** ******
  16  ****** ****** ****** ****** ****** ****** ****** ****** ****** ******
      ****** ****** ****** ****** ****** ****** ****** ****** ****** ******
      ****** ****** ****** ****** ****** ****** ****** ****** ****** ******
  17  ****** ****** ****** ****** ****** ****** ****** ****** ****** ******
      ****** ****** ****** ****** ****** ****** ****** ****** ****** ******
      ****** ****** ****** ****** ****** ****** ****** ****** ****** ******
  18  ****** ****** ****** ****** ****** ****** ****** ****** ****** ******
      ****** ****** ****** ****** ****** ****** ****** ****** ****** ******
      ****** ****** ****** ****** ****** ****** ****** ****** ****** ******
  19  ****** ****** ****** ****** ****** ****** ****** ****** ****** ******
      ****** ****** ****** ****** ****** ****** ****** ****** ****** ******
      ****** ****** ****** ****** ****** ****** ****** ****** ****** ******
  20  ****** ****** ****** ****** ****** ****** ****** ****** ****** ******
      ****** ****** ****** ****** ****** ****** ****** ****** ****** ******
      ****** ****** ****** ****** ****** ****** ****** ****** ****** ******
  21  ****** ****** ****** ****** ****** ****** ****** ****** ****** ******
      ****** ****** ****** ****** ****** ****** ****** ****** ****** ******
      ****** ****** ****** ****** ****** ****** ****** ****** ****** ******
  22  ****** ****** ****** ****** ****** ****** ****** ****** ****** ******
      ****** ****** ****** ****** ****** ****** ****** ****** ****** ******
      ****** ****** ****** ****** ****** ****** ****** ****** ****** ******
  23  ****** ****** ****** ****** ****** ****** ****** ****** ****** ******
      ****** ****** ****** ****** ****** ****** ****** ****** ****** ******
      ****** ****** ****** ****** ****** ****** ****** ****** ****** ******
  24  ****** ****** ****** ****** ****** ****** ****** ****** ****** ******
      ****** ****** ****** ****** ****** ****** ****** ****** ****** ******
      ****** ****** ****** ****** ****** ****** ****** ****** ****** ******
  25  ****** ****** ****** ****** ****** ****** ****** ****** ****** ******
      ****** ****** ****** ****** ****** ****** ****** ****** ****** ******
      ****** ****** ****** ****** ****** ****** ****** ****** ****** ******

 HEAD WILL BE SAVED ON UNIT   51 AT END OF TIME STEP    1, STRESS PERIOD   11
1
  VOLUMETRIC BUDGET FOR ENTIRE MODEL AT END OF TIME STEP    1, STRESS PERIOD  11
  ------------------------------------------------------------------------------

     CUMULATIVE VOLUMES      L**3       RATES FOR THIS TIME STEP      L**3/T
     ------------------                 ------------------------

           IN:                                      IN:
           ---                                      ---
             STORAGE =    35730910.8851               STORAGE =       17908.7573
       CONSTANT HEAD =    28574133.9963         CONSTANT HEAD =       34765.3849
               WELLS =           0.0000                 WELLS =           0.0000
            RECHARGE =    23901600.0000              RECHARGE =           0.0000
      STREAM LEAKAGE =    11953970.8395        STREAM LEAKAGE =       15463.0042

            TOTAL IN =   100160615.7208              TOTAL IN =       68137.1465

          OUT:                                     OUT:
          ----                                     ----
             STORAGE =     2372460.6118               STORAGE =           0.0000
       CONSTANT HEAD =           0.0000         CONSTANT HEAD =           0.0000
               WELLS =    38625198.8704                 WELLS =       38471.3136
            RECHARGE =           0.0000              RECHARGE =           0.0000
      STREAM LEAKAGE =    59162958.2101        STREAM LEAKAGE =       29665.8378

           TOTAL OUT =   100160617.6923             TOTAL OUT =       68137.1514

            IN - OUT =          -1.9715              IN - OUT =      -4.9773E-03

 PERCENT DISCREPANCY =          -0.00     PERCENT DISCREPANCY =          -0.00






         TIME SUMMARY AT END OF TIME STEP    1 IN STRESS PERIOD   11
                    SECONDS     MINUTES      HOURS       DAYS        YEARS
                    -----------------------------------------------------------
   TIME STEP LENGTH 7.86240E+06 1.31040E+05  2184.0      91.000     0.24914    
 STRESS PERIOD TIME 7.86240E+06 1.31040E+05  2184.0      91.000     0.24914    
         TOTAL TIME 8.67456E+07 1.44576E+06  24096.      1004.0      2.7488    
1
1
                            STRESS PERIOD NO.   12, LENGTH =   91.00000    
                            -----------------------------------------------

                              NUMBER OF TIME STEPS =     1

                               MULTIPLIER FOR DELT =     1.500

                            INITIAL TIME STEP SIZE =   91.00000    

 WELL NO.  LAYER   ROW   COL   STRESS RATE         
 --------------------------------------------------
      1      1      6     22      -8915.    
      2      1     16     17      -8329.    
      3      1      8     28      -7077.    
      4      1     15     19     -0.1415E+05

      4 WELLS

                 RECHARGE =  1.000000E-03

 REUSING STREAM SEGMENT DATA FROM LAST STRESS PERIOD
 
 SOLVING FOR HEAD 


     6 CALLS TO PCG ROUTINE FOR TIME STEP   1 IN STRESS PERIOD   12
    23 TOTAL ITERATIONS

 OUTPUT CONTROL FOR STRESS PERIOD   12   TIME STEP    1
    SAVE BUDGET
    SAVE HEAD FOR ALL LAYERS
    PRINT HEAD FOR ALL LAYERS
 UBDSV2 SAVING "STREAMFLOW OUT  " ON UNIT  50 AT TIME STEP  1, STRESS PERIOD  12



 STREAM LISTING     PERIOD     12   STEP        1

 LAYER ROW COL. STREAM  RCH.  FLOW INTO     FLOW TO   FLOW OUT OF   OVRLND.     DIRECT     STREAM       STREAM     STREAM     STREAM   STREAMBED  STREAMBED
                SEG.NO.  NO.  STRM. RCH.    AQUIFER    STRM. RCH.    RUNOFF     PRECIP       ET          HEAD       DEPTH      WIDTH   CONDCTNC.   GRADIENT

   1   13    1     1     1    1.0000E+05 -1.6619E+03   1.0166E+05  0.000E+00  0.000E+00  0.000E+00  4.84067E+01  1.454E-01  2.000E+01  2.000E+04 -8.309E-02
   1   13    2     1     2    1.0166E+05 -2.6009E+03   1.0426E+05  0.000E+00  0.000E+00  0.000E+00  4.79313E+01  1.472E-01  2.000E+01  2.000E+04 -1.300E-01
   1   14    3     1     3    1.0426E+05 -4.3541E+02   1.0470E+05  0.000E+00  0.000E+00  0.000E+00  4.74553E+01  1.485E-01  2.000E+01  2.000E+04 -2.177E-02
   1   15    4     1     4    1.0470E+05 -4.0810E+02   1.0511E+05  0.000E+00  0.000E+00  0.000E+00  4.69784E+01  1.489E-01  2.000E+01  2.000E+04 -2.041E-02
   1   16    5     1     5    1.0511E+05 -1.5141E+03   1.0662E+05  0.000E+00  0.000E+00  0.000E+00  4.65020E+01  1.497E-01  2.000E+01  2.000E+04 -7.571E-02
   1   16    6     1     6    1.0662E+05 -9.4947E+02   1.0757E+05  0.000E+00  0.000E+00  0.000E+00  4.60257E+01  1.507E-01  2.000E+01  2.000E+04 -4.747E-02
   1   16    7     1     7    1.0757E+05 -9.1715E+02   1.0849E+05  0.000E+00  0.000E+00  0.000E+00  4.55492E+01  1.515E-01  2.000E+01  2.000E+04 -4.586E-02
   1   16    8     1     8    1.0849E+05 -8.9083E+02   1.0938E+05  0.000E+00  0.000E+00  0.000E+00  4.50727E+01  1.523E-01  2.000E+01  2.000E+04 -4.454E-02
   1   16    9     1     9    1.0938E+05 -8.4983E+02   1.1023E+05  0.000E+00  0.000E+00  0.000E+00  4.45962E+01  1.530E-01  2.000E+01  2.000E+04 -4.249E-02
   1   16   10     1    10    1.1023E+05 -7.8501E+02   1.1101E+05  0.000E+00  0.000E+00  0.000E+00  4.41196E+01  1.537E-01  2.000E+01  2.000E+04 -3.925E-02
   1   16   11     1    11    1.1101E+05 -6.8357E+02   1.1170E+05  0.000E+00  0.000E+00  0.000E+00  4.36429E+01  1.543E-01  2.000E+01  2.000E+04 -3.418E-02
   1   16   12     1    12    1.1170E+05 -6.8767E+02   1.1238E+05  0.000E+00  0.000E+00  0.000E+00  4.31662E+01  1.549E-01  2.000E+01  2.000E+04 -3.438E-02
   1   15   13     1    13    1.1238E+05 -2.9932E+02   1.1268E+05  0.000E+00  0.000E+00  0.000E+00  4.26894E+01  1.553E-01  2.000E+01  2.000E+04 -1.497E-02
   1   14   14     1    14    1.1268E+05 -2.0875E+02   1.1289E+05  0.000E+00  0.000E+00  0.000E+00  4.22123E+01  1.555E-01  2.000E+01  2.000E+04 -1.044E-02
   1   13   15     1    15    1.1289E+05 -4.2755E+02   1.1332E+05  0.000E+00  0.000E+00  0.000E+00  4.17353E+01  1.557E-01  2.000E+01  2.000E+04 -2.138E-02
   1   12   16     1    16    1.1332E+05 -1.6337E+03   1.1495E+05  0.000E+00  0.000E+00  0.000E+00  4.12589E+01  1.566E-01  2.000E+01  2.000E+04 -8.169E-02
   1   12   17     1    17    1.1495E+05 -3.4322E+02   1.1530E+05  0.000E+00  0.000E+00  0.000E+00  4.07824E+01  1.574E-01  2.000E+01  2.000E+04 -1.716E-02
   1   12   18     1    18    1.1530E+05  8.2350E+00   1.1529E+05  0.000E+00  0.000E+00  0.000E+00  4.03053E+01  1.575E-01  2.000E+01  2.000E+04  4.117E-04
   1   12   19     1    19    1.1529E+05 -3.5300E+02   1.1564E+05  0.000E+00  0.000E+00  0.000E+00  3.98281E+01  1.577E-01  2.000E+01  2.000E+04 -1.765E-02
   1   13   20     1    20    1.1564E+05  1.6562E+03   1.1399E+05  0.000E+00  0.000E+00  0.000E+00  3.93503E+01  1.572E-01  2.000E+01  2.000E+04  8.281E-02
   1   14   21     1    21    1.1399E+05  2.2148E+03   1.1177E+05  0.000E+00  0.000E+00  0.000E+00  3.88715E+01  1.556E-01  2.000E+01  2.000E+04  1.107E-01
   1   14   22     1    22    1.1177E+05  5.3599E+03   1.0641E+05  0.000E+00  0.000E+00  0.000E+00  3.83910E+01  1.524E-01  2.000E+01  2.000E+04  2.680E-01
   1    9   30     2     1    5.0000E+04  3.4818E+02   4.9652E+04  0.000E+00  0.000E+00  0.000E+00  4.02406E+01  1.156E-01  2.000E+01  2.000E+04  1.741E-02
   1    9   29     2     2    4.9652E+04  5.3169E+02   4.9120E+04  0.000E+00  0.000E+00  0.000E+00  3.99900E+01  1.150E-01  2.000E+01  2.000E+04  2.658E-02
   1    9   28     2     3    4.9120E+04  1.7885E+03   4.7332E+04  0.000E+00  0.000E+00  0.000E+00  3.97384E+01  1.134E-01  2.000E+01  2.000E+04  8.942E-02
   1    9   27     2     4    4.7332E+04 -1.8119E+02   4.7513E+04  0.000E+00  0.000E+00  0.000E+00  3.94872E+01  1.122E-01  2.000E+01  2.000E+04 -9.059E-03
   1   10   26     2     5    4.7513E+04 -5.3974E+02   4.8053E+04  0.000E+00  0.000E+00  0.000E+00  3.92378E+01  1.128E-01  2.000E+01  2.000E+04 -2.699E-02
   1   11   25     2     6    4.8053E+04 -6.2690E+02   4.8679E+04  0.000E+00  0.000E+00  0.000E+00  3.89886E+01  1.136E-01  2.000E+01  2.000E+04 -3.134E-02
   1   12   24     2     7    4.8679E+04 -8.4091E+02   4.9520E+04  0.000E+00  0.000E+00  0.000E+00  3.87396E+01  1.146E-01  2.000E+01  2.000E+04 -4.205E-02
   1   13   23     2     8    4.9520E+04 -1.6450E+02   4.9685E+04  0.000E+00  0.000E+00  0.000E+00  3.84903E+01  1.153E-01  2.000E+01  2.000E+04 -8.225E-03
   1   14   22     2     9    4.9685E+04  2.3152E+03   4.7370E+04  0.000E+00  0.000E+00  0.000E+00  3.82388E+01  1.138E-01  2.000E+01  2.000E+04  1.158E-01
   1   14   22     3     1    1.5378E+05 -8.1925E+03   1.6197E+05  0.000E+00  0.000E+00  0.000E+00  3.77134E+01  1.579E-01  2.000E+01  2.000E+04 -4.096E-01
   1   15   23     3     2    1.6197E+05 -1.6962E+02   1.6214E+05  0.000E+00  0.000E+00  0.000E+00  3.68270E+01  1.604E-01  2.000E+01  2.000E+04 -8.481E-03
   1   15   24     3     3    1.6214E+05 -2.0530E+02   1.6235E+05  0.000E+00  0.000E+00  0.000E+00  3.59383E+01  1.605E-01  2.000E+01  2.000E+04 -1.026E-02
   1   15   25     3     4    1.6235E+05 -2.2962E+02   1.6258E+05  0.000E+00  0.000E+00  0.000E+00  3.50495E+01  1.606E-01  2.000E+01  2.000E+04 -1.148E-02
   1   15   26     3     5    1.6258E+05 -3.0847E+02   1.6289E+05  0.000E+00  0.000E+00  0.000E+00  3.41608E+01  1.608E-01  2.000E+01  2.000E+04 -1.542E-02
   1   16   27     3     6    1.6289E+05 -3.2261E+02   1.6321E+05  0.000E+00  0.000E+00  0.000E+00  3.32721E+01  1.609E-01  2.000E+01  2.000E+04 -1.613E-02
   1   17   28     3     7    1.6321E+05 -1.4032E+03   1.6461E+05  0.000E+00  0.000E+00  0.000E+00  3.23837E+01  1.615E-01  2.000E+01  2.000E+04 -7.016E-02
   1   18   29     3     8    1.6461E+05 -2.5753E+03   1.6719E+05  0.000E+00  0.000E+00  0.000E+00  3.14960E+01  1.626E-01  2.000E+01  2.000E+04 -1.288E-01
   1   18   30     3     9    1.6719E+05 -2.9853E+03   1.7017E+05  0.000E+00  0.000E+00  0.000E+00  3.06087E+01  1.643E-01  2.000E+01  2.000E+04 -1.493E-01



1
              HEAD IN LAYER   1 AT END OF TIME STEP   1 IN STRESS PERIOD   12
  ---------------------------------------------------------------------------

          1      2      3      4      5      6      7      8      9     10
         11     12     13     14     15     16     17     18     19     20
         21     22     23     24     25     26     27     28     29     30
 .........................................................................
   1  ****** ****** ****** ****** ****** ****** ****** ****** ****** ******
      ****** ****** ****** ****** ****** ****** ****** ****** ****** ******
      ****** ****** ****** ****** ****** ****** ****** ****** ****** ******
   2  ****** ****** ****** ****** ****** ****** ****** ****** ****** ******
      ****** ****** ****** ****** ****** ****** ****** ****** ****** ******
      ****** ****** ****** ****** ****** ****** ****** ****** ****** ******
   3  ****** ****** ****** ****** ****** ****** ****** ****** ****** ******
      ****** ****** ****** ****** ****** ****** ****** ****** ****** ******
      ****** ****** ****** ****** ****** ****** ****** ****** ****** ******
   4  ****** ****** ****** ****** ****** ****** ****** ****** ****** ******
      ****** ****** ****** ****** ****** ****** ****** ****** ****** ******
      ****** ****** ****** ****** ****** ****** ****** ****** ****** ******
   5  ****** ****** ****** ****** ****** ****** ****** ****** ****** ******
      ****** ****** ****** ****** ****** ****** ****** ****** ****** ******
      ****** ****** ****** ****** ****** ****** ****** ****** ****** ******
   6  ****** ****** ****** ****** ****** ****** ****** ****** ****** ******
      ****** ****** ****** ****** ****** ****** ****** ****** ****** ******
      ****** ****** ****** ****** ****** ****** ****** ****** ****** ******
   7  ****** ****** ****** ****** ****** ****** ****** ****** ****** ******
      ****** ****** ****** ****** ****** ****** ****** ****** ****** ******
      ****** ****** ****** ****** ****** ****** ****** ****** ****** ******
   8  ****** ****** ****** ****** ****** ****** ****** ****** ****** ******
      ****** ****** ****** ****** ****** ****** ****** ****** ****** ******
      ****** ****** ****** ****** ****** ****** ****** ****** ****** ******
   9  ****** ****** ****** ****** ****** ****** ****** ****** ****** ******
      ****** ****** ****** ****** ****** ****** ****** ****** ****** ******
      ****** ****** ****** ****** ****** ****** ****** ****** ****** ******
  10  ****** ****** ****** ****** ****** ****** ****** ****** ****** ******
      ****** ****** ****** ****** ****** ****** ****** ****** ****** ******
      ****** ****** ****** ****** ****** ****** ****** ****** ****** ******
  11  ****** ****** ****** ****** ****** ****** ****** ****** ****** ******
      ****** ****** ****** ****** ****** ****** ****** ****** ****** ******
      ****** ****** ****** ****** ****** ****** ****** ****** ****** ******
  12  ****** ****** ****** ****** ****** ****** ****** ****** ****** ******
      ****** ****** ****** ****** ****** ****** ****** ****** ****** ******
      ****** ****** ****** ****** ****** ****** ****** ****** ****** ******
  13  ****** ****** ****** ****** ****** ****** ****** ****** ****** ******
      ****** ****** ****** ****** ****** ****** ****** ****** ****** ******
      ****** ****** ****** ****** ****** ****** ****** ****** ****** ******
  14  ****** ****** ****** ****** ****** ****** ****** ****** ****** ******
      ****** ****** ****** ****** ****** ****** ****** ****** ****** ******
      ****** ****** ****** ****** ****** ****** ****** ****** ****** ******
  15  ****** ****** ****** ****** ****** ****** ****** ****** ****** ******
      ****** ****** ****** ****** ****** ****** ****** ****** ****** ******
      ****** ****** ****** ****** ****** ****** ****** ****** ****** ******
  16  ****** ****** ****** ****** ****** ****** ****** ****** ****** ******
      ****** ****** ****** ****** ****** ****** ****** ****** ****** ******
      ****** ****** ****** ****** ****** ****** ****** ****** ****** ******
  17  ****** ****** ****** ****** ****** ****** ****** ****** ****** ******
      ****** ****** ****** ****** ****** ****** ****** ****** ****** ******
      ****** ****** ****** ****** ****** ****** ****** ****** ****** ******
  18  ****** ****** ****** ****** ****** ****** ****** ****** ****** ******
      ****** ****** ****** ****** ****** ****** ****** ****** ****** ******
      ****** ****** ****** ****** ****** ****** ****** ****** ****** ******
  19  ****** ****** ****** ****** ****** ****** ****** ****** ****** ******
      ****** ****** ****** ****** ****** ****** ****** ****** ****** ******
      ****** ****** ****** ****** ****** ****** ****** ****** ****** ******
  20  ****** ****** ****** ****** ****** ****** ****** ****** ****** ******
      ****** ****** ****** ****** ****** ****** ****** ****** ****** ******
      ****** ****** ****** ****** ****** ****** ****** ****** ****** ******
  21  ****** ****** ****** ****** ****** ****** ****** ****** ****** ******
      ****** ****** ****** ****** ****** ****** ****** ****** ****** ******
      ****** ****** ****** ****** ****** ****** ****** ****** ****** ******
  22  ****** ****** ****** ****** ****** ****** ****** ****** ****** ******
      ****** ****** ****** ****** ****** ****** ****** ****** ****** ******
      ****** ****** ****** ****** ****** ****** ****** ****** ****** ******
  23  ****** ****** ****** ****** ****** ****** ****** ****** ****** ******
      ****** ****** ****** ****** ****** ****** ****** ****** ****** ******
      ****** ****** ****** ****** ****** ****** ****** ****** ****** ******
  24  ****** ****** ****** ****** ****** ****** ****** ****** ****** ******
      ****** ****** ****** ****** ****** ****** ****** ****** ****** ******
      ****** ****** ****** ****** ****** ****** ****** ****** ****** ******
  25  ****** ****** ****** ****** ****** ****** ****** ****** ****** ******
      ****** ****** ****** ****** ****** ****** ****** ****** ****** ******
      ****** ****** ****** ****** ****** ****** ****** ****** ****** ******

 HEAD WILL BE SAVED ON UNIT   51 AT END OF TIME STEP    1, STRESS PERIOD   12
1
  VOLUMETRIC BUDGET FOR ENTIRE MODEL AT END OF TIME STEP    1, STRESS PERIOD  12
  ------------------------------------------------------------------------------

     CUMULATIVE VOLUMES      L**3       RATES FOR THIS TIME STEP      L**3/T
     ------------------                 ------------------------

           IN:                                      IN:
           ---                                      ---
             STORAGE =    35731676.7211               STORAGE =           8.4158
       CONSTANT HEAD =    31674230.2067         CONSTANT HEAD =       34066.9913
               WELLS =           0.0000                 WELLS =           0.0000
            RECHARGE =    26413200.0000              RECHARGE =       27600.0000
      STREAM LEAKAGE =    13248227.8215        STREAM LEAKAGE =       14222.6042

            TOTAL IN =   107067334.7492              TOTAL IN =       75898.0113

          OUT:                                     OUT:
          ----                                     ----
             STORAGE =     2648378.6362               STORAGE =        3032.0662
       CONSTANT HEAD =           0.0000         CONSTANT HEAD =           0.0000
               WELLS =    42126088.4095                 WELLS =       38471.3136
            RECHARGE =           0.0000              RECHARGE =           0.0000
      STREAM LEAKAGE =    62292869.6157        STREAM LEAKAGE =       34394.6308

           TOTAL OUT =   107067336.6614             TOTAL OUT =       75898.0106

            IN - OUT =          -1.9122              IN - OUT =       6.5158E-04

 PERCENT DISCREPANCY =          -0.00     PERCENT DISCREPANCY =           0.00






         TIME SUMMARY AT END OF TIME STEP    1 IN STRESS PERIOD   12
                    SECONDS     MINUTES      HOURS       DAYS        YEARS
                    -----------------------------------------------------------
   TIME STEP LENGTH 7.86240E+06 1.31040E+05  2184.0      91.000     0.24914    
 STRESS PERIOD TIME 7.86240E+06 1.31040E+05  2184.0      91.000     0.24914    
         TOTAL TIME 9.46080E+07 1.57680E+06  26280.      1095.0      2.9979    
1

 Run end date and time (yyyy/mm/dd hh:mm:ss): 2018/10/11 13:16:49
 Elapsed run time:  0.063 Seconds

