                                  MODFLOW-2005     
      U.S. GEOLOGICAL SURVEY MODULAR FINITE-DIFFERENCE GROUND-WATER FLOW MODEL
                            VERSION 1.11.00 8/8/2013

 LIST FILE: supply2.lst
                         UNIT   10

 OPENING ..\data\supply.dis
 FILE TYPE:DIS   UNIT   11   STATUS:OLD    
 FORMAT:FORMATTED              ACCESS:SEQUENTIAL          

 OPENING ..\data\supply.ba6
 FILE TYPE:BAS6   UNIT   12   STATUS:OLD    
 FORMAT:FORMATTED              ACCESS:SEQUENTIAL          

 OPENING ..\data\supply_het.bc6
 FILE TYPE:BCF6   UNIT   13   STATUS:OLD    
 FORMAT:FORMATTED              ACCESS:SEQUENTIAL          

 OPENING ..\data\supply.rch
 FILE TYPE:RCH   UNIT   15   STATUS:OLD    
 FORMAT:FORMATTED              ACCESS:SEQUENTIAL          

 OPENING ..\data\supply2.sfr
 FILE TYPE:SFR   UNIT   16   STATUS:OLD    
 FORMAT:FORMATTED              ACCESS:SEQUENTIAL          

 OPENING ..\data\supply.oc
 FILE TYPE:OC   UNIT   17   STATUS:OLD    
 FORMAT:FORMATTED              ACCESS:SEQUENTIAL          

 OPENING ..\data\supply.pcg
 FILE TYPE:PCG   UNIT   18   STATUS:OLD    
 FORMAT:FORMATTED              ACCESS:SEQUENTIAL          

 OPENING supply2.wel
 FILE TYPE:WEL   UNIT   19   STATUS:OLD    
 FORMAT:FORMATTED              ACCESS:SEQUENTIAL          

 OPENING supply2sf.cbc
 FILE TYPE:DATA(BINARY)   UNIT   50   STATUS:UNKNOWN
 FORMAT:BINARY                 ACCESS:SEQUENTIAL          

 OPENING supply2hd.bhd
 FILE TYPE:DATA(BINARY)   UNIT   51   STATUS:UNKNOWN
 FORMAT:BINARY                 ACCESS:SEQUENTIAL          

 BAS -- BASIC PACKAGE, VERSION 7, 5/2/2005 INPUT READ FROM UNIT   12
 
 MODFLOW was compiled using uniform precision
 Precision of REAL and DOUBLE PRECISION variables:          15

 DISCRETIZATION INPUT DATA READ FROM UNIT   11
    1 LAYERS        25 ROWS        30 COLUMNS
   12 STRESS PERIOD(S) IN SIMULATION
 MODEL TIME UNIT IS DAYS
 MODEL LENGTH UNIT IS UNDEFINED
  Confining bed flag for each layer:
   0

                     DELR =   200.000    

                     DELC =   200.000    

 TOP ELEVATION OF LAYER 1 =  100.0000    

   MODEL LAYER BOTTOM EL. =   0.00000     FOR LAYER   1


 STRESS PERIOD     LENGTH       TIME STEPS     MULTIPLIER FOR DELT    SS FLAG
 ----------------------------------------------------------------------------
        1         92.00000          1                    1.500         TR
        2         91.00000          1                    1.500         TR
        3         91.00000          1                    1.500         TR
        4         91.00000          1                    1.500         TR
        5         92.00000          1                    1.500         TR
        6         91.00000          1                    1.500         TR
        7         91.00000          1                    1.500         TR
        8         91.00000          1                    1.500         TR
        9         92.00000          1                    1.500         TR
       10         91.00000          1                    1.500         TR
       11         91.00000          1                    1.500         TR
       12         91.00000          1                    1.500         TR

 TRANSIENT SIMULATION



 
 #MODOFC transient water supply sample problem                                   
 #                                                                               
 THE FREE FORMAT OPTION HAS BEEN SELECTED



                     BOUNDARY ARRAY FOR LAYER   1
 READING ON UNIT   12 WITH FORMAT: (20I4)              

 AQUIFER HEAD WILL BE SET TO   0.0000     AT ALL NO-FLOW NODES (IBOUND=0).



                       INITIAL HEAD FOR LAYER   1
 READING ON UNIT   12 WITH FORMAT: (10F13.0)           

 OUTPUT CONTROL IS SPECIFIED ONLY AT TIME STEPS FOR WHICH OUTPUT IS DESIRED
 COMPACT CELL-BY-CELL BUDGET FILES WILL BE WRITTEN
 HEAD PRINT FORMAT CODE IS  18    DRAWDOWN PRINT FORMAT CODE IS   0
 HEADS WILL BE SAVED ON UNIT   51    DRAWDOWNS WILL BE SAVED ON UNIT    0

 BCF -- BLOCK-CENTERED FLOW PACKAGE, VERSION 7, 5/2/2005
         INPUT READ FROM UNIT 13
 TRANSIENT SIMULATION
 HEAD AT CELLS THAT CONVERT TO DRY=   0.0000    
 WETTING CAPABILITY IS NOT ACTIVE
      LAYER  LAYER-TYPE CODE     INTERBLOCK T
      --------------------------------------------
         1            0          0 -- HARMONIC    

 COLUMN TO ROW ANISOTROPY =  1.000000    

     PRIMARY STORAGE COEF =  5.000000E-02 FOR LAYER   1



               TRANSMIS. ALONG ROWS FOR LAYER   1
 READING ON UNIT   13 WITH FORMAT: (FREE)              

 WEL -- WELL PACKAGE, VERSION 7, 5/2/2005 INPUT READ FROM UNIT   19
 # Well package input file written by MMProc
 No named parameters
 MAXIMUM OF      4 ACTIVE WELLS AT ONE TIME


     0 Well parameters

 RCH -- RECHARGE PACKAGE, VERSION 7, 5/2/2005 INPUT READ FROM UNIT   15
 No named parameters
 OPTION 1 -- RECHARGE TO TOP LAYER


     0 Recharge parameters

 SFR7 -- STREAMFLOW ROUTING PACKAGE, VERSION 1.0.7, 2013-01-15
         INPUT READ FROM UNIT  16
 #  Supply2 test problem for GWM-VI
 #  The eighth entry in the first data line is ISTCB2 -
 #    Setting this to a negative number indicates that
 #    streamflows out of the reach will be saved to a
 #    binary file.  The absolute value of ISTCB2 is the
 #    unit to which unformatted flows will be written.
 #
 No named parameters
 Segment information will not be 
 read by reach
 No named parameters
 No specifed inflow files


 NUMBER OF STREAM REACHES IS   40

 NUMBER OF STREAM SEGMENTS IS    3

 NUMBER OF STREAM PARAMETERS IS    0

 NUMBER OF STREAM SEGMENTS DEFINED USING PARAMETERS IS              0

 MAXIMUM ERROR FOR STREAM LEAKAGE RATES IS  1.00E-04

 CONSTANT FOR MANNINGS EQUATION IS  1.2839E+05





   STREAM NETWORK DESCRIPTION: 

   LAYER    ROW    COL   SEGMENT   REACH     LENGTH
                          NUMBER   NUMBER    IN CELL        
   --------------------------------------------------
      1     13      1       1        1    2.0000E+02
      1     13      2       1        2    2.0000E+02
      1     14      3       1        3    2.0000E+02
      1     15      4       1        4    2.0000E+02
      1     16      5       1        5    2.0000E+02
      1     16      6       1        6    2.0000E+02
      1     16      7       1        7    2.0000E+02
      1     16      8       1        8    2.0000E+02
      1     16      9       1        9    2.0000E+02
      1     16     10       1       10    2.0000E+02
      1     16     11       1       11    2.0000E+02
      1     16     12       1       12    2.0000E+02
      1     15     13       1       13    2.0000E+02
      1     14     14       1       14    2.0000E+02
      1     13     15       1       15    2.0000E+02
      1     12     16       1       16    2.0000E+02
      1     12     17       1       17    2.0000E+02
      1     12     18       1       18    2.0000E+02
      1     12     19       1       19    2.0000E+02
      1     13     20       1       20    2.0000E+02
      1     14     21       1       21    2.0000E+02
      1     14     22       1       22    2.0000E+02
      1      9     30       2        1    2.0000E+02
      1      9     29       2        2    2.0000E+02
      1      9     28       2        3    2.0000E+02
      1      9     27       2        4    2.0000E+02
      1     10     26       2        5    2.0000E+02
      1     11     25       2        6    2.0000E+02
      1     12     24       2        7    2.0000E+02
      1     13     23       2        8    2.0000E+02
      1     14     22       2        9    2.0000E+02
      1     14     22       3        1    2.0000E+02
      1     15     23       3        2    2.0000E+02
      1     15     24       3        3    2.0000E+02
      1     15     25       3        4    2.0000E+02
      1     15     26       3        5    2.0000E+02
      1     16     27       3        6    2.0000E+02
      1     17     28       3        7    2.0000E+02
      1     18     29       3        8    2.0000E+02
      1     18     30       3        9    2.0000E+02




 PCG -- CONJUGATE-GRADIENT SOLUTION PACKAGE, VERSION 7, 5/2/2005
 MAXIMUM OF    500 CALLS OF SOLUTION ROUTINE
 MAXIMUM OF      5 INTERNAL ITERATIONS PER CALL TO SOLUTION ROUTINE
 MATRIX PRECONDITIONING TYPE :    1



                                    SOLUTION BY THE CONJUGATE-GRADIENT METHOD
                                   -------------------------------------------
                    MAXIMUM NUMBER OF CALLS TO PCG ROUTINE =      500
                        MAXIMUM ITERATIONS PER CALL TO PCG =        5
                               MATRIX PRECONDITIONING TYPE =        1
        RELAXATION FACTOR (ONLY USED WITH PRECOND. TYPE 1) =    0.10000E+01
 PARAMETER OF POLYNOMIAL PRECOND. = 2 (2) OR IS CALCULATED :        0
                         HEAD CHANGE CRITERION FOR CLOSURE =    0.10000E-05
                     RESIDUAL CHANGE CRITERION FOR CLOSURE =    0.10000E+01
            PCG HEAD AND RESIDUAL CHANGE PRINTOUT INTERVAL =        1
     PRINTING FROM SOLVER IS LIMITED(1) OR SUPPRESSED (>1) =        1
                            STEADY-STATE DAMPING PARAMETER =    0.10000E+01
                               TRANSIENT DAMPING PARAMETER =    0.10000E+01
1
                            STRESS PERIOD NO.    1, LENGTH =   92.00000    
                            -----------------------------------------------

                              NUMBER OF TIME STEPS =     1

                               MULTIPLIER FOR DELT =     1.500

                            INITIAL TIME STEP SIZE =   92.00000    

 WELL NO.  LAYER   ROW   COL   STRESS RATE         
 --------------------------------------------------
      1      1      6     15      -8201.    
      2      1     13     17     -0.1353E+05
      3      1      5      8      -7262.    
      4      1      3     21      -1929.    

      4 WELLS

                 RECHARGE =  5.000000E-04



 CLASSIFICATION & COUNT OF STREAM SEGMENTS BASED ON SOURCE OF INFLOW:

                HEADWATER     DIVERSION     RECEIVES TRIBUTARY FLOW
                ---------     ---------     -----------------------
                     2              0               1



                    INPUT DATA FOR EACH STREAM SEGMENT
 ---------------------------------------------------------------------------------------------

 SEGMENT    SEG.     INFLOW   OVERLAND   STREAM    STREAM   ICALC  OUTFLOW  DIVERSION PRIORITY
    NO.    LENGTH     RATE     RUNOFF      ET       PPT.    METH.  TO SEG.  FROM SEG.    NO.

      1  4.400E+03 1.000E+05 0.000E+00 0.000E+00 0.000E+00    1        3        0        0
      2  1.800E+03 5.000E+04 0.000E+00 0.000E+00 0.000E+00    1        3        0        0
      3  1.800E+03 0.000E+00 0.000E+00 0.000E+00 0.000E+00    1        0        0        0


         STREAMBED PROPERTIES AND STREAM DIMENSIONS

 SEGMENT     BED HYD. COND.      BED THICKNESS     ELEV.-TOP OF BED     WIDTH OF STREAM     DEPTH OF STREAM    STREAM ROUGHNESS
    No.     UPPER     LOWER     UPPER     LOWER     UPPER     LOWER     UPPER     LOWER     UPPER     LOWER   CHANNEL      BANK

     1  5.000E+00 5.000E+00 1.000E+00 1.000E+00 4.850E+01 3.800E+01 2.000E+01 2.000E+01                     5.000E-02
     2  5.000E+00 5.000E+00 1.000E+00 1.000E+00 4.025E+01 3.800E+01 2.000E+01 2.000E+01                     5.000E-02
     3  5.000E+00 5.000E+00 1.000E+00 1.000E+00 3.800E+01 3.000E+01 2.000E+01 2.000E+01                     5.000E-02



 
 SOLVING FOR HEAD 


     9 CALLS TO PCG ROUTINE FOR TIME STEP   1 IN STRESS PERIOD    1
    36 TOTAL ITERATIONS

 OUTPUT CONTROL FOR STRESS PERIOD    1   TIME STEP    1
    SAVE BUDGET
    SAVE HEAD FOR ALL LAYERS
    PRINT HEAD FOR ALL LAYERS
 UBDSV2 SAVING "STREAMFLOW OUT  " ON UNIT  50 AT TIME STEP  1, STRESS PERIOD   1



 STREAM LISTING     PERIOD      1   STEP        1

 LAYER ROW COL. STREAM  RCH.  FLOW INTO     FLOW TO   FLOW OUT OF   OVRLND.     DIRECT     STREAM       STREAM     STREAM     STREAM   STREAMBED  STREAMBED
                SEG.NO.  NO.  STRM. RCH.    AQUIFER    STRM. RCH.    RUNOFF     PRECIP       ET          HEAD       DEPTH      WIDTH   CONDCTNC.   GRADIENT

   1   13    1     1     1    1.0000E+05 -6.0113E+03   1.0601E+05  0.000E+00  0.000E+00  0.000E+00  4.84086E+01  1.472E-01  2.000E+01  2.000E+04 -3.006E-01
   1   13    2     1     2    1.0601E+05 -7.4768E+03   1.1349E+05  0.000E+00  0.000E+00  0.000E+00  4.79370E+01  1.530E-01  2.000E+01  2.000E+04 -3.738E-01
   1   14    3     1     3    1.1349E+05 -2.1938E+03   1.1568E+05  0.000E+00  0.000E+00  0.000E+00  4.74638E+01  1.570E-01  2.000E+01  2.000E+04 -1.097E-01
   1   15    4     1     4    1.1568E+05 -2.2678E+03   1.1795E+05  0.000E+00  0.000E+00  0.000E+00  4.69883E+01  1.588E-01  2.000E+01  2.000E+04 -1.134E-01
   1   16    5     1     5    1.1795E+05 -7.1825E+03   1.2513E+05  0.000E+00  0.000E+00  0.000E+00  4.65149E+01  1.626E-01  2.000E+01  2.000E+04 -3.591E-01
   1   16    6     1     6    1.2513E+05 -4.3007E+03   1.2943E+05  0.000E+00  0.000E+00  0.000E+00  4.60422E+01  1.672E-01  2.000E+01  2.000E+04 -2.150E-01
   1   16    7     1     7    1.2943E+05 -4.1347E+03   1.3357E+05  0.000E+00  0.000E+00  0.000E+00  4.55682E+01  1.705E-01  2.000E+01  2.000E+04 -2.067E-01
   1   16    8     1     8    1.3357E+05 -4.0925E+03   1.3766E+05  0.000E+00  0.000E+00  0.000E+00  4.50941E+01  1.737E-01  2.000E+01  2.000E+04 -2.046E-01
   1   16    9     1     9    1.3766E+05 -4.0794E+03   1.4174E+05  0.000E+00  0.000E+00  0.000E+00  4.46200E+01  1.768E-01  2.000E+01  2.000E+04 -2.040E-01
   1   16   10     1    10    1.4174E+05 -4.0722E+03   1.4581E+05  0.000E+00  0.000E+00  0.000E+00  4.41458E+01  1.799E-01  2.000E+01  2.000E+04 -2.036E-01
   1   16   11     1    11    1.4581E+05 -4.0967E+03   1.4991E+05  0.000E+00  0.000E+00  0.000E+00  4.36715E+01  1.829E-01  2.000E+01  2.000E+04 -2.048E-01
   1   16   12     1    12    1.4991E+05 -6.8777E+03   1.5679E+05  0.000E+00  0.000E+00  0.000E+00  4.31983E+01  1.870E-01  2.000E+01  2.000E+04 -3.439E-01
   1   15   13     1    13    1.5679E+05 -7.0230E+03   1.6381E+05  0.000E+00  0.000E+00  0.000E+00  4.27261E+01  1.920E-01  2.000E+01  2.000E+04 -3.511E-01
   1   14   14     1    14    1.6381E+05 -7.1269E+03   1.7094E+05  0.000E+00  0.000E+00  0.000E+00  4.22538E+01  1.970E-01  2.000E+01  2.000E+04 -3.563E-01
   1   13   15     1    15    1.7094E+05 -6.1712E+03   1.7711E+05  0.000E+00  0.000E+00  0.000E+00  4.17812E+01  2.017E-01  2.000E+01  2.000E+04 -3.086E-01
   1   12   16     1    16    1.7711E+05 -6.8721E+03   1.8398E+05  0.000E+00  0.000E+00  0.000E+00  4.13085E+01  2.062E-01  2.000E+01  2.000E+04 -3.436E-01
   1   12   17     1    17    1.8398E+05 -1.7134E+03   1.8569E+05  0.000E+00  0.000E+00  0.000E+00  4.08341E+01  2.091E-01  2.000E+01  2.000E+04 -8.567E-02
   1   12   18     1    18    1.8569E+05 -4.3324E+03   1.9003E+05  0.000E+00  0.000E+00  0.000E+00  4.03589E+01  2.112E-01  2.000E+01  2.000E+04 -2.166E-01
   1   12   19     1    19    1.9003E+05 -6.9293E+03   1.9695E+05  0.000E+00  0.000E+00  0.000E+00  3.98854E+01  2.149E-01  2.000E+01  2.000E+04 -3.465E-01
   1   13   20     1    20    1.9695E+05 -6.0278E+03   2.0298E+05  0.000E+00  0.000E+00  0.000E+00  3.94124E+01  2.192E-01  2.000E+01  2.000E+04 -3.014E-01
   1   14   21     1    21    2.0298E+05 -6.0692E+03   2.0905E+05  0.000E+00  0.000E+00  0.000E+00  3.89391E+01  2.232E-01  2.000E+01  2.000E+04 -3.035E-01
   1   14   22     1    22    2.0905E+05  3.6097E+03   2.0544E+05  0.000E+00  0.000E+00  0.000E+00  3.84626E+01  2.240E-01  2.000E+01  2.000E+04  1.805E-01
   1    9   30     2     1    5.0000E+04 -4.8325E+03   5.4833E+04  0.000E+00  0.000E+00  0.000E+00  4.02442E+01  1.192E-01  2.000E+01  2.000E+04 -2.416E-01
   1    9   29     2     2    5.4833E+04 -5.1240E+03   5.9957E+04  0.000E+00  0.000E+00  0.000E+00  4.00009E+01  1.259E-01  2.000E+01  2.000E+04 -2.562E-01
   1    9   28     2     3    5.9957E+04 -5.3990E+03   6.5356E+04  0.000E+00  0.000E+00  0.000E+00  3.97577E+01  1.327E-01  2.000E+01  2.000E+04 -2.699E-01
   1    9   27     2     4    6.5356E+04 -8.1962E+03   7.3552E+04  0.000E+00  0.000E+00  0.000E+00  3.95161E+01  1.411E-01  2.000E+01  2.000E+04 -4.098E-01
   1   10   26     2     5    7.3552E+04 -7.2416E+03   8.0793E+04  0.000E+00  0.000E+00  0.000E+00  3.92753E+01  1.503E-01  2.000E+01  2.000E+04 -3.621E-01
   1   11   25     2     6    8.0793E+04 -6.6989E+03   8.7492E+04  0.000E+00  0.000E+00  0.000E+00  3.90333E+01  1.583E-01  2.000E+01  2.000E+04 -3.349E-01
   1   12   24     2     7    8.7492E+04 -6.2101E+03   9.3702E+04  0.000E+00  0.000E+00  0.000E+00  3.87905E+01  1.655E-01  2.000E+01  2.000E+04 -3.105E-01
   1   13   23     2     8    9.3702E+04 -1.6378E+03   9.5340E+04  0.000E+00  0.000E+00  0.000E+00  3.85448E+01  1.698E-01  2.000E+01  2.000E+04 -8.189E-02
   1   14   22     2     9    9.5340E+04  2.6764E+02   9.5073E+04  0.000E+00  0.000E+00  0.000E+00  3.82955E+01  1.705E-01  2.000E+01  2.000E+04  1.338E-02
   1   14   22     3     1    3.0051E+05 -9.8405E+03   3.1035E+05  0.000E+00  0.000E+00  0.000E+00  3.77901E+01  2.346E-01  2.000E+01  2.000E+04 -4.920E-01
   1   15   23     3     2    3.1035E+05 -1.9673E+03   3.1232E+05  0.000E+00  0.000E+00  0.000E+00  3.69039E+01  2.373E-01  2.000E+01  2.000E+04 -9.837E-02
   1   15   24     3     3    3.1232E+05 -1.5276E+03   3.1385E+05  0.000E+00  0.000E+00  0.000E+00  3.60158E+01  2.381E-01  2.000E+01  2.000E+04 -7.638E-02
   1   15   25     3     4    3.1385E+05 -1.5787E+03   3.1543E+05  0.000E+00  0.000E+00  0.000E+00  3.51277E+01  2.388E-01  2.000E+01  2.000E+04 -7.893E-02
   1   15   26     3     5    3.1543E+05 -1.8828E+03   3.1731E+05  0.000E+00  0.000E+00  0.000E+00  3.42396E+01  2.396E-01  2.000E+01  2.000E+04 -9.414E-02
   1   16   27     3     6    3.1731E+05 -2.1642E+03   3.1948E+05  0.000E+00  0.000E+00  0.000E+00  3.33516E+01  2.405E-01  2.000E+01  2.000E+04 -1.082E-01
   1   17   28     3     7    3.1948E+05 -6.5784E+03   3.2605E+05  0.000E+00  0.000E+00  0.000E+00  3.24647E+01  2.425E-01  2.000E+01  2.000E+04 -3.289E-01
   1   18   29     3     8    3.2605E+05 -7.9889E+03   3.3404E+05  0.000E+00  0.000E+00  0.000E+00  3.15791E+01  2.457E-01  2.000E+01  2.000E+04 -3.994E-01
   1   18   30     3     9    3.3404E+05 -7.1718E+03   3.4121E+05  0.000E+00  0.000E+00  0.000E+00  3.06935E+01  2.491E-01  2.000E+01  2.000E+04 -3.586E-01



1
              HEAD IN LAYER   1 AT END OF TIME STEP   1 IN STRESS PERIOD    1
  ---------------------------------------------------------------------------

          1      2      3      4      5      6      7      8      9     10
         11     12     13     14     15     16     17     18     19     20
         21     22     23     24     25     26     27     28     29     30
 .........................................................................
   1  ****** ****** ****** ****** ****** ****** ****** ****** ****** ******
      ****** ****** ****** ****** ****** ****** ****** ****** ****** ******
      ****** ****** ****** ****** ****** ****** ****** ****** ****** ******
   2  ****** ****** ****** ****** ****** ****** ****** ****** ****** ******
      ****** ****** ****** ****** ****** ****** ****** ****** ****** ******
      ****** ****** ****** ****** ****** ****** ****** ****** ****** ******
   3  ****** ****** ****** ****** ****** ****** ****** ****** ****** ******
      ****** ****** ****** ****** ****** ****** ****** ****** ****** ******
      ****** ****** ****** ****** ****** ****** ****** ****** ****** ******
   4  ****** ****** ****** ****** ****** ****** ****** ****** ****** ******
      ****** ****** ****** ****** ****** ****** ****** ****** ****** ******
      ****** ****** ****** ****** ****** ****** ****** ****** ****** ******
   5  ****** ****** ****** ****** ****** ****** ****** ****** ****** ******
      ****** ****** ****** ****** ****** ****** ****** ****** ****** ******
      ****** ****** ****** ****** ****** ****** ****** ****** ****** ******
   6  ****** ****** ****** ****** ****** ****** ****** ****** ****** ******
      ****** ****** ****** ****** ****** ****** ****** ****** ****** ******
      ****** ****** ****** ****** ****** ****** ****** ****** ****** ******
   7  ****** ****** ****** ****** ****** ****** ****** ****** ****** ******
      ****** ****** ****** ****** ****** ****** ****** ****** ****** ******
      ****** ****** ****** ****** ****** ****** ****** ****** ****** ******
   8  ****** ****** ****** ****** ****** ****** ****** ****** ****** ******
      ****** ****** ****** ****** ****** ****** ****** ****** ****** ******
      ****** ****** ****** ****** ****** ****** ****** ****** ****** ******
   9  ****** ****** ****** ****** ****** ****** ****** ****** ****** ******
      ****** ****** ****** ****** ****** ****** ****** ****** ****** ******
      ****** ****** ****** ****** ****** ****** ****** ****** ****** ******
  10  ****** ****** ****** ****** ****** ****** ****** ****** ****** ******
      ****** ****** ****** ****** ****** ****** ****** ****** ****** ******
      ****** ****** ****** ****** ****** ****** ****** ****** ****** ******
  11  ****** ****** ****** ****** ****** ****** ****** ****** ****** ******
      ****** ****** ****** ****** ****** ****** ****** ****** ****** ******
      ****** ****** ****** ****** ****** ****** ****** ****** ****** ******
  12  ****** ****** ****** ****** ****** ****** ****** ****** ****** ******
      ****** ****** ****** ****** ****** ****** ****** ****** ****** ******
      ****** ****** ****** ****** ****** ****** ****** ****** ****** ******
  13  ****** ****** ****** ****** ****** ****** ****** ****** ****** ******
      ****** ****** ****** ****** ****** ****** ****** ****** ****** ******
      ****** ****** ****** ****** ****** ****** ****** ****** ****** ******
  14  ****** ****** ****** ****** ****** ****** ****** ****** ****** ******
      ****** ****** ****** ****** ****** ****** ****** ****** ****** ******
      ****** ****** ****** ****** ****** ****** ****** ****** ****** ******
  15  ****** ****** ****** ****** ****** ****** ****** ****** ****** ******
      ****** ****** ****** ****** ****** ****** ****** ****** ****** ******
      ****** ****** ****** ****** ****** ****** ****** ****** ****** ******
  16  ****** ****** ****** ****** ****** ****** ****** ****** ****** ******
      ****** ****** ****** ****** ****** ****** ****** ****** ****** ******
      ****** ****** ****** ****** ****** ****** ****** ****** ****** ******
  17  ****** ****** ****** ****** ****** ****** ****** ****** ****** ******
      ****** ****** ****** ****** ****** ****** ****** ****** ****** ******
      ****** ****** ****** ****** ****** ****** ****** ****** ****** ******
  18  ****** ****** ****** ****** ****** ****** ****** ****** ****** ******
      ****** ****** ****** ****** ****** ****** ****** ****** ****** ******
      ****** ****** ****** ****** ****** ****** ****** ****** ****** ******
  19  ****** ****** ****** ****** ****** ****** ****** ****** ****** ******
      ****** ****** ****** ****** ****** ****** ****** ****** ****** ******
      ****** ****** ****** ****** ****** ****** ****** ****** ****** ******
  20  ****** ****** ****** ****** ****** ****** ****** ****** ****** ******
      ****** ****** ****** ****** ****** ****** ****** ****** ****** ******
      ****** ****** ****** ****** ****** ****** ****** ****** ****** ******
  21  ****** ****** ****** ****** ****** ****** ****** ****** ****** ******
      ****** ****** ****** ****** ****** ****** ****** ****** ****** ******
      ****** ****** ****** ****** ****** ****** ****** ****** ****** ******
  22  ****** ****** ****** ****** ****** ****** ****** ****** ****** ******
      ****** ****** ****** ****** ****** ****** ****** ****** ****** ******
      ****** ****** ****** ****** ****** ****** ****** ****** ****** ******
  23  ****** ****** ****** ****** ****** ****** ****** ****** ****** ******
      ****** ****** ****** ****** ****** ****** ****** ****** ****** ******
      ****** ****** ****** ****** ****** ****** ****** ****** ****** ******
  24  ****** ****** ****** ****** ****** ****** ****** ****** ****** ******
      ****** ****** ****** ****** ****** ****** ****** ****** ****** ******
      ****** ****** ****** ****** ****** ****** ****** ****** ****** ******
  25  ****** ****** ****** ****** ****** ****** ****** ****** ****** ******
      ****** ****** ****** ****** ****** ****** ****** ****** ****** ******
      ****** ****** ****** ****** ****** ****** ****** ****** ****** ******

 HEAD WILL BE SAVED ON UNIT   51 AT END OF TIME STEP    1, STRESS PERIOD    1
1
  VOLUMETRIC BUDGET FOR ENTIRE MODEL AT END OF TIME STEP    1, STRESS PERIOD   1
  ------------------------------------------------------------------------------

     CUMULATIVE VOLUMES      L**3       RATES FOR THIS TIME STEP      L**3/T
     ------------------                 ------------------------

           IN:                                      IN:
           ---                                      ---
             STORAGE =    17947740.9337               STORAGE =      195084.1406
       CONSTANT HEAD =     1219403.2346         CONSTANT HEAD =       13254.3830
               WELLS =           0.0000                 WELLS =           0.0000
            RECHARGE =     1269600.0000              RECHARGE =       13800.0000
      STREAM LEAKAGE =      356713.3669        STREAM LEAKAGE =        3877.3192

            TOTAL IN =    20793457.5352              TOTAL IN =      226015.8428

          OUT:                                     OUT:
          ----                                     ----
             STORAGE =           0.0000               STORAGE =           0.0000
       CONSTANT HEAD =           0.0000         CONSTANT HEAD =           0.0000
               WELLS =     2845036.4142                 WELLS =       30924.3089
            RECHARGE =           0.0000              RECHARGE =           0.0000
      STREAM LEAKAGE =    17948421.4111        STREAM LEAKAGE =      195091.5371

           TOTAL OUT =    20793457.8253             TOTAL OUT =      226015.8459

            IN - OUT =          -0.2901              IN - OUT =      -3.1535E-03

 PERCENT DISCREPANCY =          -0.00     PERCENT DISCREPANCY =          -0.00






         TIME SUMMARY AT END OF TIME STEP    1 IN STRESS PERIOD    1
                    SECONDS     MINUTES      HOURS       DAYS        YEARS
                    -----------------------------------------------------------
   TIME STEP LENGTH 7.94880E+06 1.32480E+05  2208.0      92.000     0.25188    
 STRESS PERIOD TIME 7.94880E+06 1.32480E+05  2208.0      92.000     0.25188    
         TOTAL TIME 7.94880E+06 1.32480E+05  2208.0      92.000     0.25188    
1
1
                            STRESS PERIOD NO.    2, LENGTH =   91.00000    
                            -----------------------------------------------

                              NUMBER OF TIME STEPS =     1

                               MULTIPLIER FOR DELT =     1.500

                            INITIAL TIME STEP SIZE =   91.00000    

 WELL NO.  LAYER   ROW   COL   STRESS RATE         
 --------------------------------------------------
      1      1      6     15      -8201.    
      2      1     13     17     -0.1353E+05
      3      1      5      8      -7262.    
      4      1      3     21      -1929.    

      4 WELLS

                 RECHARGE =  2.000000E-03

 REUSING STREAM SEGMENT DATA FROM LAST STRESS PERIOD
 
 SOLVING FOR HEAD 


     7 CALLS TO PCG ROUTINE FOR TIME STEP   1 IN STRESS PERIOD    2
    27 TOTAL ITERATIONS

 OUTPUT CONTROL FOR STRESS PERIOD    2   TIME STEP    1
    SAVE BUDGET
    SAVE HEAD FOR ALL LAYERS
    PRINT HEAD FOR ALL LAYERS
 UBDSV2 SAVING "STREAMFLOW OUT  " ON UNIT  50 AT TIME STEP  1, STRESS PERIOD   2



 STREAM LISTING     PERIOD      2   STEP        1

 LAYER ROW COL. STREAM  RCH.  FLOW INTO     FLOW TO   FLOW OUT OF   OVRLND.     DIRECT     STREAM       STREAM     STREAM     STREAM   STREAMBED  STREAMBED
                SEG.NO.  NO.  STRM. RCH.    AQUIFER    STRM. RCH.    RUNOFF     PRECIP       ET          HEAD       DEPTH      WIDTH   CONDCTNC.   GRADIENT

   1   13    1     1     1    1.0000E+05 -3.7531E+03   1.0375E+05  0.000E+00  0.000E+00  0.000E+00  4.84076E+01  1.463E-01  2.000E+01  2.000E+04 -1.877E-01
   1   13    2     1     2    1.0375E+05 -5.0016E+03   1.0875E+05  0.000E+00  0.000E+00  0.000E+00  4.79341E+01  1.500E-01  2.000E+01  2.000E+04 -2.501E-01
   1   14    3     1     3    1.0875E+05 -1.1016E+03   1.0986E+05  0.000E+00  0.000E+00  0.000E+00  4.74594E+01  1.526E-01  2.000E+01  2.000E+04 -5.508E-02
   1   15    4     1     4    1.0986E+05 -1.1362E+03   1.1099E+05  0.000E+00  0.000E+00  0.000E+00  4.69831E+01  1.535E-01  2.000E+01  2.000E+04 -5.681E-02
   1   16    5     1     5    1.1099E+05 -4.2483E+03   1.1524E+05  0.000E+00  0.000E+00  0.000E+00  4.65080E+01  1.558E-01  2.000E+01  2.000E+04 -2.124E-01
   1   16    6     1     6    1.1524E+05 -2.5008E+03   1.1774E+05  0.000E+00  0.000E+00  0.000E+00  4.60335E+01  1.585E-01  2.000E+01  2.000E+04 -1.250E-01
   1   16    7     1     7    1.1774E+05 -2.4048E+03   1.2015E+05  0.000E+00  0.000E+00  0.000E+00  4.55582E+01  1.605E-01  2.000E+01  2.000E+04 -1.202E-01
   1   16    8     1     8    1.2015E+05 -2.3734E+03   1.2252E+05  0.000E+00  0.000E+00  0.000E+00  4.50829E+01  1.624E-01  2.000E+01  2.000E+04 -1.187E-01
   1   16    9     1     9    1.2252E+05 -2.3492E+03   1.2487E+05  0.000E+00  0.000E+00  0.000E+00  4.46075E+01  1.643E-01  2.000E+01  2.000E+04 -1.175E-01
   1   16   10     1    10    1.2487E+05 -2.3186E+03   1.2719E+05  0.000E+00  0.000E+00  0.000E+00  4.41321E+01  1.662E-01  2.000E+01  2.000E+04 -1.159E-01
   1   16   11     1    11    1.2719E+05 -2.3100E+03   1.2950E+05  0.000E+00  0.000E+00  0.000E+00  4.36567E+01  1.680E-01  2.000E+01  2.000E+04 -1.155E-01
   1   16   12     1    12    1.2950E+05 -3.9466E+03   1.3344E+05  0.000E+00  0.000E+00  0.000E+00  4.31818E+01  1.705E-01  2.000E+01  2.000E+04 -1.973E-01
   1   15   13     1    13    1.3344E+05 -3.6778E+03   1.3712E+05  0.000E+00  0.000E+00  0.000E+00  4.27075E+01  1.734E-01  2.000E+01  2.000E+04 -1.839E-01
   1   14   14     1    14    1.3712E+05 -3.5824E+03   1.4070E+05  0.000E+00  0.000E+00  0.000E+00  4.22330E+01  1.762E-01  2.000E+01  2.000E+04 -1.791E-01
   1   13   15     1    15    1.4070E+05 -2.5287E+03   1.4323E+05  0.000E+00  0.000E+00  0.000E+00  4.17580E+01  1.785E-01  2.000E+01  2.000E+04 -1.264E-01
   1   12   16     1    16    1.4323E+05 -3.3484E+03   1.4658E+05  0.000E+00  0.000E+00  0.000E+00  4.12830E+01  1.807E-01  2.000E+01  2.000E+04 -1.674E-01
   1   12   17     1    17    1.4658E+05  1.0592E+03   1.4552E+05  0.000E+00  0.000E+00  0.000E+00  4.08066E+01  1.816E-01  2.000E+01  2.000E+04  5.296E-02
   1   12   18     1    18    1.4552E+05 -1.6211E+03   1.4714E+05  0.000E+00  0.000E+00  0.000E+00  4.03295E+01  1.818E-01  2.000E+01  2.000E+04 -8.106E-02
   1   12   19     1    19    1.4714E+05 -3.6278E+03   1.5077E+05  0.000E+00  0.000E+00  0.000E+00  3.98542E+01  1.837E-01  2.000E+01  2.000E+04 -1.814E-01
   1   13   20     1    20    1.5077E+05 -2.8083E+03   1.5358E+05  0.000E+00  0.000E+00  0.000E+00  3.93793E+01  1.861E-01  2.000E+01  2.000E+04 -1.404E-01
   1   14   21     1    21    1.5358E+05 -3.2907E+03   1.5687E+05  0.000E+00  0.000E+00  0.000E+00  3.89042E+01  1.883E-01  2.000E+01  2.000E+04 -1.645E-01
   1   14   22     1    22    1.5687E+05  4.3555E+03   1.5251E+05  0.000E+00  0.000E+00  0.000E+00  3.84266E+01  1.879E-01  2.000E+01  2.000E+04  2.178E-01
   1    9   30     2     1    5.0000E+04 -2.0985E+03   5.2099E+04  0.000E+00  0.000E+00  0.000E+00  4.02423E+01  1.173E-01  2.000E+01  2.000E+04 -1.049E-01
   1    9   29     2     2    5.2099E+04 -2.4010E+03   5.4500E+04  0.000E+00  0.000E+00  0.000E+00  3.99954E+01  1.204E-01  2.000E+01  2.000E+04 -1.200E-01
   1    9   28     2     3    5.4500E+04 -2.6864E+03   5.7186E+04  0.000E+00  0.000E+00  0.000E+00  3.97488E+01  1.238E-01  2.000E+01  2.000E+04 -1.343E-01
   1    9   27     2     4    5.7186E+04 -4.6723E+03   6.1858E+04  0.000E+00  0.000E+00  0.000E+00  3.95036E+01  1.286E-01  2.000E+01  2.000E+04 -2.336E-01
   1   10   26     2     5    6.1858E+04 -3.5881E+03   6.5446E+04  0.000E+00  0.000E+00  0.000E+00  3.92589E+01  1.339E-01  2.000E+01  2.000E+04 -1.794E-01
   1   11   25     2     6    6.5446E+04 -3.2044E+03   6.8651E+04  0.000E+00  0.000E+00  0.000E+00  3.90132E+01  1.382E-01  2.000E+01  2.000E+04 -1.602E-01
   1   12   24     2     7    6.8651E+04 -3.0706E+03   7.1721E+04  0.000E+00  0.000E+00  0.000E+00  3.87670E+01  1.420E-01  2.000E+01  2.000E+04 -1.535E-01
   1   13   23     2     8    7.1721E+04 -5.8744E+02   7.2309E+04  0.000E+00  0.000E+00  0.000E+00  3.85192E+01  1.442E-01  2.000E+01  2.000E+04 -2.937E-02
   1   14   22     2     9    7.2309E+04  1.2012E+03   7.1108E+04  0.000E+00  0.000E+00  0.000E+00  3.82689E+01  1.439E-01  2.000E+01  2.000E+04  6.006E-02
   1   14   22     3     1    2.2362E+05 -9.1265E+03   2.3275E+05  0.000E+00  0.000E+00  0.000E+00  3.77525E+01  1.969E-01  2.000E+01  2.000E+04 -4.563E-01
   1   15   23     3     2    2.3275E+05 -1.0230E+03   2.3377E+05  0.000E+00  0.000E+00  0.000E+00  3.68662E+01  1.995E-01  2.000E+01  2.000E+04 -5.115E-02
   1   15   24     3     3    2.3377E+05 -6.6069E+02   2.3443E+05  0.000E+00  0.000E+00  0.000E+00  3.59777E+01  2.000E-01  2.000E+01  2.000E+04 -3.303E-02
   1   15   25     3     4    2.3443E+05 -6.6938E+02   2.3510E+05  0.000E+00  0.000E+00  0.000E+00  3.50892E+01  2.003E-01  2.000E+01  2.000E+04 -3.347E-02
   1   15   26     3     5    2.3510E+05 -7.7241E+02   2.3587E+05  0.000E+00  0.000E+00  0.000E+00  3.42007E+01  2.007E-01  2.000E+01  2.000E+04 -3.862E-02
   1   16   27     3     6    2.3587E+05 -8.9736E+02   2.3677E+05  0.000E+00  0.000E+00  0.000E+00  3.33122E+01  2.011E-01  2.000E+01  2.000E+04 -4.487E-02
   1   17   28     3     7    2.3677E+05 -3.2539E+03   2.4003E+05  0.000E+00  0.000E+00  0.000E+00  3.24244E+01  2.022E-01  2.000E+01  2.000E+04 -1.627E-01
   1   18   29     3     8    2.4003E+05 -5.0432E+03   2.4507E+05  0.000E+00  0.000E+00  0.000E+00  3.15376E+01  2.043E-01  2.000E+01  2.000E+04 -2.522E-01
   1   18   30     3     9    2.4507E+05 -4.6778E+03   2.4975E+05  0.000E+00  0.000E+00  0.000E+00  3.06511E+01  2.067E-01  2.000E+01  2.000E+04 -2.339E-01



1
              HEAD IN LAYER   1 AT END OF TIME STEP   1 IN STRESS PERIOD    2
  ---------------------------------------------------------------------------

          1      2      3      4      5      6      7      8      9     10
         11     12     13     14     15     16     17     18     19     20
         21     22     23     24     25     26     27     28     29     30
 .........................................................................
   1  ****** ****** ****** ****** ****** ****** ****** ****** ****** ******
      ****** ****** ****** ****** ****** ****** ****** ****** ****** ******
      ****** ****** ****** ****** ****** ****** ****** ****** ****** ******
   2  ****** ****** ****** ****** ****** ****** ****** ****** ****** ******
      ****** ****** ****** ****** ****** ****** ****** ****** ****** ******
      ****** ****** ****** ****** ****** ****** ****** ****** ****** ******
   3  ****** ****** ****** ****** ****** ****** ****** ****** ****** ******
      ****** ****** ****** ****** ****** ****** ****** ****** ****** ******
      ****** ****** ****** ****** ****** ****** ****** ****** ****** ******
   4  ****** ****** ****** ****** ****** ****** ****** ****** ****** ******
      ****** ****** ****** ****** ****** ****** ****** ****** ****** ******
      ****** ****** ****** ****** ****** ****** ****** ****** ****** ******
   5  ****** ****** ****** ****** ****** ****** ****** ****** ****** ******
      ****** ****** ****** ****** ****** ****** ****** ****** ****** ******
      ****** ****** ****** ****** ****** ****** ****** ****** ****** ******
   6  ****** ****** ****** ****** ****** ****** ****** ****** ****** ******
      ****** ****** ****** ****** ****** ****** ****** ****** ****** ******
      ****** ****** ****** ****** ****** ****** ****** ****** ****** ******
   7  ****** ****** ****** ****** ****** ****** ****** ****** ****** ******
      ****** ****** ****** ****** ****** ****** ****** ****** ****** ******
      ****** ****** ****** ****** ****** ****** ****** ****** ****** ******
   8  ****** ****** ****** ****** ****** ****** ****** ****** ****** ******
      ****** ****** ****** ****** ****** ****** ****** ****** ****** ******
      ****** ****** ****** ****** ****** ****** ****** ****** ****** ******
   9  ****** ****** ****** ****** ****** ****** ****** ****** ****** ******
      ****** ****** ****** ****** ****** ****** ****** ****** ****** ******
      ****** ****** ****** ****** ****** ****** ****** ****** ****** ******
  10  ****** ****** ****** ****** ****** ****** ****** ****** ****** ******
      ****** ****** ****** ****** ****** ****** ****** ****** ****** ******
      ****** ****** ****** ****** ****** ****** ****** ****** ****** ******
  11  ****** ****** ****** ****** ****** ****** ****** ****** ****** ******
      ****** ****** ****** ****** ****** ****** ****** ****** ****** ******
      ****** ****** ****** ****** ****** ****** ****** ****** ****** ******
  12  ****** ****** ****** ****** ****** ****** ****** ****** ****** ******
      ****** ****** ****** ****** ****** ****** ****** ****** ****** ******
      ****** ****** ****** ****** ****** ****** ****** ****** ****** ******
  13  ****** ****** ****** ****** ****** ****** ****** ****** ****** ******
      ****** ****** ****** ****** ****** ****** ****** ****** ****** ******
      ****** ****** ****** ****** ****** ****** ****** ****** ****** ******
  14  ****** ****** ****** ****** ****** ****** ****** ****** ****** ******
      ****** ****** ****** ****** ****** ****** ****** ****** ****** ******
      ****** ****** ****** ****** ****** ****** ****** ****** ****** ******
  15  ****** ****** ****** ****** ****** ****** ****** ****** ****** ******
      ****** ****** ****** ****** ****** ****** ****** ****** ****** ******
      ****** ****** ****** ****** ****** ****** ****** ****** ****** ******
  16  ****** ****** ****** ****** ****** ****** ****** ****** ****** ******
      ****** ****** ****** ****** ****** ****** ****** ****** ****** ******
      ****** ****** ****** ****** ****** ****** ****** ****** ****** ******
  17  ****** ****** ****** ****** ****** ****** ****** ****** ****** ******
      ****** ****** ****** ****** ****** ****** ****** ****** ****** ******
      ****** ****** ****** ****** ****** ****** ****** ****** ****** ******
  18  ****** ****** ****** ****** ****** ****** ****** ****** ****** ******
      ****** ****** ****** ****** ****** ****** ****** ****** ****** ******
      ****** ****** ****** ****** ****** ****** ****** ****** ****** ******
  19  ****** ****** ****** ****** ****** ****** ****** ****** ****** ******
      ****** ****** ****** ****** ****** ****** ****** ****** ****** ******
      ****** ****** ****** ****** ****** ****** ****** ****** ****** ******
  20  ****** ****** ****** ****** ****** ****** ****** ****** ****** ******
      ****** ****** ****** ****** ****** ****** ****** ****** ****** ******
      ****** ****** ****** ****** ****** ****** ****** ****** ****** ******
  21  ****** ****** ****** ****** ****** ****** ****** ****** ****** ******
      ****** ****** ****** ****** ****** ****** ****** ****** ****** ******
      ****** ****** ****** ****** ****** ****** ****** ****** ****** ******
  22  ****** ****** ****** ****** ****** ****** ****** ****** ****** ******
      ****** ****** ****** ****** ****** ****** ****** ****** ****** ******
      ****** ****** ****** ****** ****** ****** ****** ****** ****** ******
  23  ****** ****** ****** ****** ****** ****** ****** ****** ****** ******
      ****** ****** ****** ****** ****** ****** ****** ****** ****** ******
      ****** ****** ****** ****** ****** ****** ****** ****** ****** ******
  24  ****** ****** ****** ****** ****** ****** ****** ****** ****** ******
      ****** ****** ****** ****** ****** ****** ****** ****** ****** ******
      ****** ****** ****** ****** ****** ****** ****** ****** ****** ******
  25  ****** ****** ****** ****** ****** ****** ****** ****** ****** ******
      ****** ****** ****** ****** ****** ****** ****** ****** ****** ******
      ****** ****** ****** ****** ****** ****** ****** ****** ****** ******

 HEAD WILL BE SAVED ON UNIT   51 AT END OF TIME STEP    1, STRESS PERIOD    2
1
  VOLUMETRIC BUDGET FOR ENTIRE MODEL AT END OF TIME STEP    1, STRESS PERIOD   2
  ------------------------------------------------------------------------------

     CUMULATIVE VOLUMES      L**3       RATES FOR THIS TIME STEP      L**3/T
     ------------------                 ------------------------

           IN:                                      IN:
           ---                                      ---
             STORAGE =    23150243.0509               STORAGE =       57170.3529
       CONSTANT HEAD =     2884702.8977         CONSTANT HEAD =       18299.9963
               WELLS =           0.0000                 WELLS =           0.0000
            RECHARGE =     6292800.0000              RECHARGE =       55200.0000
      STREAM LEAKAGE =      958762.8341        STREAM LEAKAGE =        6615.9282

            TOTAL IN =    33286508.7827              TOTAL IN =      137286.2774

          OUT:                                     OUT:
          ----                                     ----
             STORAGE =           0.0000               STORAGE =           0.0000
       CONSTANT HEAD =           0.0000         CONSTANT HEAD =           0.0000
               WELLS =     5659148.5196                 WELLS =       30924.3089
            RECHARGE =           0.0000              RECHARGE =           0.0000
      STREAM LEAKAGE =    27627361.5149        STREAM LEAKAGE =      106361.9792

           TOTAL OUT =    33286510.0345             TOTAL OUT =      137286.2880

            IN - OUT =          -1.2518              IN - OUT =      -1.0568E-02

 PERCENT DISCREPANCY =          -0.00     PERCENT DISCREPANCY =          -0.00






         TIME SUMMARY AT END OF TIME STEP    1 IN STRESS PERIOD    2
                    SECONDS     MINUTES      HOURS       DAYS        YEARS
                    -----------------------------------------------------------
   TIME STEP LENGTH 7.86240E+06 1.31040E+05  2184.0      91.000     0.24914    
 STRESS PERIOD TIME 7.86240E+06 1.31040E+05  2184.0      91.000     0.24914    
         TOTAL TIME 1.58112E+07 2.63520E+05  4392.0      183.00     0.50103    
1
1
                            STRESS PERIOD NO.    3, LENGTH =   91.00000    
                            -----------------------------------------------

                              NUMBER OF TIME STEPS =     1

                               MULTIPLIER FOR DELT =     1.500

                            INITIAL TIME STEP SIZE =   91.00000    

 WELL NO.  LAYER   ROW   COL   STRESS RATE         
 --------------------------------------------------
      1      1      6     15      -8201.    
      2      1     13     17     -0.1353E+05
      3      1      5      8      -7262.    
      4      1      3     21      -1929.    

      4 WELLS

                 RECHARGE =   0.00000    

 REUSING STREAM SEGMENT DATA FROM LAST STRESS PERIOD
 
 SOLVING FOR HEAD 


     7 CALLS TO PCG ROUTINE FOR TIME STEP   1 IN STRESS PERIOD    3
    27 TOTAL ITERATIONS

 OUTPUT CONTROL FOR STRESS PERIOD    3   TIME STEP    1
    SAVE BUDGET
    SAVE HEAD FOR ALL LAYERS
    PRINT HEAD FOR ALL LAYERS
 UBDSV2 SAVING "STREAMFLOW OUT  " ON UNIT  50 AT TIME STEP  1, STRESS PERIOD   3



 STREAM LISTING     PERIOD      3   STEP        1

 LAYER ROW COL. STREAM  RCH.  FLOW INTO     FLOW TO   FLOW OUT OF   OVRLND.     DIRECT     STREAM       STREAM     STREAM     STREAM   STREAMBED  STREAMBED
                SEG.NO.  NO.  STRM. RCH.    AQUIFER    STRM. RCH.    RUNOFF     PRECIP       ET          HEAD       DEPTH      WIDTH   CONDCTNC.   GRADIENT

   1   13    1     1     1    1.0000E+05 -2.3772E+03   1.0238E+05  0.000E+00  0.000E+00  0.000E+00  4.84070E+01  1.457E-01  2.000E+01  2.000E+04 -1.189E-01
   1   13    2     1     2    1.0238E+05 -3.4606E+03   1.0584E+05  0.000E+00  0.000E+00  0.000E+00  4.79323E+01  1.482E-01  2.000E+01  2.000E+04 -1.730E-01
   1   14    3     1     3    1.0584E+05 -6.2983E+02   1.0647E+05  0.000E+00  0.000E+00  0.000E+00  4.74567E+01  1.499E-01  2.000E+01  2.000E+04 -3.149E-02
   1   15    4     1     4    1.0647E+05 -6.2449E+02   1.0709E+05  0.000E+00  0.000E+00  0.000E+00  4.69800E+01  1.505E-01  2.000E+01  2.000E+04 -3.122E-02
   1   16    5     1     5    1.0709E+05 -2.4519E+03   1.0954E+05  0.000E+00  0.000E+00  0.000E+00  4.65040E+01  1.518E-01  2.000E+01  2.000E+04 -1.226E-01
   1   16    6     1     6    1.0954E+05 -1.4939E+03   1.1104E+05  0.000E+00  0.000E+00  0.000E+00  4.60284E+01  1.534E-01  2.000E+01  2.000E+04 -7.469E-02
   1   16    7     1     7    1.1104E+05 -1.4552E+03   1.1249E+05  0.000E+00  0.000E+00  0.000E+00  4.55524E+01  1.546E-01  2.000E+01  2.000E+04 -7.276E-02
   1   16    8     1     8    1.1249E+05 -1.4415E+03   1.1393E+05  0.000E+00  0.000E+00  0.000E+00  4.50763E+01  1.558E-01  2.000E+01  2.000E+04 -7.207E-02
   1   16    9     1     9    1.1393E+05 -1.4217E+03   1.1536E+05  0.000E+00  0.000E+00  0.000E+00  4.46002E+01  1.570E-01  2.000E+01  2.000E+04 -7.108E-02
   1   16   10     1    10    1.1536E+05 -1.3918E+03   1.1675E+05  0.000E+00  0.000E+00  0.000E+00  4.41241E+01  1.582E-01  2.000E+01  2.000E+04 -6.959E-02
   1   16   11     1    11    1.1675E+05 -1.3777E+03   1.1813E+05  0.000E+00  0.000E+00  0.000E+00  4.36479E+01  1.593E-01  2.000E+01  2.000E+04 -6.889E-02
   1   16   12     1    12    1.1813E+05 -2.3137E+03   1.2044E+05  0.000E+00  0.000E+00  0.000E+00  4.31722E+01  1.608E-01  2.000E+01  2.000E+04 -1.157E-01
   1   15   13     1    13    1.2044E+05 -1.9648E+03   1.2240E+05  0.000E+00  0.000E+00  0.000E+00  4.26966E+01  1.625E-01  2.000E+01  2.000E+04 -9.824E-02
   1   14   14     1    14    1.2240E+05 -1.7849E+03   1.2419E+05  0.000E+00  0.000E+00  0.000E+00  4.22208E+01  1.640E-01  2.000E+01  2.000E+04 -8.925E-02
   1   13   15     1    15    1.2419E+05 -6.8940E+02   1.2488E+05  0.000E+00  0.000E+00  0.000E+00  4.17446E+01  1.650E-01  2.000E+01  2.000E+04 -3.447E-02
   1   12   16     1    16    1.2488E+05 -1.3881E+03   1.2627E+05  0.000E+00  0.000E+00  0.000E+00  4.12681E+01  1.658E-01  2.000E+01  2.000E+04 -6.941E-02
   1   12   17     1    17    1.2627E+05  2.4394E+03   1.2383E+05  0.000E+00  0.000E+00  0.000E+00  4.07904E+01  1.654E-01  2.000E+01  2.000E+04  1.220E-01
   1   12   18     1    18    1.2383E+05 -2.7734E+02   1.2410E+05  0.000E+00  0.000E+00  0.000E+00  4.03123E+01  1.646E-01  2.000E+01  2.000E+04 -1.387E-02
   1   12   19     1    19    1.2410E+05 -1.9495E+03   1.2605E+05  0.000E+00  0.000E+00  0.000E+00  3.98359E+01  1.654E-01  2.000E+01  2.000E+04 -9.747E-02
   1   13   20     1    20    1.2605E+05 -1.3210E+03   1.2738E+05  0.000E+00  0.000E+00  0.000E+00  3.93599E+01  1.667E-01  2.000E+01  2.000E+04 -6.605E-02
   1   14   21     1    21    1.2738E+05 -1.8120E+03   1.2919E+05  0.000E+00  0.000E+00  0.000E+00  3.88839E+01  1.680E-01  2.000E+01  2.000E+04 -9.060E-02
   1   14   22     1    22    1.2919E+05  4.7014E+03   1.2449E+05  0.000E+00  0.000E+00  0.000E+00  3.84055E+01  1.668E-01  2.000E+01  2.000E+04  2.351E-01
   1    9   30     2     1    5.0000E+04 -8.8579E+02   5.0886E+04  0.000E+00  0.000E+00  0.000E+00  4.02415E+01  1.165E-01  2.000E+01  2.000E+04 -4.429E-02
   1    9   29     2     2    5.0886E+04 -1.1880E+03   5.2074E+04  0.000E+00  0.000E+00  0.000E+00  3.99929E+01  1.179E-01  2.000E+01  2.000E+04 -5.940E-02
   1    9   28     2     3    5.2074E+04 -1.4552E+03   5.3529E+04  0.000E+00  0.000E+00  0.000E+00  3.97447E+01  1.197E-01  2.000E+01  2.000E+04 -7.276E-02
   1    9   27     2     4    5.3529E+04 -2.8800E+03   5.6409E+04  0.000E+00  0.000E+00  0.000E+00  3.94976E+01  1.226E-01  2.000E+01  2.000E+04 -1.440E-01
   1   10   26     2     5    5.6409E+04 -1.9175E+03   5.8326E+04  0.000E+00  0.000E+00  0.000E+00  3.92508E+01  1.258E-01  2.000E+01  2.000E+04 -9.588E-02
   1   11   25     2     6    5.8326E+04 -1.6466E+03   5.9973E+04  0.000E+00  0.000E+00  0.000E+00  3.90032E+01  1.282E-01  2.000E+01  2.000E+04 -8.233E-02
   1   12   24     2     7    5.9973E+04 -1.6723E+03   6.1645E+04  0.000E+00  0.000E+00  0.000E+00  3.87553E+01  1.303E-01  2.000E+01  2.000E+04 -8.362E-02
   1   13   23     2     8    6.1645E+04 -2.4481E+02   6.1890E+04  0.000E+00  0.000E+00  0.000E+00  3.85065E+01  1.315E-01  2.000E+01  2.000E+04 -1.224E-02
   1   14   22     2     9    6.1890E+04  1.7040E+03   6.0186E+04  0.000E+00  0.000E+00  0.000E+00  3.82556E+01  1.306E-01  2.000E+01  2.000E+04  8.520E-02
   1   14   22     3     1    1.8467E+05 -8.7788E+03   1.9345E+05  0.000E+00  0.000E+00  0.000E+00  3.77315E+01  1.759E-01  2.000E+01  2.000E+04 -4.389E-01
   1   15   23     3     2    1.9345E+05 -6.3280E+02   1.9408E+05  0.000E+00  0.000E+00  0.000E+00  3.68452E+01  1.785E-01  2.000E+01  2.000E+04 -3.164E-02
   1   15   24     3     3    1.9408E+05 -3.3926E+02   1.9442E+05  0.000E+00  0.000E+00  0.000E+00  3.59566E+01  1.788E-01  2.000E+01  2.000E+04 -1.696E-02
   1   15   25     3     4    1.9442E+05 -3.3134E+02   1.9475E+05  0.000E+00  0.000E+00  0.000E+00  3.50679E+01  1.790E-01  2.000E+01  2.000E+04 -1.657E-02
   1   15   26     3     5    1.9475E+05 -3.6938E+02   1.9512E+05  0.000E+00  0.000E+00  0.000E+00  3.41792E+01  1.792E-01  2.000E+01  2.000E+04 -1.847E-02
   1   16   27     3     6    1.9512E+05 -4.3298E+02   1.9556E+05  0.000E+00  0.000E+00  0.000E+00  3.32905E+01  1.794E-01  2.000E+01  2.000E+04 -2.165E-02
   1   17   28     3     7    1.9556E+05 -1.8458E+03   1.9740E+05  0.000E+00  0.000E+00  0.000E+00  3.24022E+01  1.800E-01  2.000E+01  2.000E+04 -9.229E-02
   1   18   29     3     8    1.9740E+05 -3.5331E+03   2.0094E+05  0.000E+00  0.000E+00  0.000E+00  3.15148E+01  1.815E-01  2.000E+01  2.000E+04 -1.767E-01
   1   18   30     3     9    2.0094E+05 -3.5455E+03   2.0448E+05  0.000E+00  0.000E+00  0.000E+00  3.06279E+01  1.834E-01  2.000E+01  2.000E+04 -1.773E-01



1
              HEAD IN LAYER   1 AT END OF TIME STEP   1 IN STRESS PERIOD    3
  ---------------------------------------------------------------------------

          1      2      3      4      5      6      7      8      9     10
         11     12     13     14     15     16     17     18     19     20
         21     22     23     24     25     26     27     28     29     30
 .........................................................................
   1  ****** ****** ****** ****** ****** ****** ****** ****** ****** ******
      ****** ****** ****** ****** ****** ****** ****** ****** ****** ******
      ****** ****** ****** ****** ****** ****** ****** ****** ****** ******
   2  ****** ****** ****** ****** ****** ****** ****** ****** ****** ******
      ****** ****** ****** ****** ****** ****** ****** ****** ****** ******
      ****** ****** ****** ****** ****** ****** ****** ****** ****** ******
   3  ****** ****** ****** ****** ****** ****** ****** ****** ****** ******
      ****** ****** ****** ****** ****** ****** ****** ****** ****** ******
      ****** ****** ****** ****** ****** ****** ****** ****** ****** ******
   4  ****** ****** ****** ****** ****** ****** ****** ****** ****** ******
      ****** ****** ****** ****** ****** ****** ****** ****** ****** ******
      ****** ****** ****** ****** ****** ****** ****** ****** ****** ******
   5  ****** ****** ****** ****** ****** ****** ****** ****** ****** ******
      ****** ****** ****** ****** ****** ****** ****** ****** ****** ******
      ****** ****** ****** ****** ****** ****** ****** ****** ****** ******
   6  ****** ****** ****** ****** ****** ****** ****** ****** ****** ******
      ****** ****** ****** ****** ****** ****** ****** ****** ****** ******
      ****** ****** ****** ****** ****** ****** ****** ****** ****** ******
   7  ****** ****** ****** ****** ****** ****** ****** ****** ****** ******
      ****** ****** ****** ****** ****** ****** ****** ****** ****** ******
      ****** ****** ****** ****** ****** ****** ****** ****** ****** ******
   8  ****** ****** ****** ****** ****** ****** ****** ****** ****** ******
      ****** ****** ****** ****** ****** ****** ****** ****** ****** ******
      ****** ****** ****** ****** ****** ****** ****** ****** ****** ******
   9  ****** ****** ****** ****** ****** ****** ****** ****** ****** ******
      ****** ****** ****** ****** ****** ****** ****** ****** ****** ******
      ****** ****** ****** ****** ****** ****** ****** ****** ****** ******
  10  ****** ****** ****** ****** ****** ****** ****** ****** ****** ******
      ****** ****** ****** ****** ****** ****** ****** ****** ****** ******
      ****** ****** ****** ****** ****** ****** ****** ****** ****** ******
  11  ****** ****** ****** ****** ****** ****** ****** ****** ****** ******
      ****** ****** ****** ****** ****** ****** ****** ****** ****** ******
      ****** ****** ****** ****** ****** ****** ****** ****** ****** ******
  12  ****** ****** ****** ****** ****** ****** ****** ****** ****** ******
      ****** ****** ****** ****** ****** ****** ****** ****** ****** ******
      ****** ****** ****** ****** ****** ****** ****** ****** ****** ******
  13  ****** ****** ****** ****** ****** ****** ****** ****** ****** ******
      ****** ****** ****** ****** ****** ****** ****** ****** ****** ******
      ****** ****** ****** ****** ****** ****** ****** ****** ****** ******
  14  ****** ****** ****** ****** ****** ****** ****** ****** ****** ******
      ****** ****** ****** ****** ****** ****** ****** ****** ****** ******
      ****** ****** ****** ****** ****** ****** ****** ****** ****** ******
  15  ****** ****** ****** ****** ****** ****** ****** ****** ****** ******
      ****** ****** ****** ****** ****** ****** ****** ****** ****** ******
      ****** ****** ****** ****** ****** ****** ****** ****** ****** ******
  16  ****** ****** ****** ****** ****** ****** ****** ****** ****** ******
      ****** ****** ****** ****** ****** ****** ****** ****** ****** ******
      ****** ****** ****** ****** ****** ****** ****** ****** ****** ******
  17  ****** ****** ****** ****** ****** ****** ****** ****** ****** ******
      ****** ****** ****** ****** ****** ****** ****** ****** ****** ******
      ****** ****** ****** ****** ****** ****** ****** ****** ****** ******
  18  ****** ****** ****** ****** ****** ****** ****** ****** ****** ******
      ****** ****** ****** ****** ****** ****** ****** ****** ****** ******
      ****** ****** ****** ****** ****** ****** ****** ****** ****** ******
  19  ****** ****** ****** ****** ****** ****** ****** ****** ****** ******
      ****** ****** ****** ****** ****** ****** ****** ****** ****** ******
      ****** ****** ****** ****** ****** ****** ****** ****** ****** ******
  20  ****** ****** ****** ****** ****** ****** ****** ****** ****** ******
      ****** ****** ****** ****** ****** ****** ****** ****** ****** ******
      ****** ****** ****** ****** ****** ****** ****** ****** ****** ******
  21  ****** ****** ****** ****** ****** ****** ****** ****** ****** ******
      ****** ****** ****** ****** ****** ****** ****** ****** ****** ******
      ****** ****** ****** ****** ****** ****** ****** ****** ****** ******
  22  ****** ****** ****** ****** ****** ****** ****** ****** ****** ******
      ****** ****** ****** ****** ****** ****** ****** ****** ****** ******
      ****** ****** ****** ****** ****** ****** ****** ****** ****** ******
  23  ****** ****** ****** ****** ****** ****** ****** ****** ****** ******
      ****** ****** ****** ****** ****** ****** ****** ****** ****** ******
      ****** ****** ****** ****** ****** ****** ****** ****** ****** ******
  24  ****** ****** ****** ****** ****** ****** ****** ****** ****** ******
      ****** ****** ****** ****** ****** ****** ****** ****** ****** ******
      ****** ****** ****** ****** ****** ****** ****** ****** ****** ******
  25  ****** ****** ****** ****** ****** ****** ****** ****** ****** ******
      ****** ****** ****** ****** ****** ****** ****** ****** ****** ******
      ****** ****** ****** ****** ****** ****** ****** ****** ****** ******

 HEAD WILL BE SAVED ON UNIT   51 AT END OF TIME STEP    1, STRESS PERIOD    3
1
  VOLUMETRIC BUDGET FOR ENTIRE MODEL AT END OF TIME STEP    1, STRESS PERIOD   3
  ------------------------------------------------------------------------------

     CUMULATIVE VOLUMES      L**3       RATES FOR THIS TIME STEP      L**3/T
     ------------------                 ------------------------

           IN:                                      IN:
           ---                                      ---
             STORAGE =    28443178.6615               STORAGE =       58164.1276
       CONSTANT HEAD =     5363645.4141         CONSTANT HEAD =       27241.1266
               WELLS =           0.0000                 WELLS =           0.0000
            RECHARGE =     6292800.0000              RECHARGE =           0.0000
      STREAM LEAKAGE =     1763641.1437        STREAM LEAKAGE =        8844.8166

            TOTAL IN =    41863265.2193              TOTAL IN =       94250.0707

          OUT:                                     OUT:
          ----                                     ----
             STORAGE =           0.0000               STORAGE =           0.0000
       CONSTANT HEAD =           0.0000         CONSTANT HEAD =           0.0000
               WELLS =     8473260.6250                 WELLS =       30924.3089
            RECHARGE =           0.0000              RECHARGE =           0.0000
      STREAM LEAKAGE =    33390006.5351        STREAM LEAKAGE =       63325.7695

           TOTAL OUT =    41863267.1601             TOTAL OUT =       94250.0783

            IN - OUT =          -1.9408              IN - OUT =      -7.5720E-03

 PERCENT DISCREPANCY =          -0.00     PERCENT DISCREPANCY =          -0.00






         TIME SUMMARY AT END OF TIME STEP    1 IN STRESS PERIOD    3
                    SECONDS     MINUTES      HOURS       DAYS        YEARS
                    -----------------------------------------------------------
   TIME STEP LENGTH 7.86240E+06 1.31040E+05  2184.0      91.000     0.24914    
 STRESS PERIOD TIME 7.86240E+06 1.31040E+05  2184.0      91.000     0.24914    
         TOTAL TIME 2.36736E+07 3.94560E+05  6576.0      274.00     0.75017    
1
1
                            STRESS PERIOD NO.    4, LENGTH =   91.00000    
                            -----------------------------------------------

                              NUMBER OF TIME STEPS =     1

                               MULTIPLIER FOR DELT =     1.500

                            INITIAL TIME STEP SIZE =   91.00000    

 WELL NO.  LAYER   ROW   COL   STRESS RATE         
 --------------------------------------------------
      1      1      6     15      -8201.    
      2      1     13     17     -0.1353E+05
      3      1      5      8      -7262.    
      4      1      3     21      -1929.    

      4 WELLS

                 RECHARGE =  1.000000E-03

 REUSING STREAM SEGMENT DATA FROM LAST STRESS PERIOD
 
 SOLVING FOR HEAD 


     6 CALLS TO PCG ROUTINE FOR TIME STEP   1 IN STRESS PERIOD    4
    23 TOTAL ITERATIONS

 OUTPUT CONTROL FOR STRESS PERIOD    4   TIME STEP    1
    SAVE BUDGET
    SAVE HEAD FOR ALL LAYERS
    PRINT HEAD FOR ALL LAYERS
 UBDSV2 SAVING "STREAMFLOW OUT  " ON UNIT  50 AT TIME STEP  1, STRESS PERIOD   4



 STREAM LISTING     PERIOD      4   STEP        1

 LAYER ROW COL. STREAM  RCH.  FLOW INTO     FLOW TO   FLOW OUT OF   OVRLND.     DIRECT     STREAM       STREAM     STREAM     STREAM   STREAMBED  STREAMBED
                SEG.NO.  NO.  STRM. RCH.    AQUIFER    STRM. RCH.    RUNOFF     PRECIP       ET          HEAD       DEPTH      WIDTH   CONDCTNC.   GRADIENT

   1   13    1     1     1    1.0000E+05 -2.0435E+03   1.0204E+05  0.000E+00  0.000E+00  0.000E+00  4.84069E+01  1.455E-01  2.000E+01  2.000E+04 -1.022E-01
   1   13    2     1     2    1.0204E+05 -3.0773E+03   1.0512E+05  0.000E+00  0.000E+00  0.000E+00  4.79318E+01  1.477E-01  2.000E+01  2.000E+04 -1.539E-01
   1   14    3     1     3    1.0512E+05 -5.9088E+02   1.0571E+05  0.000E+00  0.000E+00  0.000E+00  4.74561E+01  1.493E-01  2.000E+01  2.000E+04 -2.954E-02
   1   15    4     1     4    1.0571E+05 -5.7938E+02   1.0629E+05  0.000E+00  0.000E+00  0.000E+00  4.69793E+01  1.498E-01  2.000E+01  2.000E+04 -2.897E-02
   1   16    5     1     5    1.0629E+05 -2.1497E+03   1.0844E+05  0.000E+00  0.000E+00  0.000E+00  4.65032E+01  1.510E-01  2.000E+01  2.000E+04 -1.075E-01
   1   16    6     1     6    1.0844E+05 -1.3421E+03   1.0978E+05  0.000E+00  0.000E+00  0.000E+00  4.60274E+01  1.524E-01  2.000E+01  2.000E+04 -6.710E-02
   1   16    7     1     7    1.0978E+05 -1.3142E+03   1.1110E+05  0.000E+00  0.000E+00  0.000E+00  4.55513E+01  1.535E-01  2.000E+01  2.000E+04 -6.571E-02
   1   16    8     1     8    1.1110E+05 -1.3049E+03   1.1240E+05  0.000E+00  0.000E+00  0.000E+00  4.50751E+01  1.546E-01  2.000E+01  2.000E+04 -6.524E-02
   1   16    9     1     9    1.1240E+05 -1.2887E+03   1.1369E+05  0.000E+00  0.000E+00  0.000E+00  4.45989E+01  1.557E-01  2.000E+01  2.000E+04 -6.443E-02
   1   16   10     1    10    1.1369E+05 -1.2637E+03   1.1495E+05  0.000E+00  0.000E+00  0.000E+00  4.41227E+01  1.567E-01  2.000E+01  2.000E+04 -6.319E-02
   1   16   11     1    11    1.1495E+05 -1.2519E+03   1.1621E+05  0.000E+00  0.000E+00  0.000E+00  4.36464E+01  1.578E-01  2.000E+01  2.000E+04 -6.260E-02
   1   16   12     1    12    1.1621E+05 -2.0434E+03   1.1825E+05  0.000E+00  0.000E+00  0.000E+00  4.31705E+01  1.591E-01  2.000E+01  2.000E+04 -1.022E-01
   1   15   13     1    13    1.1825E+05 -1.6860E+03   1.1994E+05  0.000E+00  0.000E+00  0.000E+00  4.26947E+01  1.606E-01  2.000E+01  2.000E+04 -8.430E-02
   1   14   14     1    14    1.1994E+05 -1.4613E+03   1.2140E+05  0.000E+00  0.000E+00  0.000E+00  4.22187E+01  1.619E-01  2.000E+01  2.000E+04 -7.307E-02
   1   13   15     1    15    1.2140E+05 -3.1931E+02   1.2172E+05  0.000E+00  0.000E+00  0.000E+00  4.17422E+01  1.626E-01  2.000E+01  2.000E+04 -1.597E-02
   1   12   16     1    16    1.2172E+05 -8.8472E+02   1.2260E+05  0.000E+00  0.000E+00  0.000E+00  4.12654E+01  1.631E-01  2.000E+01  2.000E+04 -4.424E-02
   1   12   17     1    17    1.2260E+05  2.7284E+03   1.1987E+05  0.000E+00  0.000E+00  0.000E+00  4.07874E+01  1.624E-01  2.000E+01  2.000E+04  1.364E-01
   1   12   18     1    18    1.1987E+05 -1.5232E+01   1.1989E+05  0.000E+00  0.000E+00  0.000E+00  4.03090E+01  1.613E-01  2.000E+01  2.000E+04 -7.616E-04
   1   12   19     1    19    1.1989E+05 -1.6258E+03   1.2151E+05  0.000E+00  0.000E+00  0.000E+00  3.98324E+01  1.619E-01  2.000E+01  2.000E+04 -8.129E-02
   1   13   20     1    20    1.2151E+05 -1.1336E+03   1.2265E+05  0.000E+00  0.000E+00  0.000E+00  3.93562E+01  1.630E-01  2.000E+01  2.000E+04 -5.668E-02
   1   14   21     1    21    1.2265E+05 -1.5876E+03   1.2423E+05  0.000E+00  0.000E+00  0.000E+00  3.88800E+01  1.641E-01  2.000E+01  2.000E+04 -7.938E-02
   1   14   22     1    22    1.2423E+05  4.7320E+03   1.1950E+05  0.000E+00  0.000E+00  0.000E+00  3.84015E+01  1.629E-01  2.000E+01  2.000E+04  2.366E-01
   1    9   30     2     1    5.0000E+04 -7.8794E+02   5.0788E+04  0.000E+00  0.000E+00  0.000E+00  4.02414E+01  1.164E-01  2.000E+01  2.000E+04 -3.940E-02
   1    9   29     2     2    5.0788E+04 -1.0818E+03   5.1870E+04  0.000E+00  0.000E+00  0.000E+00  3.99927E+01  1.177E-01  2.000E+01  2.000E+04 -5.409E-02
   1    9   28     2     3    5.1870E+04 -1.3255E+03   5.3195E+04  0.000E+00  0.000E+00  0.000E+00  3.97444E+01  1.194E-01  2.000E+01  2.000E+04 -6.628E-02
   1    9   27     2     4    5.3195E+04 -2.5802E+03   5.5775E+04  0.000E+00  0.000E+00  0.000E+00  3.94970E+01  1.220E-01  2.000E+01  2.000E+04 -1.290E-01
   1   10   26     2     5    5.5775E+04 -1.7326E+03   5.7508E+04  0.000E+00  0.000E+00  0.000E+00  3.92499E+01  1.249E-01  2.000E+01  2.000E+04 -8.663E-02
   1   11   25     2     6    5.7508E+04 -1.5026E+03   5.9011E+04  0.000E+00  0.000E+00  0.000E+00  3.90020E+01  1.270E-01  2.000E+01  2.000E+04 -7.513E-02
   1   12   24     2     7    5.9011E+04 -1.5448E+03   6.0555E+04  0.000E+00  0.000E+00  0.000E+00  3.87540E+01  1.290E-01  2.000E+01  2.000E+04 -7.724E-02
   1   13   23     2     8    6.0555E+04 -2.6579E+02   6.0821E+04  0.000E+00  0.000E+00  0.000E+00  3.85051E+01  1.301E-01  2.000E+01  2.000E+04 -1.329E-02
   1   14   22     2     9    6.0821E+04  1.7851E+03   5.9036E+04  0.000E+00  0.000E+00  0.000E+00  3.82542E+01  1.292E-01  2.000E+01  2.000E+04  8.926E-02
   1   14   22     3     1    1.7854E+05 -8.7383E+03   1.8728E+05  0.000E+00  0.000E+00  0.000E+00  3.77280E+01  1.724E-01  2.000E+01  2.000E+04 -4.369E-01
   1   15   23     3     2    1.8728E+05 -6.1222E+02   1.8789E+05  0.000E+00  0.000E+00  0.000E+00  3.68417E+01  1.751E-01  2.000E+01  2.000E+04 -3.061E-02
   1   15   24     3     3    1.8789E+05 -3.4005E+02   1.8823E+05  0.000E+00  0.000E+00  0.000E+00  3.59531E+01  1.753E-01  2.000E+01  2.000E+04 -1.700E-02
   1   15   25     3     4    1.8823E+05 -3.3180E+02   1.8856E+05  0.000E+00  0.000E+00  0.000E+00  3.50644E+01  1.755E-01  2.000E+01  2.000E+04 -1.659E-02
   1   15   26     3     5    1.8856E+05 -3.7930E+02   1.8894E+05  0.000E+00  0.000E+00  0.000E+00  3.41757E+01  1.757E-01  2.000E+01  2.000E+04 -1.896E-02
   1   16   27     3     6    1.8894E+05 -4.3473E+02   1.8938E+05  0.000E+00  0.000E+00  0.000E+00  3.32871E+01  1.760E-01  2.000E+01  2.000E+04 -2.174E-02
   1   17   28     3     7    1.8938E+05 -1.7876E+03   1.9116E+05  0.000E+00  0.000E+00  0.000E+00  3.23988E+01  1.766E-01  2.000E+01  2.000E+04 -8.938E-02
   1   18   29     3     8    1.9116E+05 -3.3265E+03   1.9449E+05  0.000E+00  0.000E+00  0.000E+00  3.15113E+01  1.780E-01  2.000E+01  2.000E+04 -1.663E-01
   1   18   30     3     9    1.9449E+05 -3.4443E+03   1.9793E+05  0.000E+00  0.000E+00  0.000E+00  3.06243E+01  1.799E-01  2.000E+01  2.000E+04 -1.722E-01



1
              HEAD IN LAYER   1 AT END OF TIME STEP   1 IN STRESS PERIOD    4
  ---------------------------------------------------------------------------

          1      2      3      4      5      6      7      8      9     10
         11     12     13     14     15     16     17     18     19     20
         21     22     23     24     25     26     27     28     29     30
 .........................................................................
   1  ****** ****** ****** ****** ****** ****** ****** ****** ****** ******
      ****** ****** ****** ****** ****** ****** ****** ****** ****** ******
      ****** ****** ****** ****** ****** ****** ****** ****** ****** ******
   2  ****** ****** ****** ****** ****** ****** ****** ****** ****** ******
      ****** ****** ****** ****** ****** ****** ****** ****** ****** ******
      ****** ****** ****** ****** ****** ****** ****** ****** ****** ******
   3  ****** ****** ****** ****** ****** ****** ****** ****** ****** ******
      ****** ****** ****** ****** ****** ****** ****** ****** ****** ******
      ****** ****** ****** ****** ****** ****** ****** ****** ****** ******
   4  ****** ****** ****** ****** ****** ****** ****** ****** ****** ******
      ****** ****** ****** ****** ****** ****** ****** ****** ****** ******
      ****** ****** ****** ****** ****** ****** ****** ****** ****** ******
   5  ****** ****** ****** ****** ****** ****** ****** ****** ****** ******
      ****** ****** ****** ****** ****** ****** ****** ****** ****** ******
      ****** ****** ****** ****** ****** ****** ****** ****** ****** ******
   6  ****** ****** ****** ****** ****** ****** ****** ****** ****** ******
      ****** ****** ****** ****** ****** ****** ****** ****** ****** ******
      ****** ****** ****** ****** ****** ****** ****** ****** ****** ******
   7  ****** ****** ****** ****** ****** ****** ****** ****** ****** ******
      ****** ****** ****** ****** ****** ****** ****** ****** ****** ******
      ****** ****** ****** ****** ****** ****** ****** ****** ****** ******
   8  ****** ****** ****** ****** ****** ****** ****** ****** ****** ******
      ****** ****** ****** ****** ****** ****** ****** ****** ****** ******
      ****** ****** ****** ****** ****** ****** ****** ****** ****** ******
   9  ****** ****** ****** ****** ****** ****** ****** ****** ****** ******
      ****** ****** ****** ****** ****** ****** ****** ****** ****** ******
      ****** ****** ****** ****** ****** ****** ****** ****** ****** ******
  10  ****** ****** ****** ****** ****** ****** ****** ****** ****** ******
      ****** ****** ****** ****** ****** ****** ****** ****** ****** ******
      ****** ****** ****** ****** ****** ****** ****** ****** ****** ******
  11  ****** ****** ****** ****** ****** ****** ****** ****** ****** ******
      ****** ****** ****** ****** ****** ****** ****** ****** ****** ******
      ****** ****** ****** ****** ****** ****** ****** ****** ****** ******
  12  ****** ****** ****** ****** ****** ****** ****** ****** ****** ******
      ****** ****** ****** ****** ****** ****** ****** ****** ****** ******
      ****** ****** ****** ****** ****** ****** ****** ****** ****** ******
  13  ****** ****** ****** ****** ****** ****** ****** ****** ****** ******
      ****** ****** ****** ****** ****** ****** ****** ****** ****** ******
      ****** ****** ****** ****** ****** ****** ****** ****** ****** ******
  14  ****** ****** ****** ****** ****** ****** ****** ****** ****** ******
      ****** ****** ****** ****** ****** ****** ****** ****** ****** ******
      ****** ****** ****** ****** ****** ****** ****** ****** ****** ******
  15  ****** ****** ****** ****** ****** ****** ****** ****** ****** ******
      ****** ****** ****** ****** ****** ****** ****** ****** ****** ******
      ****** ****** ****** ****** ****** ****** ****** ****** ****** ******
  16  ****** ****** ****** ****** ****** ****** ****** ****** ****** ******
      ****** ****** ****** ****** ****** ****** ****** ****** ****** ******
      ****** ****** ****** ****** ****** ****** ****** ****** ****** ******
  17  ****** ****** ****** ****** ****** ****** ****** ****** ****** ******
      ****** ****** ****** ****** ****** ****** ****** ****** ****** ******
      ****** ****** ****** ****** ****** ****** ****** ****** ****** ******
  18  ****** ****** ****** ****** ****** ****** ****** ****** ****** ******
      ****** ****** ****** ****** ****** ****** ****** ****** ****** ******
      ****** ****** ****** ****** ****** ****** ****** ****** ****** ******
  19  ****** ****** ****** ****** ****** ****** ****** ****** ****** ******
      ****** ****** ****** ****** ****** ****** ****** ****** ****** ******
      ****** ****** ****** ****** ****** ****** ****** ****** ****** ******
  20  ****** ****** ****** ****** ****** ****** ****** ****** ****** ******
      ****** ****** ****** ****** ****** ****** ****** ****** ****** ******
      ****** ****** ****** ****** ****** ****** ****** ****** ****** ******
  21  ****** ****** ****** ****** ****** ****** ****** ****** ****** ******
      ****** ****** ****** ****** ****** ****** ****** ****** ****** ******
      ****** ****** ****** ****** ****** ****** ****** ****** ****** ******
  22  ****** ****** ****** ****** ****** ****** ****** ****** ****** ******
      ****** ****** ****** ****** ****** ****** ****** ****** ****** ******
      ****** ****** ****** ****** ****** ****** ****** ****** ****** ******
  23  ****** ****** ****** ****** ****** ****** ****** ****** ****** ******
      ****** ****** ****** ****** ****** ****** ****** ****** ****** ******
      ****** ****** ****** ****** ****** ****** ****** ****** ****** ******
  24  ****** ****** ****** ****** ****** ****** ****** ****** ****** ******
      ****** ****** ****** ****** ****** ****** ****** ****** ****** ******
      ****** ****** ****** ****** ****** ****** ****** ****** ****** ******
  25  ****** ****** ****** ****** ****** ****** ****** ****** ****** ******
      ****** ****** ****** ****** ****** ****** ****** ****** ****** ******
      ****** ****** ****** ****** ****** ****** ****** ****** ****** ******

 HEAD WILL BE SAVED ON UNIT   51 AT END OF TIME STEP    1, STRESS PERIOD    4
1
  VOLUMETRIC BUDGET FOR ENTIRE MODEL AT END OF TIME STEP    1, STRESS PERIOD   4
  ------------------------------------------------------------------------------

     CUMULATIVE VOLUMES      L**3       RATES FOR THIS TIME STEP      L**3/T
     ------------------                 ------------------------

           IN:                                      IN:
           ---                                      ---
             STORAGE =    30365978.8639               STORAGE =       21129.6726
       CONSTANT HEAD =     8106539.3682         CONSTANT HEAD =       30141.6918
               WELLS =           0.0000                 WELLS =           0.0000
            RECHARGE =     8804400.0000              RECHARGE =       27600.0000
      STREAM LEAKAGE =     2604985.9207        STREAM LEAKAGE =        9245.5470

            TOTAL IN =    49881904.1529              TOTAL IN =       88116.9114

          OUT:                                     OUT:
          ----                                     ----
             STORAGE =        1200.2273               STORAGE =          13.1893
       CONSTANT HEAD =           0.0000         CONSTANT HEAD =           0.0000
               WELLS =    11287372.7304                 WELLS =       30924.3089
            RECHARGE =           0.0000              RECHARGE =           0.0000
      STREAM LEAKAGE =    38593333.2295        STREAM LEAKAGE =       57179.4142

           TOTAL OUT =    49881906.1872             TOTAL OUT =       88116.9124

            IN - OUT =          -2.0343              IN - OUT =      -1.0268E-03

 PERCENT DISCREPANCY =          -0.00     PERCENT DISCREPANCY =          -0.00






         TIME SUMMARY AT END OF TIME STEP    1 IN STRESS PERIOD    4
                    SECONDS     MINUTES      HOURS       DAYS        YEARS
                    -----------------------------------------------------------
   TIME STEP LENGTH 7.86240E+06 1.31040E+05  2184.0      91.000     0.24914    
 STRESS PERIOD TIME 7.86240E+06 1.31040E+05  2184.0      91.000     0.24914    
         TOTAL TIME 3.15360E+07 5.25600E+05  8760.0      365.00     0.99932    
1
1
                            STRESS PERIOD NO.    5, LENGTH =   92.00000    
                            -----------------------------------------------

                              NUMBER OF TIME STEPS =     1

                               MULTIPLIER FOR DELT =     1.500

                            INITIAL TIME STEP SIZE =   92.00000    

 WELL NO.  LAYER   ROW   COL   STRESS RATE         
 --------------------------------------------------
      1      1      6     15      -8201.    
      2      1     13     17     -0.1353E+05
      3      1      5      8      -7262.    
      4      1      3     21      -1929.    

      4 WELLS

                 RECHARGE =  5.000000E-04

 REUSING STREAM SEGMENT DATA FROM LAST STRESS PERIOD
 
 SOLVING FOR HEAD 


     7 CALLS TO PCG ROUTINE FOR TIME STEP   1 IN STRESS PERIOD    5
    26 TOTAL ITERATIONS

 OUTPUT CONTROL FOR STRESS PERIOD    5   TIME STEP    1
    SAVE BUDGET
    SAVE HEAD FOR ALL LAYERS
    PRINT HEAD FOR ALL LAYERS
 UBDSV2 SAVING "STREAMFLOW OUT  " ON UNIT  50 AT TIME STEP  1, STRESS PERIOD   5



 STREAM LISTING     PERIOD      5   STEP        1

 LAYER ROW COL. STREAM  RCH.  FLOW INTO     FLOW TO   FLOW OUT OF   OVRLND.     DIRECT     STREAM       STREAM     STREAM     STREAM   STREAMBED  STREAMBED
                SEG.NO.  NO.  STRM. RCH.    AQUIFER    STRM. RCH.    RUNOFF     PRECIP       ET          HEAD       DEPTH      WIDTH   CONDCTNC.   GRADIENT

   1   13    1     1     1    1.0000E+05 -1.5538E+03   1.0155E+05  0.000E+00  0.000E+00  0.000E+00  4.84067E+01  1.453E-01  2.000E+01  2.000E+04 -7.769E-02
   1   13    2     1     2    1.0155E+05 -2.5235E+03   1.0408E+05  0.000E+00  0.000E+00  0.000E+00  4.79312E+01  1.471E-01  2.000E+01  2.000E+04 -1.262E-01
   1   14    3     1     3    1.0408E+05 -4.5936E+02   1.0454E+05  0.000E+00  0.000E+00  0.000E+00  4.74552E+01  1.484E-01  2.000E+01  2.000E+04 -2.297E-02
   1   15    4     1     4    1.0454E+05 -4.4421E+02   1.0498E+05  0.000E+00  0.000E+00  0.000E+00  4.69783E+01  1.487E-01  2.000E+01  2.000E+04 -2.221E-02
   1   16    5     1     5    1.0498E+05 -1.7181E+03   1.0670E+05  0.000E+00  0.000E+00  0.000E+00  4.65019E+01  1.497E-01  2.000E+01  2.000E+04 -8.591E-02
   1   16    6     1     6    1.0670E+05 -1.0863E+03   1.0779E+05  0.000E+00  0.000E+00  0.000E+00  4.60258E+01  1.508E-01  2.000E+01  2.000E+04 -5.432E-02
   1   16    7     1     7    1.0779E+05 -1.0683E+03   1.0885E+05  0.000E+00  0.000E+00  0.000E+00  4.55495E+01  1.518E-01  2.000E+01  2.000E+04 -5.341E-02
   1   16    8     1     8    1.0885E+05 -1.0628E+03   1.0992E+05  0.000E+00  0.000E+00  0.000E+00  4.50731E+01  1.527E-01  2.000E+01  2.000E+04 -5.314E-02
   1   16    9     1     9    1.0992E+05 -1.0504E+03   1.1097E+05  0.000E+00  0.000E+00  0.000E+00  4.45967E+01  1.535E-01  2.000E+01  2.000E+04 -5.252E-02
   1   16   10     1    10    1.1097E+05 -1.0304E+03   1.1200E+05  0.000E+00  0.000E+00  0.000E+00  4.41203E+01  1.544E-01  2.000E+01  2.000E+04 -5.152E-02
   1   16   11     1    11    1.1200E+05 -1.0202E+03   1.1302E+05  0.000E+00  0.000E+00  0.000E+00  4.36439E+01  1.553E-01  2.000E+01  2.000E+04 -5.101E-02
   1   16   12     1    12    1.1302E+05 -1.6252E+03   1.1464E+05  0.000E+00  0.000E+00  0.000E+00  4.31677E+01  1.563E-01  2.000E+01  2.000E+04 -8.126E-02
   1   15   13     1    13    1.1464E+05 -1.2264E+03   1.1587E+05  0.000E+00  0.000E+00  0.000E+00  4.26916E+01  1.575E-01  2.000E+01  2.000E+04 -6.132E-02
   1   14   14     1    14    1.1587E+05 -9.5900E+02   1.1683E+05  0.000E+00  0.000E+00  0.000E+00  4.22152E+01  1.584E-01  2.000E+01  2.000E+04 -4.795E-02
   1   13   15     1    15    1.1683E+05  2.1424E+02   1.1661E+05  0.000E+00  0.000E+00  0.000E+00  4.17383E+01  1.587E-01  2.000E+01  2.000E+04  1.071E-02
   1   12   16     1    16    1.1661E+05 -2.8119E+02   1.1689E+05  0.000E+00  0.000E+00  0.000E+00  4.12610E+01  1.587E-01  2.000E+01  2.000E+04 -1.406E-02
   1   12   17     1    17    1.1689E+05  3.1196E+03   1.1378E+05  0.000E+00  0.000E+00  0.000E+00  4.07826E+01  1.576E-01  2.000E+01  2.000E+04  1.560E-01
   1   12   18     1    18    1.1378E+05  3.5210E+02   1.1342E+05  0.000E+00  0.000E+00  0.000E+00  4.03039E+01  1.562E-01  2.000E+01  2.000E+04  1.760E-02
   1   12   19     1    19    1.1342E+05 -1.1808E+03   1.1460E+05  0.000E+00  0.000E+00  0.000E+00  3.98269E+01  1.565E-01  2.000E+01  2.000E+04 -5.904E-02
   1   13   20     1    20    1.1460E+05 -7.6708E+02   1.1537E+05  0.000E+00  0.000E+00  0.000E+00  3.93505E+01  1.573E-01  2.000E+01  2.000E+04 -3.835E-02
   1   14   21     1    21    1.1537E+05 -1.2122E+03   1.1658E+05  0.000E+00  0.000E+00  0.000E+00  3.88740E+01  1.581E-01  2.000E+01  2.000E+04 -6.061E-02
   1   14   22     1    22    1.1658E+05  4.8069E+03   1.1178E+05  0.000E+00  0.000E+00  0.000E+00  3.83953E+01  1.566E-01  2.000E+01  2.000E+04  2.403E-01
   1    9   30     2     1    5.0000E+04 -5.4982E+02   5.0550E+04  0.000E+00  0.000E+00  0.000E+00  4.02412E+01  1.162E-01  2.000E+01  2.000E+04 -2.749E-02
   1    9   29     2     2    5.0550E+04 -8.3938E+02   5.1389E+04  0.000E+00  0.000E+00  0.000E+00  3.99922E+01  1.172E-01  2.000E+01  2.000E+04 -4.197E-02
   1    9   28     2     3    5.1389E+04 -1.0692E+03   5.2458E+04  0.000E+00  0.000E+00  0.000E+00  3.97435E+01  1.185E-01  2.000E+01  2.000E+04 -5.346E-02
   1    9   27     2     4    5.2458E+04 -2.1694E+03   5.4628E+04  0.000E+00  0.000E+00  0.000E+00  3.94957E+01  1.207E-01  2.000E+01  2.000E+04 -1.085E-01
   1   10   26     2     5    5.4628E+04 -1.3740E+03   5.6002E+04  0.000E+00  0.000E+00  0.000E+00  3.92481E+01  1.231E-01  2.000E+01  2.000E+04 -6.870E-02
   1   11   25     2     6    5.6002E+04 -1.1723E+03   5.7174E+04  0.000E+00  0.000E+00  0.000E+00  3.89998E+01  1.248E-01  2.000E+01  2.000E+04 -5.862E-02
   1   12   24     2     7    5.7174E+04 -1.2411E+03   5.8415E+04  0.000E+00  0.000E+00  0.000E+00  3.87514E+01  1.264E-01  2.000E+01  2.000E+04 -6.206E-02
   1   13   23     2     8    5.8415E+04 -1.9427E+02   5.8610E+04  0.000E+00  0.000E+00  0.000E+00  3.85023E+01  1.273E-01  2.000E+01  2.000E+04 -9.714E-03
   1   14   22     2     9    5.8610E+04  1.9254E+03   5.6684E+04  0.000E+00  0.000E+00  0.000E+00  3.82512E+01  1.262E-01  2.000E+01  2.000E+04  9.627E-02
   1   14   22     3     1    1.6846E+05 -8.6543E+03   1.7711E+05  0.000E+00  0.000E+00  0.000E+00  3.77222E+01  1.667E-01  2.000E+01  2.000E+04 -4.327E-01
   1   15   23     3     2    1.7711E+05 -5.1521E+02   1.7763E+05  0.000E+00  0.000E+00  0.000E+00  3.68360E+01  1.693E-01  2.000E+01  2.000E+04 -2.576E-02
   1   15   24     3     3    1.7763E+05 -2.6865E+02   1.7790E+05  0.000E+00  0.000E+00  0.000E+00  3.59473E+01  1.695E-01  2.000E+01  2.000E+04 -1.343E-02
   1   15   25     3     4    1.7790E+05 -2.6092E+02   1.7816E+05  0.000E+00  0.000E+00  0.000E+00  3.50586E+01  1.697E-01  2.000E+01  2.000E+04 -1.305E-02
   1   15   26     3     5    1.7816E+05 -3.0746E+02   1.7847E+05  0.000E+00  0.000E+00  0.000E+00  3.41698E+01  1.698E-01  2.000E+01  2.000E+04 -1.537E-02
   1   16   27     3     6    1.7847E+05 -3.4469E+02   1.7881E+05  0.000E+00  0.000E+00  0.000E+00  3.32811E+01  1.700E-01  2.000E+01  2.000E+04 -1.723E-02
   1   17   28     3     7    1.7881E+05 -1.5215E+03   1.8033E+05  0.000E+00  0.000E+00  0.000E+00  3.23928E+01  1.705E-01  2.000E+01  2.000E+04 -7.607E-02
   1   18   29     3     8    1.8033E+05 -2.9562E+03   1.8329E+05  0.000E+00  0.000E+00  0.000E+00  3.15052E+01  1.718E-01  2.000E+01  2.000E+04 -1.478E-01
   1   18   30     3     9    1.8329E+05 -3.1890E+03   1.8648E+05  0.000E+00  0.000E+00  0.000E+00  3.06180E+01  1.736E-01  2.000E+01  2.000E+04 -1.595E-01



1
              HEAD IN LAYER   1 AT END OF TIME STEP   1 IN STRESS PERIOD    5
  ---------------------------------------------------------------------------

          1      2      3      4      5      6      7      8      9     10
         11     12     13     14     15     16     17     18     19     20
         21     22     23     24     25     26     27     28     29     30
 .........................................................................
   1  ****** ****** ****** ****** ****** ****** ****** ****** ****** ******
      ****** ****** ****** ****** ****** ****** ****** ****** ****** ******
      ****** ****** ****** ****** ****** ****** ****** ****** ****** ******
   2  ****** ****** ****** ****** ****** ****** ****** ****** ****** ******
      ****** ****** ****** ****** ****** ****** ****** ****** ****** ******
      ****** ****** ****** ****** ****** ****** ****** ****** ****** ******
   3  ****** ****** ****** ****** ****** ****** ****** ****** ****** ******
      ****** ****** ****** ****** ****** ****** ****** ****** ****** ******
      ****** ****** ****** ****** ****** ****** ****** ****** ****** ******
   4  ****** ****** ****** ****** ****** ****** ****** ****** ****** ******
      ****** ****** ****** ****** ****** ****** ****** ****** ****** ******
      ****** ****** ****** ****** ****** ****** ****** ****** ****** ******
   5  ****** ****** ****** ****** ****** ****** ****** ****** ****** ******
      ****** ****** ****** ****** ****** ****** ****** ****** ****** ******
      ****** ****** ****** ****** ****** ****** ****** ****** ****** ******
   6  ****** ****** ****** ****** ****** ****** ****** ****** ****** ******
      ****** ****** ****** ****** ****** ****** ****** ****** ****** ******
      ****** ****** ****** ****** ****** ****** ****** ****** ****** ******
   7  ****** ****** ****** ****** ****** ****** ****** ****** ****** ******
      ****** ****** ****** ****** ****** ****** ****** ****** ****** ******
      ****** ****** ****** ****** ****** ****** ****** ****** ****** ******
   8  ****** ****** ****** ****** ****** ****** ****** ****** ****** ******
      ****** ****** ****** ****** ****** ****** ****** ****** ****** ******
      ****** ****** ****** ****** ****** ****** ****** ****** ****** ******
   9  ****** ****** ****** ****** ****** ****** ****** ****** ****** ******
      ****** ****** ****** ****** ****** ****** ****** ****** ****** ******
      ****** ****** ****** ****** ****** ****** ****** ****** ****** ******
  10  ****** ****** ****** ****** ****** ****** ****** ****** ****** ******
      ****** ****** ****** ****** ****** ****** ****** ****** ****** ******
      ****** ****** ****** ****** ****** ****** ****** ****** ****** ******
  11  ****** ****** ****** ****** ****** ****** ****** ****** ****** ******
      ****** ****** ****** ****** ****** ****** ****** ****** ****** ******
      ****** ****** ****** ****** ****** ****** ****** ****** ****** ******
  12  ****** ****** ****** ****** ****** ****** ****** ****** ****** ******
      ****** ****** ****** ****** ****** ****** ****** ****** ****** ******
      ****** ****** ****** ****** ****** ****** ****** ****** ****** ******
  13  ****** ****** ****** ****** ****** ****** ****** ****** ****** ******
      ****** ****** ****** ****** ****** ****** ****** ****** ****** ******
      ****** ****** ****** ****** ****** ****** ****** ****** ****** ******
  14  ****** ****** ****** ****** ****** ****** ****** ****** ****** ******
      ****** ****** ****** ****** ****** ****** ****** ****** ****** ******
      ****** ****** ****** ****** ****** ****** ****** ****** ****** ******
  15  ****** ****** ****** ****** ****** ****** ****** ****** ****** ******
      ****** ****** ****** ****** ****** ****** ****** ****** ****** ******
      ****** ****** ****** ****** ****** ****** ****** ****** ****** ******
  16  ****** ****** ****** ****** ****** ****** ****** ****** ****** ******
      ****** ****** ****** ****** ****** ****** ****** ****** ****** ******
      ****** ****** ****** ****** ****** ****** ****** ****** ****** ******
  17  ****** ****** ****** ****** ****** ****** ****** ****** ****** ******
      ****** ****** ****** ****** ****** ****** ****** ****** ****** ******
      ****** ****** ****** ****** ****** ****** ****** ****** ****** ******
  18  ****** ****** ****** ****** ****** ****** ****** ****** ****** ******
      ****** ****** ****** ****** ****** ****** ****** ****** ****** ******
      ****** ****** ****** ****** ****** ****** ****** ****** ****** ******
  19  ****** ****** ****** ****** ****** ****** ****** ****** ****** ******
      ****** ****** ****** ****** ****** ****** ****** ****** ****** ******
      ****** ****** ****** ****** ****** ****** ****** ****** ****** ******
  20  ****** ****** ****** ****** ****** ****** ****** ****** ****** ******
      ****** ****** ****** ****** ****** ****** ****** ****** ****** ******
      ****** ****** ****** ****** ****** ****** ****** ****** ****** ******
  21  ****** ****** ****** ****** ****** ****** ****** ****** ****** ******
      ****** ****** ****** ****** ****** ****** ****** ****** ****** ******
      ****** ****** ****** ****** ****** ****** ****** ****** ****** ******
  22  ****** ****** ****** ****** ****** ****** ****** ****** ****** ******
      ****** ****** ****** ****** ****** ****** ****** ****** ****** ******
      ****** ****** ****** ****** ****** ****** ****** ****** ****** ******
  23  ****** ****** ****** ****** ****** ****** ****** ****** ****** ******
      ****** ****** ****** ****** ****** ****** ****** ****** ****** ******
      ****** ****** ****** ****** ****** ****** ****** ****** ****** ******
  24  ****** ****** ****** ****** ****** ****** ****** ****** ****** ******
      ****** ****** ****** ****** ****** ****** ****** ****** ****** ******
      ****** ****** ****** ****** ****** ****** ****** ****** ****** ******
  25  ****** ****** ****** ****** ****** ****** ****** ****** ****** ******
      ****** ****** ****** ****** ****** ****** ****** ****** ****** ******
      ****** ****** ****** ****** ****** ****** ****** ****** ****** ******

 HEAD WILL BE SAVED ON UNIT   51 AT END OF TIME STEP    1, STRESS PERIOD    5
1
  VOLUMETRIC BUDGET FOR ENTIRE MODEL AT END OF TIME STEP    1, STRESS PERIOD   5
  ------------------------------------------------------------------------------

     CUMULATIVE VOLUMES      L**3       RATES FOR THIS TIME STEP      L**3/T
     ------------------                 ------------------------

           IN:                                      IN:
           ---                                      ---
             STORAGE =    32234611.2752               STORAGE =       20311.2219
       CONSTANT HEAD =    11169371.3441         CONSTANT HEAD =       33291.6519
               WELLS =           0.0000                 WELLS =           0.0000
            RECHARGE =    10074000.0000              RECHARGE =       13800.0000
      STREAM LEAKAGE =     3563466.1399        STREAM LEAKAGE =       10418.2633

            TOTAL IN =    57041448.7592              TOTAL IN =       77821.1370

          OUT:                                     OUT:
          ----                                     ----
             STORAGE =        1200.2273               STORAGE =           0.0000
       CONSTANT HEAD =           0.0000         CONSTANT HEAD =           0.0000
               WELLS =    14132409.1447                 WELLS =       30924.3089
            RECHARGE =           0.0000              RECHARGE =           0.0000
      STREAM LEAKAGE =    42907841.7419        STREAM LEAKAGE =       46896.8317

           TOTAL OUT =    57041451.1138             TOTAL OUT =       77821.1405

            IN - OUT =          -2.3546              IN - OUT =      -3.4816E-03

 PERCENT DISCREPANCY =          -0.00     PERCENT DISCREPANCY =          -0.00






         TIME SUMMARY AT END OF TIME STEP    1 IN STRESS PERIOD    5
                    SECONDS     MINUTES      HOURS       DAYS        YEARS
                    -----------------------------------------------------------
   TIME STEP LENGTH 7.94880E+06 1.32480E+05  2208.0      92.000     0.25188    
 STRESS PERIOD TIME 7.94880E+06 1.32480E+05  2208.0      92.000     0.25188    
         TOTAL TIME 3.94848E+07 6.58080E+05  10968.      457.00      1.2512    
1
1
                            STRESS PERIOD NO.    6, LENGTH =   91.00000    
                            -----------------------------------------------

                              NUMBER OF TIME STEPS =     1

                               MULTIPLIER FOR DELT =     1.500

                            INITIAL TIME STEP SIZE =   91.00000    

 WELL NO.  LAYER   ROW   COL   STRESS RATE         
 --------------------------------------------------
      1      1      6     15      -8201.    
      2      1     13     17     -0.1353E+05
      3      1      5      8      -7262.    
      4      1      3     21      -1929.    

      4 WELLS

                 RECHARGE =  2.000000E-03

 REUSING STREAM SEGMENT DATA FROM LAST STRESS PERIOD
 
 SOLVING FOR HEAD 


     7 CALLS TO PCG ROUTINE FOR TIME STEP   1 IN STRESS PERIOD    6
    26 TOTAL ITERATIONS

 OUTPUT CONTROL FOR STRESS PERIOD    6   TIME STEP    1
    SAVE BUDGET
    SAVE HEAD FOR ALL LAYERS
    PRINT HEAD FOR ALL LAYERS
 UBDSV2 SAVING "STREAMFLOW OUT  " ON UNIT  50 AT TIME STEP  1, STRESS PERIOD   6



 STREAM LISTING     PERIOD      6   STEP        1

 LAYER ROW COL. STREAM  RCH.  FLOW INTO     FLOW TO   FLOW OUT OF   OVRLND.     DIRECT     STREAM       STREAM     STREAM     STREAM   STREAMBED  STREAMBED
                SEG.NO.  NO.  STRM. RCH.    AQUIFER    STRM. RCH.    RUNOFF     PRECIP       ET          HEAD       DEPTH      WIDTH   CONDCTNC.   GRADIENT

   1   13    1     1     1    1.0000E+05 -1.8144E+03   1.0181E+05  0.000E+00  0.000E+00  0.000E+00  4.84068E+01  1.454E-01  2.000E+01  2.000E+04 -9.072E-02
   1   13    2     1     2    1.0181E+05 -2.8060E+03   1.0462E+05  0.000E+00  0.000E+00  0.000E+00  4.79315E+01  1.474E-01  2.000E+01  2.000E+04 -1.403E-01
   1   14    3     1     3    1.0462E+05 -6.0669E+02   1.0523E+05  0.000E+00  0.000E+00  0.000E+00  4.74557E+01  1.489E-01  2.000E+01  2.000E+04 -3.033E-02
   1   15    4     1     4    1.0523E+05 -6.0510E+02   1.0583E+05  0.000E+00  0.000E+00  0.000E+00  4.69789E+01  1.494E-01  2.000E+01  2.000E+04 -3.025E-02
   1   16    5     1     5    1.0583E+05 -2.2132E+03   1.0805E+05  0.000E+00  0.000E+00  0.000E+00  4.65029E+01  1.506E-01  2.000E+01  2.000E+04 -1.107E-01
   1   16    6     1     6    1.0805E+05 -1.3740E+03   1.0942E+05  0.000E+00  0.000E+00  0.000E+00  4.60271E+01  1.521E-01  2.000E+01  2.000E+04 -6.870E-02
   1   16    7     1     7    1.0942E+05 -1.3402E+03   1.1076E+05  0.000E+00  0.000E+00  0.000E+00  4.55510E+01  1.532E-01  2.000E+01  2.000E+04 -6.701E-02
   1   16    8     1     8    1.1076E+05 -1.3304E+03   1.1209E+05  0.000E+00  0.000E+00  0.000E+00  4.50748E+01  1.544E-01  2.000E+01  2.000E+04 -6.652E-02
   1   16    9     1     9    1.1209E+05 -1.3183E+03   1.1341E+05  0.000E+00  0.000E+00  0.000E+00  4.45986E+01  1.555E-01  2.000E+01  2.000E+04 -6.591E-02
   1   16   10     1    10    1.1341E+05 -1.3011E+03   1.1471E+05  0.000E+00  0.000E+00  0.000E+00  4.41224E+01  1.565E-01  2.000E+01  2.000E+04 -6.505E-02
   1   16   11     1    11    1.1471E+05 -1.2959E+03   1.1601E+05  0.000E+00  0.000E+00  0.000E+00  4.36462E+01  1.576E-01  2.000E+01  2.000E+04 -6.480E-02
   1   16   12     1    12    1.1601E+05 -2.0681E+03   1.1807E+05  0.000E+00  0.000E+00  0.000E+00  4.31703E+01  1.590E-01  2.000E+01  2.000E+04 -1.034E-01
   1   15   13     1    13    1.1807E+05 -1.6657E+03   1.1974E+05  0.000E+00  0.000E+00  0.000E+00  4.26946E+01  1.605E-01  2.000E+01  2.000E+04 -8.329E-02
   1   14   14     1    14    1.1974E+05 -1.3834E+03   1.2112E+05  0.000E+00  0.000E+00  0.000E+00  4.22185E+01  1.617E-01  2.000E+01  2.000E+04 -6.917E-02
   1   13   15     1    15    1.2112E+05 -1.8187E+02   1.2130E+05  0.000E+00  0.000E+00  0.000E+00  4.17419E+01  1.624E-01  2.000E+01  2.000E+04 -9.093E-03
   1   12   16     1    16    1.2130E+05 -6.1574E+02   1.2192E+05  0.000E+00  0.000E+00  0.000E+00  4.12649E+01  1.627E-01  2.000E+01  2.000E+04 -3.079E-02
   1   12   17     1    17    1.2192E+05  2.8302E+03   1.1909E+05  0.000E+00  0.000E+00  0.000E+00  4.07868E+01  1.618E-01  2.000E+01  2.000E+04  1.415E-01
   1   12   18     1    18    1.1909E+05  5.4462E+01   1.1904E+05  0.000E+00  0.000E+00  0.000E+00  4.03083E+01  1.606E-01  2.000E+01  2.000E+04  2.723E-03
   1   12   19     1    19    1.1904E+05 -1.5514E+03   1.2059E+05  0.000E+00  0.000E+00  0.000E+00  3.98317E+01  1.612E-01  2.000E+01  2.000E+04 -7.757E-02
   1   13   20     1    20    1.2059E+05 -1.1818E+03   1.2177E+05  0.000E+00  0.000E+00  0.000E+00  3.93555E+01  1.623E-01  2.000E+01  2.000E+04 -5.909E-02
   1   14   21     1    21    1.2177E+05 -1.6261E+03   1.2339E+05  0.000E+00  0.000E+00  0.000E+00  3.88794E+01  1.634E-01  2.000E+01  2.000E+04 -8.131E-02
   1   14   22     1    22    1.2339E+05  4.7004E+03   1.1869E+05  0.000E+00  0.000E+00  0.000E+00  3.84009E+01  1.622E-01  2.000E+01  2.000E+04  2.350E-01
   1    9   30     2     1    5.0000E+04 -9.0902E+02   5.0909E+04  0.000E+00  0.000E+00  0.000E+00  4.02415E+01  1.165E-01  2.000E+01  2.000E+04 -4.545E-02
   1    9   29     2     2    5.0909E+04 -1.1937E+03   5.2103E+04  0.000E+00  0.000E+00  0.000E+00  3.99929E+01  1.179E-01  2.000E+01  2.000E+04 -5.969E-02
   1    9   28     2     3    5.2103E+04 -1.4156E+03   5.3518E+04  0.000E+00  0.000E+00  0.000E+00  3.97447E+01  1.197E-01  2.000E+01  2.000E+04 -7.078E-02
   1    9   27     2     4    5.3518E+04 -2.6012E+03   5.6120E+04  0.000E+00  0.000E+00  0.000E+00  3.94974E+01  1.224E-01  2.000E+01  2.000E+04 -1.301E-01
   1   10   26     2     5    5.6120E+04 -1.8317E+03   5.7951E+04  0.000E+00  0.000E+00  0.000E+00  3.92504E+01  1.254E-01  2.000E+01  2.000E+04 -9.158E-02
   1   11   25     2     6    5.7951E+04 -1.6158E+03   5.9567E+04  0.000E+00  0.000E+00  0.000E+00  3.90026E+01  1.276E-01  2.000E+01  2.000E+04 -8.079E-02
   1   12   24     2     7    5.9567E+04 -1.6396E+03   6.1207E+04  0.000E+00  0.000E+00  0.000E+00  3.87548E+01  1.298E-01  2.000E+01  2.000E+04 -8.198E-02
   1   13   23     2     8    6.1207E+04 -3.3035E+02   6.1537E+04  0.000E+00  0.000E+00  0.000E+00  3.85060E+01  1.310E-01  2.000E+01  2.000E+04 -1.652E-02
   1   14   22     2     9    6.1537E+04  1.7852E+03   5.9752E+04  0.000E+00  0.000E+00  0.000E+00  3.82551E+01  1.301E-01  2.000E+01  2.000E+04  8.926E-02
   1   14   22     3     1    1.7845E+05 -8.7576E+03   1.8720E+05  0.000E+00  0.000E+00  0.000E+00  3.77279E+01  1.724E-01  2.000E+01  2.000E+04 -4.379E-01
   1   15   23     3     2    1.8720E+05 -6.5386E+02   1.8786E+05  0.000E+00  0.000E+00  0.000E+00  3.68417E+01  1.750E-01  2.000E+01  2.000E+04 -3.269E-02
   1   15   24     3     3    1.8786E+05 -3.9135E+02   1.8825E+05  0.000E+00  0.000E+00  0.000E+00  3.59531E+01  1.753E-01  2.000E+01  2.000E+04 -1.957E-02
   1   15   25     3     4    1.8825E+05 -3.8800E+02   1.8864E+05  0.000E+00  0.000E+00  0.000E+00  3.50644E+01  1.756E-01  2.000E+01  2.000E+04 -1.940E-02
   1   15   26     3     5    1.8864E+05 -4.5930E+02   1.8910E+05  0.000E+00  0.000E+00  0.000E+00  3.41758E+01  1.758E-01  2.000E+01  2.000E+04 -2.297E-02
   1   16   27     3     6    1.8910E+05 -5.1423E+02   1.8961E+05  0.000E+00  0.000E+00  0.000E+00  3.32872E+01  1.761E-01  2.000E+01  2.000E+04 -2.571E-02
   1   17   28     3     7    1.8961E+05 -1.9873E+03   1.9160E+05  0.000E+00  0.000E+00  0.000E+00  3.23990E+01  1.768E-01  2.000E+01  2.000E+04 -9.937E-02
   1   18   29     3     8    1.9160E+05 -3.4025E+03   1.9500E+05  0.000E+00  0.000E+00  0.000E+00  3.15116E+01  1.783E-01  2.000E+01  2.000E+04 -1.701E-01
   1   18   30     3     9    1.9500E+05 -3.5494E+03   1.9855E+05  0.000E+00  0.000E+00  0.000E+00  3.06246E+01  1.802E-01  2.000E+01  2.000E+04 -1.775E-01



1
              HEAD IN LAYER   1 AT END OF TIME STEP   1 IN STRESS PERIOD    6
  ---------------------------------------------------------------------------

          1      2      3      4      5      6      7      8      9     10
         11     12     13     14     15     16     17     18     19     20
         21     22     23     24     25     26     27     28     29     30
 .........................................................................
   1  ****** ****** ****** ****** ****** ****** ****** ****** ****** ******
      ****** ****** ****** ****** ****** ****** ****** ****** ****** ******
      ****** ****** ****** ****** ****** ****** ****** ****** ****** ******
   2  ****** ****** ****** ****** ****** ****** ****** ****** ****** ******
      ****** ****** ****** ****** ****** ****** ****** ****** ****** ******
      ****** ****** ****** ****** ****** ****** ****** ****** ****** ******
   3  ****** ****** ****** ****** ****** ****** ****** ****** ****** ******
      ****** ****** ****** ****** ****** ****** ****** ****** ****** ******
      ****** ****** ****** ****** ****** ****** ****** ****** ****** ******
   4  ****** ****** ****** ****** ****** ****** ****** ****** ****** ******
      ****** ****** ****** ****** ****** ****** ****** ****** ****** ******
      ****** ****** ****** ****** ****** ****** ****** ****** ****** ******
   5  ****** ****** ****** ****** ****** ****** ****** ****** ****** ******
      ****** ****** ****** ****** ****** ****** ****** ****** ****** ******
      ****** ****** ****** ****** ****** ****** ****** ****** ****** ******
   6  ****** ****** ****** ****** ****** ****** ****** ****** ****** ******
      ****** ****** ****** ****** ****** ****** ****** ****** ****** ******
      ****** ****** ****** ****** ****** ****** ****** ****** ****** ******
   7  ****** ****** ****** ****** ****** ****** ****** ****** ****** ******
      ****** ****** ****** ****** ****** ****** ****** ****** ****** ******
      ****** ****** ****** ****** ****** ****** ****** ****** ****** ******
   8  ****** ****** ****** ****** ****** ****** ****** ****** ****** ******
      ****** ****** ****** ****** ****** ****** ****** ****** ****** ******
      ****** ****** ****** ****** ****** ****** ****** ****** ****** ******
   9  ****** ****** ****** ****** ****** ****** ****** ****** ****** ******
      ****** ****** ****** ****** ****** ****** ****** ****** ****** ******
      ****** ****** ****** ****** ****** ****** ****** ****** ****** ******
  10  ****** ****** ****** ****** ****** ****** ****** ****** ****** ******
      ****** ****** ****** ****** ****** ****** ****** ****** ****** ******
      ****** ****** ****** ****** ****** ****** ****** ****** ****** ******
  11  ****** ****** ****** ****** ****** ****** ****** ****** ****** ******
      ****** ****** ****** ****** ****** ****** ****** ****** ****** ******
      ****** ****** ****** ****** ****** ****** ****** ****** ****** ******
  12  ****** ****** ****** ****** ****** ****** ****** ****** ****** ******
      ****** ****** ****** ****** ****** ****** ****** ****** ****** ******
      ****** ****** ****** ****** ****** ****** ****** ****** ****** ******
  13  ****** ****** ****** ****** ****** ****** ****** ****** ****** ******
      ****** ****** ****** ****** ****** ****** ****** ****** ****** ******
      ****** ****** ****** ****** ****** ****** ****** ****** ****** ******
  14  ****** ****** ****** ****** ****** ****** ****** ****** ****** ******
      ****** ****** ****** ****** ****** ****** ****** ****** ****** ******
      ****** ****** ****** ****** ****** ****** ****** ****** ****** ******
  15  ****** ****** ****** ****** ****** ****** ****** ****** ****** ******
      ****** ****** ****** ****** ****** ****** ****** ****** ****** ******
      ****** ****** ****** ****** ****** ****** ****** ****** ****** ******
  16  ****** ****** ****** ****** ****** ****** ****** ****** ****** ******
      ****** ****** ****** ****** ****** ****** ****** ****** ****** ******
      ****** ****** ****** ****** ****** ****** ****** ****** ****** ******
  17  ****** ****** ****** ****** ****** ****** ****** ****** ****** ******
      ****** ****** ****** ****** ****** ****** ****** ****** ****** ******
      ****** ****** ****** ****** ****** ****** ****** ****** ****** ******
  18  ****** ****** ****** ****** ****** ****** ****** ****** ****** ******
      ****** ****** ****** ****** ****** ****** ****** ****** ****** ******
      ****** ****** ****** ****** ****** ****** ****** ****** ****** ******
  19  ****** ****** ****** ****** ****** ****** ****** ****** ****** ******
      ****** ****** ****** ****** ****** ****** ****** ****** ****** ******
      ****** ****** ****** ****** ****** ****** ****** ****** ****** ******
  20  ****** ****** ****** ****** ****** ****** ****** ****** ****** ******
      ****** ****** ****** ****** ****** ****** ****** ****** ****** ******
      ****** ****** ****** ****** ****** ****** ****** ****** ****** ******
  21  ****** ****** ****** ****** ****** ****** ****** ****** ****** ******
      ****** ****** ****** ****** ****** ****** ****** ****** ****** ******
      ****** ****** ****** ****** ****** ****** ****** ****** ****** ******
  22  ****** ****** ****** ****** ****** ****** ****** ****** ****** ******
      ****** ****** ****** ****** ****** ****** ****** ****** ****** ******
      ****** ****** ****** ****** ****** ****** ****** ****** ****** ******
  23  ****** ****** ****** ****** ****** ****** ****** ****** ****** ******
      ****** ****** ****** ****** ****** ****** ****** ****** ****** ******
      ****** ****** ****** ****** ****** ****** ****** ****** ****** ******
  24  ****** ****** ****** ****** ****** ****** ****** ****** ****** ******
      ****** ****** ****** ****** ****** ****** ****** ****** ****** ******
      ****** ****** ****** ****** ****** ****** ****** ****** ****** ******
  25  ****** ****** ****** ****** ****** ****** ****** ****** ****** ******
      ****** ****** ****** ****** ****** ****** ****** ****** ****** ******
      ****** ****** ****** ****** ****** ****** ****** ****** ****** ******

 HEAD WILL BE SAVED ON UNIT   51 AT END OF TIME STEP    1, STRESS PERIOD    6
1
  VOLUMETRIC BUDGET FOR ENTIRE MODEL AT END OF TIME STEP    1, STRESS PERIOD   6
  ------------------------------------------------------------------------------

     CUMULATIVE VOLUMES      L**3       RATES FOR THIS TIME STEP      L**3/T
     ------------------                 ------------------------

           IN:                                      IN:
           ---                                      ---
             STORAGE =    32268557.2129               STORAGE =         373.0323
       CONSTANT HEAD =    14040571.5029         CONSTANT HEAD =       31551.6501
               WELLS =           0.0000                 WELLS =           0.0000
            RECHARGE =    15097200.0000              RECHARGE =       55200.0000
      STREAM LEAKAGE =     4416163.7080        STREAM LEAKAGE =        9370.3029

            TOTAL IN =    65822492.4239              TOTAL IN =       96494.9853

          OUT:                                     OUT:
          ----                                     ----
             STORAGE =      697397.8857               STORAGE =        7650.5237
       CONSTANT HEAD =           0.0000         CONSTANT HEAD =           0.0000
               WELLS =    16946521.2500                 WELLS =       30924.3089
            RECHARGE =           0.0000              RECHARGE =           0.0000
      STREAM LEAKAGE =    48178575.3867        STREAM LEAKAGE =       57920.1499

           TOTAL OUT =    65822494.5224             TOTAL OUT =       96494.9825

            IN - OUT =          -2.0986              IN - OUT =       2.8132E-03

 PERCENT DISCREPANCY =          -0.00     PERCENT DISCREPANCY =           0.00






         TIME SUMMARY AT END OF TIME STEP    1 IN STRESS PERIOD    6
                    SECONDS     MINUTES      HOURS       DAYS        YEARS
                    -----------------------------------------------------------
   TIME STEP LENGTH 7.86240E+06 1.31040E+05  2184.0      91.000     0.24914    
 STRESS PERIOD TIME 7.86240E+06 1.31040E+05  2184.0      91.000     0.24914    
         TOTAL TIME 4.73472E+07 7.89120E+05  13152.      548.00      1.5003    
1
1
                            STRESS PERIOD NO.    7, LENGTH =   91.00000    
                            -----------------------------------------------

                              NUMBER OF TIME STEPS =     1

                               MULTIPLIER FOR DELT =     1.500

                            INITIAL TIME STEP SIZE =   91.00000    

 WELL NO.  LAYER   ROW   COL   STRESS RATE         
 --------------------------------------------------
      1      1      6     15      -8201.    
      2      1     13     17     -0.1353E+05
      3      1      5      8      -7262.    
      4      1      3     21      -1929.    

      4 WELLS

                 RECHARGE =   0.00000    

 REUSING STREAM SEGMENT DATA FROM LAST STRESS PERIOD
 
 SOLVING FOR HEAD 


     7 CALLS TO PCG ROUTINE FOR TIME STEP   1 IN STRESS PERIOD    7
    26 TOTAL ITERATIONS

 OUTPUT CONTROL FOR STRESS PERIOD    7   TIME STEP    1
    SAVE BUDGET
    SAVE HEAD FOR ALL LAYERS
    PRINT HEAD FOR ALL LAYERS
 UBDSV2 SAVING "STREAMFLOW OUT  " ON UNIT  50 AT TIME STEP  1, STRESS PERIOD   7



 STREAM LISTING     PERIOD      7   STEP        1

 LAYER ROW COL. STREAM  RCH.  FLOW INTO     FLOW TO   FLOW OUT OF   OVRLND.     DIRECT     STREAM       STREAM     STREAM     STREAM   STREAMBED  STREAMBED
                SEG.NO.  NO.  STRM. RCH.    AQUIFER    STRM. RCH.    RUNOFF     PRECIP       ET          HEAD       DEPTH      WIDTH   CONDCTNC.   GRADIENT

   1   13    1     1     1    1.0000E+05 -1.1092E+03   1.0111E+05  0.000E+00  0.000E+00  0.000E+00  4.84065E+01  1.451E-01  2.000E+01  2.000E+04 -5.546E-02
   1   13    2     1     2    1.0111E+05 -2.0153E+03   1.0312E+05  0.000E+00  0.000E+00  0.000E+00  4.79306E+01  1.465E-01  2.000E+01  2.000E+04 -1.008E-01
   1   14    3     1     3    1.0312E+05 -3.4877E+02   1.0347E+05  0.000E+00  0.000E+00  0.000E+00  4.74543E+01  1.475E-01  2.000E+01  2.000E+04 -1.744E-02
   1   15    4     1     4    1.0347E+05 -3.3793E+02   1.0381E+05  0.000E+00  0.000E+00  0.000E+00  4.69773E+01  1.478E-01  2.000E+01  2.000E+04 -1.690E-02
   1   16    5     1     5    1.0381E+05 -1.4584E+03   1.0527E+05  0.000E+00  0.000E+00  0.000E+00  4.65008E+01  1.486E-01  2.000E+01  2.000E+04 -7.292E-02
   1   16    6     1     6    1.0527E+05 -9.1641E+02   1.0619E+05  0.000E+00  0.000E+00  0.000E+00  4.60246E+01  1.496E-01  2.000E+01  2.000E+04 -4.582E-02
   1   16    7     1     7    1.0619E+05 -9.0060E+02   1.0709E+05  0.000E+00  0.000E+00  0.000E+00  4.55481E+01  1.503E-01  2.000E+01  2.000E+04 -4.503E-02
   1   16    8     1     8    1.0709E+05 -8.9682E+02   1.0798E+05  0.000E+00  0.000E+00  0.000E+00  4.50716E+01  1.511E-01  2.000E+01  2.000E+04 -4.484E-02
   1   16    9     1     9    1.0798E+05 -8.8839E+02   1.0887E+05  0.000E+00  0.000E+00  0.000E+00  4.45950E+01  1.518E-01  2.000E+01  2.000E+04 -4.442E-02
   1   16   10     1    10    1.0887E+05 -8.7463E+02   1.0975E+05  0.000E+00  0.000E+00  0.000E+00  4.41185E+01  1.526E-01  2.000E+01  2.000E+04 -4.373E-02
   1   16   11     1    11    1.0975E+05 -8.6955E+02   1.1062E+05  0.000E+00  0.000E+00  0.000E+00  4.36420E+01  1.533E-01  2.000E+01  2.000E+04 -4.348E-02
   1   16   12     1    12    1.1062E+05 -1.3499E+03   1.1197E+05  0.000E+00  0.000E+00  0.000E+00  4.31656E+01  1.542E-01  2.000E+01  2.000E+04 -6.749E-02
   1   15   13     1    13    1.1197E+05 -8.8624E+02   1.1285E+05  0.000E+00  0.000E+00  0.000E+00  4.26893E+01  1.552E-01  2.000E+01  2.000E+04 -4.431E-02
   1   14   14     1    14    1.1285E+05 -5.6947E+02   1.1342E+05  0.000E+00  0.000E+00  0.000E+00  4.22126E+01  1.558E-01  2.000E+01  2.000E+04 -2.847E-02
   1   13   15     1    15    1.1342E+05  6.3989E+02   1.1278E+05  0.000E+00  0.000E+00  0.000E+00  4.17353E+01  1.557E-01  2.000E+01  2.000E+04  3.199E-02
   1   12   16     1    16    1.1278E+05  2.0972E+02   1.1257E+05  0.000E+00  0.000E+00  0.000E+00  4.12577E+01  1.554E-01  2.000E+01  2.000E+04  1.049E-02
   1   12   17     1    17    1.1257E+05  3.4224E+03   1.0915E+05  0.000E+00  0.000E+00  0.000E+00  4.07789E+01  1.539E-01  2.000E+01  2.000E+04  1.711E-01
   1   12   18     1    18    1.0915E+05  6.2947E+02   1.0852E+05  0.000E+00  0.000E+00  0.000E+00  4.02999E+01  1.522E-01  2.000E+01  2.000E+04  3.147E-02
   1   12   19     1    19    1.0852E+05 -8.4928E+02   1.0937E+05  0.000E+00  0.000E+00  0.000E+00  3.98227E+01  1.523E-01  2.000E+01  2.000E+04 -4.246E-02
   1   13   20     1    20    1.0937E+05 -5.0795E+02   1.0988E+05  0.000E+00  0.000E+00  0.000E+00  3.93460E+01  1.529E-01  2.000E+01  2.000E+04 -2.540E-02
   1   14   21     1    21    1.0988E+05 -9.6716E+02   1.1084E+05  0.000E+00  0.000E+00  0.000E+00  3.88694E+01  1.535E-01  2.000E+01  2.000E+04 -4.836E-02
   1   14   22     1    22    1.1084E+05  4.8531E+03   1.0599E+05  0.000E+00  0.000E+00  0.000E+00  3.83905E+01  1.518E-01  2.000E+01  2.000E+04  2.427E-01
   1    9   30     2     1    5.0000E+04 -3.9233E+02   5.0392E+04  0.000E+00  0.000E+00  0.000E+00  4.02411E+01  1.161E-01  2.000E+01  2.000E+04 -1.962E-02
   1    9   29     2     2    5.0392E+04 -6.7852E+02   5.1071E+04  0.000E+00  0.000E+00  0.000E+00  3.99919E+01  1.169E-01  2.000E+01  2.000E+04 -3.393E-02
   1    9   28     2     3    5.1071E+04 -8.9824E+02   5.1969E+04  0.000E+00  0.000E+00  0.000E+00  3.97430E+01  1.180E-01  2.000E+01  2.000E+04 -4.491E-02
   1    9   27     2     4    5.1969E+04 -1.8946E+03   5.3864E+04  0.000E+00  0.000E+00  0.000E+00  3.94949E+01  1.199E-01  2.000E+01  2.000E+04 -9.473E-02
   1   10   26     2     5    5.3864E+04 -1.1244E+03   5.4988E+04  0.000E+00  0.000E+00  0.000E+00  3.92469E+01  1.219E-01  2.000E+01  2.000E+04 -5.622E-02
   1   11   25     2     6    5.4988E+04 -9.3751E+02   5.5926E+04  0.000E+00  0.000E+00  0.000E+00  3.89983E+01  1.233E-01  2.000E+01  2.000E+04 -4.688E-02
   1   12   24     2     7    5.5926E+04 -1.0204E+03   5.6946E+04  0.000E+00  0.000E+00  0.000E+00  3.87496E+01  1.246E-01  2.000E+01  2.000E+04 -5.102E-02
   1   13   23     2     8    5.6946E+04 -1.3722E+02   5.7083E+04  0.000E+00  0.000E+00  0.000E+00  3.85004E+01  1.254E-01  2.000E+01  2.000E+04 -6.861E-03
   1   14   22     2     9    5.7083E+04  2.0258E+03   5.5057E+04  0.000E+00  0.000E+00  0.000E+00  3.82491E+01  1.241E-01  2.000E+01  2.000E+04  1.013E-01
   1   14   22     3     1    1.6105E+05 -8.5992E+03   1.6965E+05  0.000E+00  0.000E+00  0.000E+00  3.77179E+01  1.623E-01  2.000E+01  2.000E+04 -4.300E-01
   1   15   23     3     2    1.6965E+05 -4.4863E+02   1.7010E+05  0.000E+00  0.000E+00  0.000E+00  3.68316E+01  1.650E-01  2.000E+01  2.000E+04 -2.243E-02
   1   15   24     3     3    1.7010E+05 -2.1843E+02   1.7032E+05  0.000E+00  0.000E+00  0.000E+00  3.59429E+01  1.652E-01  2.000E+01  2.000E+04 -1.092E-02
   1   15   25     3     4    1.7032E+05 -2.1194E+02   1.7053E+05  0.000E+00  0.000E+00  0.000E+00  3.50542E+01  1.653E-01  2.000E+01  2.000E+04 -1.060E-02
   1   15   26     3     5    1.7053E+05 -2.5853E+02   1.7079E+05  0.000E+00  0.000E+00  0.000E+00  3.41654E+01  1.654E-01  2.000E+01  2.000E+04 -1.293E-02
   1   16   27     3     6    1.7079E+05 -2.8267E+02   1.7107E+05  0.000E+00  0.000E+00  0.000E+00  3.32767E+01  1.656E-01  2.000E+01  2.000E+04 -1.413E-02
   1   17   28     3     7    1.7107E+05 -1.3486E+03   1.7242E+05  0.000E+00  0.000E+00  0.000E+00  3.23883E+01  1.660E-01  2.000E+01  2.000E+04 -6.743E-02
   1   18   29     3     8    1.7242E+05 -2.7221E+03   1.7514E+05  0.000E+00  0.000E+00  0.000E+00  3.15006E+01  1.672E-01  2.000E+01  2.000E+04 -1.361E-01
   1   18   30     3     9    1.7514E+05 -3.0244E+03   1.7816E+05  0.000E+00  0.000E+00  0.000E+00  3.06133E+01  1.689E-01  2.000E+01  2.000E+04 -1.512E-01



1
              HEAD IN LAYER   1 AT END OF TIME STEP   1 IN STRESS PERIOD    7
  ---------------------------------------------------------------------------

          1      2      3      4      5      6      7      8      9     10
         11     12     13     14     15     16     17     18     19     20
         21     22     23     24     25     26     27     28     29     30
 .........................................................................
   1  ****** ****** ****** ****** ****** ****** ****** ****** ****** ******
      ****** ****** ****** ****** ****** ****** ****** ****** ****** ******
      ****** ****** ****** ****** ****** ****** ****** ****** ****** ******
   2  ****** ****** ****** ****** ****** ****** ****** ****** ****** ******
      ****** ****** ****** ****** ****** ****** ****** ****** ****** ******
      ****** ****** ****** ****** ****** ****** ****** ****** ****** ******
   3  ****** ****** ****** ****** ****** ****** ****** ****** ****** ******
      ****** ****** ****** ****** ****** ****** ****** ****** ****** ******
      ****** ****** ****** ****** ****** ****** ****** ****** ****** ******
   4  ****** ****** ****** ****** ****** ****** ****** ****** ****** ******
      ****** ****** ****** ****** ****** ****** ****** ****** ****** ******
      ****** ****** ****** ****** ****** ****** ****** ****** ****** ******
   5  ****** ****** ****** ****** ****** ****** ****** ****** ****** ******
      ****** ****** ****** ****** ****** ****** ****** ****** ****** ******
      ****** ****** ****** ****** ****** ****** ****** ****** ****** ******
   6  ****** ****** ****** ****** ****** ****** ****** ****** ****** ******
      ****** ****** ****** ****** ****** ****** ****** ****** ****** ******
      ****** ****** ****** ****** ****** ****** ****** ****** ****** ******
   7  ****** ****** ****** ****** ****** ****** ****** ****** ****** ******
      ****** ****** ****** ****** ****** ****** ****** ****** ****** ******
      ****** ****** ****** ****** ****** ****** ****** ****** ****** ******
   8  ****** ****** ****** ****** ****** ****** ****** ****** ****** ******
      ****** ****** ****** ****** ****** ****** ****** ****** ****** ******
      ****** ****** ****** ****** ****** ****** ****** ****** ****** ******
   9  ****** ****** ****** ****** ****** ****** ****** ****** ****** ******
      ****** ****** ****** ****** ****** ****** ****** ****** ****** ******
      ****** ****** ****** ****** ****** ****** ****** ****** ****** ******
  10  ****** ****** ****** ****** ****** ****** ****** ****** ****** ******
      ****** ****** ****** ****** ****** ****** ****** ****** ****** ******
      ****** ****** ****** ****** ****** ****** ****** ****** ****** ******
  11  ****** ****** ****** ****** ****** ****** ****** ****** ****** ******
      ****** ****** ****** ****** ****** ****** ****** ****** ****** ******
      ****** ****** ****** ****** ****** ****** ****** ****** ****** ******
  12  ****** ****** ****** ****** ****** ****** ****** ****** ****** ******
      ****** ****** ****** ****** ****** ****** ****** ****** ****** ******
      ****** ****** ****** ****** ****** ****** ****** ****** ****** ******
  13  ****** ****** ****** ****** ****** ****** ****** ****** ****** ******
      ****** ****** ****** ****** ****** ****** ****** ****** ****** ******
      ****** ****** ****** ****** ****** ****** ****** ****** ****** ******
  14  ****** ****** ****** ****** ****** ****** ****** ****** ****** ******
      ****** ****** ****** ****** ****** ****** ****** ****** ****** ******
      ****** ****** ****** ****** ****** ****** ****** ****** ****** ******
  15  ****** ****** ****** ****** ****** ****** ****** ****** ****** ******
      ****** ****** ****** ****** ****** ****** ****** ****** ****** ******
      ****** ****** ****** ****** ****** ****** ****** ****** ****** ******
  16  ****** ****** ****** ****** ****** ****** ****** ****** ****** ******
      ****** ****** ****** ****** ****** ****** ****** ****** ****** ******
      ****** ****** ****** ****** ****** ****** ****** ****** ****** ******
  17  ****** ****** ****** ****** ****** ****** ****** ****** ****** ******
      ****** ****** ****** ****** ****** ****** ****** ****** ****** ******
      ****** ****** ****** ****** ****** ****** ****** ****** ****** ******
  18  ****** ****** ****** ****** ****** ****** ****** ****** ****** ******
      ****** ****** ****** ****** ****** ****** ****** ****** ****** ******
      ****** ****** ****** ****** ****** ****** ****** ****** ****** ******
  19  ****** ****** ****** ****** ****** ****** ****** ****** ****** ******
      ****** ****** ****** ****** ****** ****** ****** ****** ****** ******
      ****** ****** ****** ****** ****** ****** ****** ****** ****** ******
  20  ****** ****** ****** ****** ****** ****** ****** ****** ****** ******
      ****** ****** ****** ****** ****** ****** ****** ****** ****** ******
      ****** ****** ****** ****** ****** ****** ****** ****** ****** ******
  21  ****** ****** ****** ****** ****** ****** ****** ****** ****** ******
      ****** ****** ****** ****** ****** ****** ****** ****** ****** ******
      ****** ****** ****** ****** ****** ****** ****** ****** ****** ******
  22  ****** ****** ****** ****** ****** ****** ****** ****** ****** ******
      ****** ****** ****** ****** ****** ****** ****** ****** ****** ******
      ****** ****** ****** ****** ****** ****** ****** ****** ****** ******
  23  ****** ****** ****** ****** ****** ****** ****** ****** ****** ******
      ****** ****** ****** ****** ****** ****** ****** ****** ****** ******
      ****** ****** ****** ****** ****** ****** ****** ****** ****** ******
  24  ****** ****** ****** ****** ****** ****** ****** ****** ****** ******
      ****** ****** ****** ****** ****** ****** ****** ****** ****** ******
      ****** ****** ****** ****** ****** ****** ****** ****** ****** ******
  25  ****** ****** ****** ****** ****** ****** ****** ****** ****** ******
      ****** ****** ****** ****** ****** ****** ****** ****** ****** ******
      ****** ****** ****** ****** ****** ****** ****** ****** ****** ******

 HEAD WILL BE SAVED ON UNIT   51 AT END OF TIME STEP    1, STRESS PERIOD    7
1
  VOLUMETRIC BUDGET FOR ENTIRE MODEL AT END OF TIME STEP    1, STRESS PERIOD   7
  ------------------------------------------------------------------------------

     CUMULATIVE VOLUMES      L**3       RATES FOR THIS TIME STEP      L**3/T
     ------------------                 ------------------------

           IN:                                      IN:
           ---                                      ---
             STORAGE =    34405864.7329               STORAGE =       23486.8958
       CONSTANT HEAD =    17280242.9686         CONSTANT HEAD =       35600.7853
               WELLS =           0.0000                 WELLS =           0.0000
            RECHARGE =    15097200.0000              RECHARGE =           0.0000
      STREAM LEAKAGE =     5488169.8144        STREAM LEAKAGE =       11780.2869

            TOTAL IN =    72271477.5159              TOTAL IN =       70867.9680

          OUT:                                     OUT:
          ----                                     ----
             STORAGE =      697397.8857               STORAGE =           0.0000
       CONSTANT HEAD =           0.0000         CONSTANT HEAD =           0.0000
               WELLS =    19760633.3554                 WELLS =       30924.3089
            RECHARGE =           0.0000              RECHARGE =           0.0000
      STREAM LEAKAGE =    51813448.8884        STREAM LEAKAGE =       39943.6649

           TOTAL OUT =    72271480.1295             TOTAL OUT =       70867.9737

            IN - OUT =          -2.6137              IN - OUT =      -5.6602E-03

 PERCENT DISCREPANCY =          -0.00     PERCENT DISCREPANCY =          -0.00






         TIME SUMMARY AT END OF TIME STEP    1 IN STRESS PERIOD    7
                    SECONDS     MINUTES      HOURS       DAYS        YEARS
                    -----------------------------------------------------------
   TIME STEP LENGTH 7.86240E+06 1.31040E+05  2184.0      91.000     0.24914    
 STRESS PERIOD TIME 7.86240E+06 1.31040E+05  2184.0      91.000     0.24914    
         TOTAL TIME 5.52096E+07 9.20160E+05  15336.      639.00      1.7495    
1
1
                            STRESS PERIOD NO.    8, LENGTH =   91.00000    
                            -----------------------------------------------

                              NUMBER OF TIME STEPS =     1

                               MULTIPLIER FOR DELT =     1.500

                            INITIAL TIME STEP SIZE =   91.00000    

 WELL NO.  LAYER   ROW   COL   STRESS RATE         
 --------------------------------------------------
      1      1      6     15      -8201.    
      2      1     13     17     -0.1353E+05
      3      1      5      8      -7262.    
      4      1      3     21      -1929.    

      4 WELLS

                 RECHARGE =  1.000000E-03

 REUSING STREAM SEGMENT DATA FROM LAST STRESS PERIOD
 
 SOLVING FOR HEAD 


     6 CALLS TO PCG ROUTINE FOR TIME STEP   1 IN STRESS PERIOD    8
    22 TOTAL ITERATIONS

 OUTPUT CONTROL FOR STRESS PERIOD    8   TIME STEP    1
    SAVE BUDGET
    SAVE HEAD FOR ALL LAYERS
    PRINT HEAD FOR ALL LAYERS
 UBDSV2 SAVING "STREAMFLOW OUT  " ON UNIT  50 AT TIME STEP  1, STRESS PERIOD   8



 STREAM LISTING     PERIOD      8   STEP        1

 LAYER ROW COL. STREAM  RCH.  FLOW INTO     FLOW TO   FLOW OUT OF   OVRLND.     DIRECT     STREAM       STREAM     STREAM     STREAM   STREAMBED  STREAMBED
                SEG.NO.  NO.  STRM. RCH.    AQUIFER    STRM. RCH.    RUNOFF     PRECIP       ET          HEAD       DEPTH      WIDTH   CONDCTNC.   GRADIENT

   1   13    1     1     1    1.0000E+05 -1.1543E+03   1.0115E+05  0.000E+00  0.000E+00  0.000E+00  4.84065E+01  1.452E-01  2.000E+01  2.000E+04 -5.771E-02
   1   13    2     1     2    1.0115E+05 -2.0552E+03   1.0321E+05  0.000E+00  0.000E+00  0.000E+00  4.79306E+01  1.465E-01  2.000E+01  2.000E+04 -1.028E-01
   1   14    3     1     3    1.0321E+05 -4.0817E+02   1.0362E+05  0.000E+00  0.000E+00  0.000E+00  4.74544E+01  1.476E-01  2.000E+01  2.000E+04 -2.041E-02
   1   15    4     1     4    1.0362E+05 -4.0305E+02   1.0402E+05  0.000E+00  0.000E+00  0.000E+00  4.69775E+01  1.479E-01  2.000E+01  2.000E+04 -2.015E-02
   1   16    5     1     5    1.0402E+05 -1.6307E+03   1.0565E+05  0.000E+00  0.000E+00  0.000E+00  4.65011E+01  1.488E-01  2.000E+01  2.000E+04 -8.154E-02
   1   16    6     1     6    1.0565E+05 -1.0206E+03   1.0667E+05  0.000E+00  0.000E+00  0.000E+00  4.60249E+01  1.499E-01  2.000E+01  2.000E+04 -5.103E-02
   1   16    7     1     7    1.0667E+05 -9.9948E+02   1.0767E+05  0.000E+00  0.000E+00  0.000E+00  4.55485E+01  1.508E-01  2.000E+01  2.000E+04 -4.997E-02
   1   16    8     1     8    1.0767E+05 -9.9498E+02   1.0867E+05  0.000E+00  0.000E+00  0.000E+00  4.50721E+01  1.516E-01  2.000E+01  2.000E+04 -4.975E-02
   1   16    9     1     9    1.0867E+05 -9.8817E+02   1.0965E+05  0.000E+00  0.000E+00  0.000E+00  4.45956E+01  1.525E-01  2.000E+01  2.000E+04 -4.941E-02
   1   16   10     1    10    1.0965E+05 -9.7773E+02   1.1063E+05  0.000E+00  0.000E+00  0.000E+00  4.41192E+01  1.533E-01  2.000E+01  2.000E+04 -4.889E-02
   1   16   11     1    11    1.1063E+05 -9.7674E+02   1.1161E+05  0.000E+00  0.000E+00  0.000E+00  4.36427E+01  1.541E-01  2.000E+01  2.000E+04 -4.884E-02
   1   16   12     1    12    1.1161E+05 -1.5089E+03   1.1312E+05  0.000E+00  0.000E+00  0.000E+00  4.31665E+01  1.551E-01  2.000E+01  2.000E+04 -7.544E-02
   1   15   13     1    13    1.1312E+05 -1.0453E+03   1.1416E+05  0.000E+00  0.000E+00  0.000E+00  4.26903E+01  1.562E-01  2.000E+01  2.000E+04 -5.227E-02
   1   14   14     1    14    1.1416E+05 -7.1667E+02   1.1488E+05  0.000E+00  0.000E+00  0.000E+00  4.22137E+01  1.569E-01  2.000E+01  2.000E+04 -3.583E-02
   1   13   15     1    15    1.1488E+05  5.0976E+02   1.1437E+05  0.000E+00  0.000E+00  0.000E+00  4.17365E+01  1.570E-01  2.000E+01  2.000E+04  2.549E-02
   1   12   16     1    16    1.1437E+05  1.2495E+02   1.1425E+05  0.000E+00  0.000E+00  0.000E+00  4.12590E+01  1.567E-01  2.000E+01  2.000E+04  6.248E-03
   1   12   17     1    17    1.1425E+05  3.3240E+03   1.1092E+05  0.000E+00  0.000E+00  0.000E+00  4.07803E+01  1.553E-01  2.000E+01  2.000E+04  1.662E-01
   1   12   18     1    18    1.1092E+05  5.2202E+02   1.1040E+05  0.000E+00  0.000E+00  0.000E+00  4.03014E+01  1.537E-01  2.000E+01  2.000E+04  2.610E-02
   1   12   19     1    19    1.1040E+05 -9.8556E+02   1.1138E+05  0.000E+00  0.000E+00  0.000E+00  3.98244E+01  1.539E-01  2.000E+01  2.000E+04 -4.928E-02
   1   13   20     1    20    1.1138E+05 -6.8169E+02   1.1207E+05  0.000E+00  0.000E+00  0.000E+00  3.93478E+01  1.546E-01  2.000E+01  2.000E+04 -3.408E-02
   1   14   21     1    21    1.1207E+05 -1.1259E+03   1.1319E+05  0.000E+00  0.000E+00  0.000E+00  3.88713E+01  1.554E-01  2.000E+01  2.000E+04 -5.629E-02
   1   14   22     1    22    1.1319E+05  4.8054E+03   1.0839E+05  0.000E+00  0.000E+00  0.000E+00  3.83925E+01  1.538E-01  2.000E+01  2.000E+04  2.403E-01
   1    9   30     2     1    5.0000E+04 -5.5290E+02   5.0553E+04  0.000E+00  0.000E+00  0.000E+00  4.02412E+01  1.162E-01  2.000E+01  2.000E+04 -2.764E-02
   1    9   29     2     2    5.0553E+04 -8.3606E+02   5.1389E+04  0.000E+00  0.000E+00  0.000E+00  3.99922E+01  1.172E-01  2.000E+01  2.000E+04 -4.180E-02
   1    9   28     2     3    5.1389E+04 -1.0496E+03   5.2439E+04  0.000E+00  0.000E+00  0.000E+00  3.97435E+01  1.185E-01  2.000E+01  2.000E+04 -5.248E-02
   1    9   27     2     4    5.2439E+04 -2.0650E+03   5.4504E+04  0.000E+00  0.000E+00  0.000E+00  3.94956E+01  1.206E-01  2.000E+01  2.000E+04 -1.032E-01
   1   10   26     2     5    5.4504E+04 -1.3230E+03   5.5826E+04  0.000E+00  0.000E+00  0.000E+00  3.92479E+01  1.229E-01  2.000E+01  2.000E+04 -6.615E-02
   1   11   25     2     6    5.5826E+04 -1.1348E+03   5.6961E+04  0.000E+00  0.000E+00  0.000E+00  3.89995E+01  1.245E-01  2.000E+01  2.000E+04 -5.674E-02
   1   12   24     2     7    5.6961E+04 -1.1988E+03   5.8160E+04  0.000E+00  0.000E+00  0.000E+00  3.87511E+01  1.261E-01  2.000E+01  2.000E+04 -5.994E-02
   1   13   23     2     8    5.8160E+04 -2.1049E+02   5.8371E+04  0.000E+00  0.000E+00  0.000E+00  3.85020E+01  1.270E-01  2.000E+01  2.000E+04 -1.052E-02
   1   14   22     2     9    5.8371E+04  1.9732E+03   5.6397E+04  0.000E+00  0.000E+00  0.000E+00  3.82508E+01  1.258E-01  2.000E+01  2.000E+04  9.866E-02
   1   14   22     3     1    1.6478E+05 -8.6424E+03   1.7343E+05  0.000E+00  0.000E+00  0.000E+00  3.77201E+01  1.645E-01  2.000E+01  2.000E+04 -4.321E-01
   1   15   23     3     2    1.7343E+05 -5.1334E+02   1.7394E+05  0.000E+00  0.000E+00  0.000E+00  3.68338E+01  1.672E-01  2.000E+01  2.000E+04 -2.567E-02
   1   15   24     3     3    1.7394E+05 -2.7923E+02   1.7422E+05  0.000E+00  0.000E+00  0.000E+00  3.59452E+01  1.674E-01  2.000E+01  2.000E+04 -1.396E-02
   1   15   25     3     4    1.7422E+05 -2.7443E+02   1.7449E+05  0.000E+00  0.000E+00  0.000E+00  3.50564E+01  1.676E-01  2.000E+01  2.000E+04 -1.372E-02
   1   15   26     3     5    1.7449E+05 -3.3336E+02   1.7483E+05  0.000E+00  0.000E+00  0.000E+00  3.41677E+01  1.677E-01  2.000E+01  2.000E+04 -1.667E-02
   1   16   27     3     6    1.7483E+05 -3.6482E+02   1.7519E+05  0.000E+00  0.000E+00  0.000E+00  3.32790E+01  1.679E-01  2.000E+01  2.000E+04 -1.824E-02
   1   17   28     3     7    1.7519E+05 -1.5535E+03   1.7675E+05  0.000E+00  0.000E+00  0.000E+00  3.23907E+01  1.685E-01  2.000E+01  2.000E+04 -7.767E-02
   1   18   29     3     8    1.7675E+05 -2.8900E+03   1.7964E+05  0.000E+00  0.000E+00  0.000E+00  3.15031E+01  1.698E-01  2.000E+01  2.000E+04 -1.445E-01
   1   18   30     3     9    1.7964E+05 -3.1725E+03   1.8281E+05  0.000E+00  0.000E+00  0.000E+00  3.06159E+01  1.715E-01  2.000E+01  2.000E+04 -1.586E-01



1
              HEAD IN LAYER   1 AT END OF TIME STEP   1 IN STRESS PERIOD    8
  ---------------------------------------------------------------------------

          1      2      3      4      5      6      7      8      9     10
         11     12     13     14     15     16     17     18     19     20
         21     22     23     24     25     26     27     28     29     30
 .........................................................................
   1  ****** ****** ****** ****** ****** ****** ****** ****** ****** ******
      ****** ****** ****** ****** ****** ****** ****** ****** ****** ******
      ****** ****** ****** ****** ****** ****** ****** ****** ****** ******
   2  ****** ****** ****** ****** ****** ****** ****** ****** ****** ******
      ****** ****** ****** ****** ****** ****** ****** ****** ****** ******
      ****** ****** ****** ****** ****** ****** ****** ****** ****** ******
   3  ****** ****** ****** ****** ****** ****** ****** ****** ****** ******
      ****** ****** ****** ****** ****** ****** ****** ****** ****** ******
      ****** ****** ****** ****** ****** ****** ****** ****** ****** ******
   4  ****** ****** ****** ****** ****** ****** ****** ****** ****** ******
      ****** ****** ****** ****** ****** ****** ****** ****** ****** ******
      ****** ****** ****** ****** ****** ****** ****** ****** ****** ******
   5  ****** ****** ****** ****** ****** ****** ****** ****** ****** ******
      ****** ****** ****** ****** ****** ****** ****** ****** ****** ******
      ****** ****** ****** ****** ****** ****** ****** ****** ****** ******
   6  ****** ****** ****** ****** ****** ****** ****** ****** ****** ******
      ****** ****** ****** ****** ****** ****** ****** ****** ****** ******
      ****** ****** ****** ****** ****** ****** ****** ****** ****** ******
   7  ****** ****** ****** ****** ****** ****** ****** ****** ****** ******
      ****** ****** ****** ****** ****** ****** ****** ****** ****** ******
      ****** ****** ****** ****** ****** ****** ****** ****** ****** ******
   8  ****** ****** ****** ****** ****** ****** ****** ****** ****** ******
      ****** ****** ****** ****** ****** ****** ****** ****** ****** ******
      ****** ****** ****** ****** ****** ****** ****** ****** ****** ******
   9  ****** ****** ****** ****** ****** ****** ****** ****** ****** ******
      ****** ****** ****** ****** ****** ****** ****** ****** ****** ******
      ****** ****** ****** ****** ****** ****** ****** ****** ****** ******
  10  ****** ****** ****** ****** ****** ****** ****** ****** ****** ******
      ****** ****** ****** ****** ****** ****** ****** ****** ****** ******
      ****** ****** ****** ****** ****** ****** ****** ****** ****** ******
  11  ****** ****** ****** ****** ****** ****** ****** ****** ****** ******
      ****** ****** ****** ****** ****** ****** ****** ****** ****** ******
      ****** ****** ****** ****** ****** ****** ****** ****** ****** ******
  12  ****** ****** ****** ****** ****** ****** ****** ****** ****** ******
      ****** ****** ****** ****** ****** ****** ****** ****** ****** ******
      ****** ****** ****** ****** ****** ****** ****** ****** ****** ******
  13  ****** ****** ****** ****** ****** ****** ****** ****** ****** ******
      ****** ****** ****** ****** ****** ****** ****** ****** ****** ******
      ****** ****** ****** ****** ****** ****** ****** ****** ****** ******
  14  ****** ****** ****** ****** ****** ****** ****** ****** ****** ******
      ****** ****** ****** ****** ****** ****** ****** ****** ****** ******
      ****** ****** ****** ****** ****** ****** ****** ****** ****** ******
  15  ****** ****** ****** ****** ****** ****** ****** ****** ****** ******
      ****** ****** ****** ****** ****** ****** ****** ****** ****** ******
      ****** ****** ****** ****** ****** ****** ****** ****** ****** ******
  16  ****** ****** ****** ****** ****** ****** ****** ****** ****** ******
      ****** ****** ****** ****** ****** ****** ****** ****** ****** ******
      ****** ****** ****** ****** ****** ****** ****** ****** ****** ******
  17  ****** ****** ****** ****** ****** ****** ****** ****** ****** ******
      ****** ****** ****** ****** ****** ****** ****** ****** ****** ******
      ****** ****** ****** ****** ****** ****** ****** ****** ****** ******
  18  ****** ****** ****** ****** ****** ****** ****** ****** ****** ******
      ****** ****** ****** ****** ****** ****** ****** ****** ****** ******
      ****** ****** ****** ****** ****** ****** ****** ****** ****** ******
  19  ****** ****** ****** ****** ****** ****** ****** ****** ****** ******
      ****** ****** ****** ****** ****** ****** ****** ****** ****** ******
      ****** ****** ****** ****** ****** ****** ****** ****** ****** ******
  20  ****** ****** ****** ****** ****** ****** ****** ****** ****** ******
      ****** ****** ****** ****** ****** ****** ****** ****** ****** ******
      ****** ****** ****** ****** ****** ****** ****** ****** ****** ******
  21  ****** ****** ****** ****** ****** ****** ****** ****** ****** ******
      ****** ****** ****** ****** ****** ****** ****** ****** ****** ******
      ****** ****** ****** ****** ****** ****** ****** ****** ****** ******
  22  ****** ****** ****** ****** ****** ****** ****** ****** ****** ******
      ****** ****** ****** ****** ****** ****** ****** ****** ****** ******
      ****** ****** ****** ****** ****** ****** ****** ****** ****** ******
  23  ****** ****** ****** ****** ****** ****** ****** ****** ****** ******
      ****** ****** ****** ****** ****** ****** ****** ****** ****** ******
      ****** ****** ****** ****** ****** ****** ****** ****** ****** ******
  24  ****** ****** ****** ****** ****** ****** ****** ****** ****** ******
      ****** ****** ****** ****** ****** ****** ****** ****** ****** ******
      ****** ****** ****** ****** ****** ****** ****** ****** ****** ******
  25  ****** ****** ****** ****** ****** ****** ****** ****** ****** ******
      ****** ****** ****** ****** ****** ****** ****** ****** ****** ******
      ****** ****** ****** ****** ****** ****** ****** ****** ****** ******

 HEAD WILL BE SAVED ON UNIT   51 AT END OF TIME STEP    1, STRESS PERIOD    8
1
  VOLUMETRIC BUDGET FOR ENTIRE MODEL AT END OF TIME STEP    1, STRESS PERIOD   8
  ------------------------------------------------------------------------------

     CUMULATIVE VOLUMES      L**3       RATES FOR THIS TIME STEP      L**3/T
     ------------------                 ------------------------

           IN:                                      IN:
           ---                                      ---
             STORAGE =    34611672.9729               STORAGE =        2261.6290
       CONSTANT HEAD =    20501257.4529         CONSTANT HEAD =       35395.7636
               WELLS =           0.0000                 WELLS =           0.0000
            RECHARGE =    17608800.0000              RECHARGE =       27600.0000
      STREAM LEAKAGE =     6512769.5498        STREAM LEAKAGE =       11259.3378

            TOTAL IN =    79234499.9756              TOTAL IN =       76516.7303

          OUT:                                     OUT:
          ----                                     ----
             STORAGE =      836178.1029               STORAGE =        1525.0573
       CONSTANT HEAD =           0.0000         CONSTANT HEAD =           0.0000
               WELLS =    22574745.4608                 WELLS =       30924.3089
            RECHARGE =           0.0000              RECHARGE =           0.0000
      STREAM LEAKAGE =    55823578.3586        STREAM LEAKAGE =       44067.3568

           TOTAL OUT =    79234501.9223             TOTAL OUT =       76516.7230

            IN - OUT =          -1.9466              IN - OUT =       7.3299E-03

 PERCENT DISCREPANCY =          -0.00     PERCENT DISCREPANCY =           0.00






         TIME SUMMARY AT END OF TIME STEP    1 IN STRESS PERIOD    8
                    SECONDS     MINUTES      HOURS       DAYS        YEARS
                    -----------------------------------------------------------
   TIME STEP LENGTH 7.86240E+06 1.31040E+05  2184.0      91.000     0.24914    
 STRESS PERIOD TIME 7.86240E+06 1.31040E+05  2184.0      91.000     0.24914    
         TOTAL TIME 6.30720E+07 1.05120E+06  17520.      730.00      1.9986    
1
1
                            STRESS PERIOD NO.    9, LENGTH =   92.00000    
                            -----------------------------------------------

                              NUMBER OF TIME STEPS =     1

                               MULTIPLIER FOR DELT =     1.500

                            INITIAL TIME STEP SIZE =   92.00000    

 WELL NO.  LAYER   ROW   COL   STRESS RATE         
 --------------------------------------------------
      1      1      6     15      -8201.    
      2      1     13     17     -0.1353E+05
      3      1      5      8      -7262.    
      4      1      3     21      -1929.    

      4 WELLS

                 RECHARGE =  5.000000E-04

 REUSING STREAM SEGMENT DATA FROM LAST STRESS PERIOD
 
 SOLVING FOR HEAD 


     6 CALLS TO PCG ROUTINE FOR TIME STEP   1 IN STRESS PERIOD    9
    23 TOTAL ITERATIONS

 OUTPUT CONTROL FOR STRESS PERIOD    9   TIME STEP    1
    SAVE BUDGET
    SAVE HEAD FOR ALL LAYERS
    PRINT HEAD FOR ALL LAYERS
 UBDSV2 SAVING "STREAMFLOW OUT  " ON UNIT  50 AT TIME STEP  1, STRESS PERIOD   9



 STREAM LISTING     PERIOD      9   STEP        1

 LAYER ROW COL. STREAM  RCH.  FLOW INTO     FLOW TO   FLOW OUT OF   OVRLND.     DIRECT     STREAM       STREAM     STREAM     STREAM   STREAMBED  STREAMBED
                SEG.NO.  NO.  STRM. RCH.    AQUIFER    STRM. RCH.    RUNOFF     PRECIP       ET          HEAD       DEPTH      WIDTH   CONDCTNC.   GRADIENT

   1   13    1     1     1    1.0000E+05 -9.1905E+02   1.0092E+05  0.000E+00  0.000E+00  0.000E+00  4.84064E+01  1.451E-01  2.000E+01  2.000E+04 -4.595E-02
   1   13    2     1     2    1.0092E+05 -1.7879E+03   1.0271E+05  0.000E+00  0.000E+00  0.000E+00  4.79303E+01  1.462E-01  2.000E+01  2.000E+04 -8.939E-02
   1   14    3     1     3    1.0271E+05 -3.3379E+02   1.0304E+05  0.000E+00  0.000E+00  0.000E+00  4.74540E+01  1.471E-01  2.000E+01  2.000E+04 -1.669E-02
   1   15    4     1     4    1.0304E+05 -3.2844E+02   1.0337E+05  0.000E+00  0.000E+00  0.000E+00  4.69770E+01  1.474E-01  2.000E+01  2.000E+04 -1.642E-02
   1   16    5     1     5    1.0337E+05 -1.4370E+03   1.0481E+05  0.000E+00  0.000E+00  0.000E+00  4.65004E+01  1.482E-01  2.000E+01  2.000E+04 -7.185E-02
   1   16    6     1     6    1.0481E+05 -8.9847E+02   1.0570E+05  0.000E+00  0.000E+00  0.000E+00  4.60242E+01  1.492E-01  2.000E+01  2.000E+04 -4.492E-02
   1   16    7     1     7    1.0570E+05 -8.8080E+02   1.0659E+05  0.000E+00  0.000E+00  0.000E+00  4.55476E+01  1.499E-01  2.000E+01  2.000E+04 -4.404E-02
   1   16    8     1     8    1.0659E+05 -8.7792E+02   1.0746E+05  0.000E+00  0.000E+00  0.000E+00  4.50711E+01  1.507E-01  2.000E+01  2.000E+04 -4.390E-02
   1   16    9     1     9    1.0746E+05 -8.7308E+02   1.0834E+05  0.000E+00  0.000E+00  0.000E+00  4.45946E+01  1.514E-01  2.000E+01  2.000E+04 -4.365E-02
   1   16   10     1    10    1.0834E+05 -8.6527E+02   1.0920E+05  0.000E+00  0.000E+00  0.000E+00  4.41180E+01  1.521E-01  2.000E+01  2.000E+04 -4.326E-02
   1   16   11     1    11    1.0920E+05 -8.6608E+02   1.1007E+05  0.000E+00  0.000E+00  0.000E+00  4.36415E+01  1.529E-01  2.000E+01  2.000E+04 -4.330E-02
   1   16   12     1    12    1.1007E+05 -1.3187E+03   1.1139E+05  0.000E+00  0.000E+00  0.000E+00  4.31651E+01  1.538E-01  2.000E+01  2.000E+04 -6.594E-02
   1   15   13     1    13    1.1139E+05 -8.2906E+02   1.1222E+05  0.000E+00  0.000E+00  0.000E+00  4.26888E+01  1.547E-01  2.000E+01  2.000E+04 -4.145E-02
   1   14   14     1    14    1.1222E+05 -4.8366E+02   1.1270E+05  0.000E+00  0.000E+00  0.000E+00  4.22120E+01  1.552E-01  2.000E+01  2.000E+04 -2.418E-02
   1   13   15     1    15    1.1270E+05  7.5136E+02   1.1195E+05  0.000E+00  0.000E+00  0.000E+00  4.17346E+01  1.551E-01  2.000E+01  2.000E+04  3.757E-02
   1   12   16     1    16    1.1195E+05  3.7957E+02   1.1157E+05  0.000E+00  0.000E+00  0.000E+00  4.12569E+01  1.546E-01  2.000E+01  2.000E+04  1.898E-02
   1   12   17     1    17    1.1157E+05  3.4952E+03   1.0807E+05  0.000E+00  0.000E+00  0.000E+00  4.07780E+01  1.530E-01  2.000E+01  2.000E+04  1.748E-01
   1   12   18     1    18    1.0807E+05  6.8416E+02   1.0739E+05  0.000E+00  0.000E+00  0.000E+00  4.02990E+01  1.513E-01  2.000E+01  2.000E+04  3.421E-02
   1   12   19     1    19    1.0739E+05 -7.9053E+02   1.0818E+05  0.000E+00  0.000E+00  0.000E+00  3.98218E+01  1.513E-01  2.000E+01  2.000E+04 -3.953E-02
   1   13   20     1    20    1.0818E+05 -5.0542E+02   1.0868E+05  0.000E+00  0.000E+00  0.000E+00  3.93450E+01  1.519E-01  2.000E+01  2.000E+04 -2.527E-02
   1   14   21     1    21    1.0868E+05 -9.5456E+02   1.0964E+05  0.000E+00  0.000E+00  0.000E+00  3.88684E+01  1.525E-01  2.000E+01  2.000E+04 -4.773E-02
   1   14   22     1    22    1.0964E+05  4.8420E+03   1.0480E+05  0.000E+00  0.000E+00  0.000E+00  3.83895E+01  1.508E-01  2.000E+01  2.000E+04  2.421E-01
   1    9   30     2     1    5.0000E+04 -4.2792E+02   5.0428E+04  0.000E+00  0.000E+00  0.000E+00  4.02412E+01  1.162E-01  2.000E+01  2.000E+04 -2.140E-02
   1    9   29     2     2    5.0428E+04 -7.1071E+02   5.1139E+04  0.000E+00  0.000E+00  0.000E+00  3.99920E+01  1.170E-01  2.000E+01  2.000E+04 -3.554E-02
   1    9   28     2     3    5.1139E+04 -9.2191E+02   5.2061E+04  0.000E+00  0.000E+00  0.000E+00  3.97431E+01  1.181E-01  2.000E+01  2.000E+04 -4.610E-02
   1    9   27     2     4    5.2061E+04 -1.8836E+03   5.3944E+04  0.000E+00  0.000E+00  0.000E+00  3.94950E+01  1.200E-01  2.000E+01  2.000E+04 -9.418E-02
   1   10   26     2     5    5.3944E+04 -1.1451E+03   5.5089E+04  0.000E+00  0.000E+00  0.000E+00  3.92470E+01  1.220E-01  2.000E+01  2.000E+04 -5.726E-02
   1   11   25     2     6    5.5089E+04 -9.6457E+02   5.6054E+04  0.000E+00  0.000E+00  0.000E+00  3.89984E+01  1.234E-01  2.000E+01  2.000E+04 -4.823E-02
   1   12   24     2     7    5.6054E+04 -1.0420E+03   5.7096E+04  0.000E+00  0.000E+00  0.000E+00  3.87498E+01  1.248E-01  2.000E+01  2.000E+04 -5.210E-02
   1   13   23     2     8    5.7096E+04 -1.6272E+02   5.7258E+04  0.000E+00  0.000E+00  0.000E+00  3.85006E+01  1.256E-01  2.000E+01  2.000E+04 -8.136E-03
   1   14   22     2     9    5.7258E+04  2.0393E+03   5.5219E+04  0.000E+00  0.000E+00  0.000E+00  3.82493E+01  1.243E-01  2.000E+01  2.000E+04  1.020E-01
   1   14   22     3     1    1.6002E+05 -8.6022E+03   1.6862E+05  0.000E+00  0.000E+00  0.000E+00  3.77173E+01  1.617E-01  2.000E+01  2.000E+04 -4.301E-01
   1   15   23     3     2    1.6862E+05 -4.6113E+02   1.6908E+05  0.000E+00  0.000E+00  0.000E+00  3.68310E+01  1.644E-01  2.000E+01  2.000E+04 -2.306E-02
   1   15   24     3     3    1.6908E+05 -2.3644E+02   1.6932E+05  0.000E+00  0.000E+00  0.000E+00  3.59423E+01  1.646E-01  2.000E+01  2.000E+04 -1.182E-02
   1   15   25     3     4    1.6932E+05 -2.3136E+02   1.6955E+05  0.000E+00  0.000E+00  0.000E+00  3.50536E+01  1.647E-01  2.000E+01  2.000E+04 -1.157E-02
   1   15   26     3     5    1.6955E+05 -2.8590E+02   1.6983E+05  0.000E+00  0.000E+00  0.000E+00  3.41649E+01  1.649E-01  2.000E+01  2.000E+04 -1.429E-02
   1   16   27     3     6    1.6983E+05 -3.0906E+02   1.7014E+05  0.000E+00  0.000E+00  0.000E+00  3.32761E+01  1.650E-01  2.000E+01  2.000E+04 -1.545E-02
   1   17   28     3     7    1.7014E+05 -1.4008E+03   1.7154E+05  0.000E+00  0.000E+00  0.000E+00  3.23877E+01  1.655E-01  2.000E+01  2.000E+04 -7.004E-02
   1   18   29     3     8    1.7154E+05 -2.7158E+03   1.7426E+05  0.000E+00  0.000E+00  0.000E+00  3.15001E+01  1.667E-01  2.000E+01  2.000E+04 -1.358E-01
   1   18   30     3     9    1.7426E+05 -3.0414E+03   1.7730E+05  0.000E+00  0.000E+00  0.000E+00  3.06128E+01  1.684E-01  2.000E+01  2.000E+04 -1.521E-01



1
              HEAD IN LAYER   1 AT END OF TIME STEP   1 IN STRESS PERIOD    9
  ---------------------------------------------------------------------------

          1      2      3      4      5      6      7      8      9     10
         11     12     13     14     15     16     17     18     19     20
         21     22     23     24     25     26     27     28     29     30
 .........................................................................
   1  ****** ****** ****** ****** ****** ****** ****** ****** ****** ******
      ****** ****** ****** ****** ****** ****** ****** ****** ****** ******
      ****** ****** ****** ****** ****** ****** ****** ****** ****** ******
   2  ****** ****** ****** ****** ****** ****** ****** ****** ****** ******
      ****** ****** ****** ****** ****** ****** ****** ****** ****** ******
      ****** ****** ****** ****** ****** ****** ****** ****** ****** ******
   3  ****** ****** ****** ****** ****** ****** ****** ****** ****** ******
      ****** ****** ****** ****** ****** ****** ****** ****** ****** ******
      ****** ****** ****** ****** ****** ****** ****** ****** ****** ******
   4  ****** ****** ****** ****** ****** ****** ****** ****** ****** ******
      ****** ****** ****** ****** ****** ****** ****** ****** ****** ******
      ****** ****** ****** ****** ****** ****** ****** ****** ****** ******
   5  ****** ****** ****** ****** ****** ****** ****** ****** ****** ******
      ****** ****** ****** ****** ****** ****** ****** ****** ****** ******
      ****** ****** ****** ****** ****** ****** ****** ****** ****** ******
   6  ****** ****** ****** ****** ****** ****** ****** ****** ****** ******
      ****** ****** ****** ****** ****** ****** ****** ****** ****** ******
      ****** ****** ****** ****** ****** ****** ****** ****** ****** ******
   7  ****** ****** ****** ****** ****** ****** ****** ****** ****** ******
      ****** ****** ****** ****** ****** ****** ****** ****** ****** ******
      ****** ****** ****** ****** ****** ****** ****** ****** ****** ******
   8  ****** ****** ****** ****** ****** ****** ****** ****** ****** ******
      ****** ****** ****** ****** ****** ****** ****** ****** ****** ******
      ****** ****** ****** ****** ****** ****** ****** ****** ****** ******
   9  ****** ****** ****** ****** ****** ****** ****** ****** ****** ******
      ****** ****** ****** ****** ****** ****** ****** ****** ****** ******
      ****** ****** ****** ****** ****** ****** ****** ****** ****** ******
  10  ****** ****** ****** ****** ****** ****** ****** ****** ****** ******
      ****** ****** ****** ****** ****** ****** ****** ****** ****** ******
      ****** ****** ****** ****** ****** ****** ****** ****** ****** ******
  11  ****** ****** ****** ****** ****** ****** ****** ****** ****** ******
      ****** ****** ****** ****** ****** ****** ****** ****** ****** ******
      ****** ****** ****** ****** ****** ****** ****** ****** ****** ******
  12  ****** ****** ****** ****** ****** ****** ****** ****** ****** ******
      ****** ****** ****** ****** ****** ****** ****** ****** ****** ******
      ****** ****** ****** ****** ****** ****** ****** ****** ****** ******
  13  ****** ****** ****** ****** ****** ****** ****** ****** ****** ******
      ****** ****** ****** ****** ****** ****** ****** ****** ****** ******
      ****** ****** ****** ****** ****** ****** ****** ****** ****** ******
  14  ****** ****** ****** ****** ****** ****** ****** ****** ****** ******
      ****** ****** ****** ****** ****** ****** ****** ****** ****** ******
      ****** ****** ****** ****** ****** ****** ****** ****** ****** ******
  15  ****** ****** ****** ****** ****** ****** ****** ****** ****** ******
      ****** ****** ****** ****** ****** ****** ****** ****** ****** ******
      ****** ****** ****** ****** ****** ****** ****** ****** ****** ******
  16  ****** ****** ****** ****** ****** ****** ****** ****** ****** ******
      ****** ****** ****** ****** ****** ****** ****** ****** ****** ******
      ****** ****** ****** ****** ****** ****** ****** ****** ****** ******
  17  ****** ****** ****** ****** ****** ****** ****** ****** ****** ******
      ****** ****** ****** ****** ****** ****** ****** ****** ****** ******
      ****** ****** ****** ****** ****** ****** ****** ****** ****** ******
  18  ****** ****** ****** ****** ****** ****** ****** ****** ****** ******
      ****** ****** ****** ****** ****** ****** ****** ****** ****** ******
      ****** ****** ****** ****** ****** ****** ****** ****** ****** ******
  19  ****** ****** ****** ****** ****** ****** ****** ****** ****** ******
      ****** ****** ****** ****** ****** ****** ****** ****** ****** ******
      ****** ****** ****** ****** ****** ****** ****** ****** ****** ******
  20  ****** ****** ****** ****** ****** ****** ****** ****** ****** ******
      ****** ****** ****** ****** ****** ****** ****** ****** ****** ******
      ****** ****** ****** ****** ****** ****** ****** ****** ****** ******
  21  ****** ****** ****** ****** ****** ****** ****** ****** ****** ******
      ****** ****** ****** ****** ****** ****** ****** ****** ****** ******
      ****** ****** ****** ****** ****** ****** ****** ****** ****** ******
  22  ****** ****** ****** ****** ****** ****** ****** ****** ****** ******
      ****** ****** ****** ****** ****** ****** ****** ****** ****** ******
      ****** ****** ****** ****** ****** ****** ****** ****** ****** ******
  23  ****** ****** ****** ****** ****** ****** ****** ****** ****** ******
      ****** ****** ****** ****** ****** ****** ****** ****** ****** ******
      ****** ****** ****** ****** ****** ****** ****** ****** ****** ******
  24  ****** ****** ****** ****** ****** ****** ****** ****** ****** ******
      ****** ****** ****** ****** ****** ****** ****** ****** ****** ******
      ****** ****** ****** ****** ****** ****** ****** ****** ****** ******
  25  ****** ****** ****** ****** ****** ****** ****** ****** ****** ******
      ****** ****** ****** ****** ****** ****** ****** ****** ****** ******
      ****** ****** ****** ****** ****** ****** ****** ****** ****** ******

 HEAD WILL BE SAVED ON UNIT   51 AT END OF TIME STEP    1, STRESS PERIOD    9
1
  VOLUMETRIC BUDGET FOR ENTIRE MODEL AT END OF TIME STEP    1, STRESS PERIOD   9
  ------------------------------------------------------------------------------

     CUMULATIVE VOLUMES      L**3       RATES FOR THIS TIME STEP      L**3/T
     ------------------                 ------------------------

           IN:                                      IN:
           ---                                      ---
             STORAGE =    35329038.3055               STORAGE =        7797.4493
       CONSTANT HEAD =    23870992.6909         CONSTANT HEAD =       36627.5569
               WELLS =           0.0000                 WELLS =           0.0000
            RECHARGE =    18878400.0000              RECHARGE =       13800.0000
      STREAM LEAKAGE =     7634400.3655        STREAM LEAKAGE =       12191.6393

            TOTAL IN =    85712831.3618              TOTAL IN =       70416.6455

          OUT:                                     OUT:
          ----                                     ----
             STORAGE =      836178.1029               STORAGE =           0.0000
       CONSTANT HEAD =           0.0000         CONSTANT HEAD =           0.0000
               WELLS =    25419781.8751                 WELLS =       30924.3089
            RECHARGE =           0.0000              RECHARGE =           0.0000
      STREAM LEAKAGE =    59456873.4083        STREAM LEAKAGE =       39492.3375

           TOTAL OUT =    85712833.3862             TOTAL OUT =       70416.6463

            IN - OUT =          -2.0244              IN - OUT =      -8.4570E-04

 PERCENT DISCREPANCY =          -0.00     PERCENT DISCREPANCY =          -0.00






         TIME SUMMARY AT END OF TIME STEP    1 IN STRESS PERIOD    9
                    SECONDS     MINUTES      HOURS       DAYS        YEARS
                    -----------------------------------------------------------
   TIME STEP LENGTH 7.94880E+06 1.32480E+05  2208.0      92.000     0.25188    
 STRESS PERIOD TIME 7.94880E+06 1.32480E+05  2208.0      92.000     0.25188    
         TOTAL TIME 7.10208E+07 1.18368E+06  19728.      822.00      2.2505    
1
1
                            STRESS PERIOD NO.   10, LENGTH =   91.00000    
                            -----------------------------------------------

                              NUMBER OF TIME STEPS =     1

                               MULTIPLIER FOR DELT =     1.500

                            INITIAL TIME STEP SIZE =   91.00000    

 WELL NO.  LAYER   ROW   COL   STRESS RATE         
 --------------------------------------------------
      1      1      6     15      -8201.    
      2      1     13     17     -0.1353E+05
      3      1      5      8      -7262.    
      4      1      3     21      -1929.    

      4 WELLS

                 RECHARGE =  2.000000E-03

 REUSING STREAM SEGMENT DATA FROM LAST STRESS PERIOD
 
 SOLVING FOR HEAD 


     7 CALLS TO PCG ROUTINE FOR TIME STEP   1 IN STRESS PERIOD   10
    26 TOTAL ITERATIONS

 OUTPUT CONTROL FOR STRESS PERIOD   10   TIME STEP    1
    SAVE BUDGET
    SAVE HEAD FOR ALL LAYERS
    PRINT HEAD FOR ALL LAYERS
 UBDSV2 SAVING "STREAMFLOW OUT  " ON UNIT  50 AT TIME STEP  1, STRESS PERIOD  10



 STREAM LISTING     PERIOD     10   STEP        1

 LAYER ROW COL. STREAM  RCH.  FLOW INTO     FLOW TO   FLOW OUT OF   OVRLND.     DIRECT     STREAM       STREAM     STREAM     STREAM   STREAMBED  STREAMBED
                SEG.NO.  NO.  STRM. RCH.    AQUIFER    STRM. RCH.    RUNOFF     PRECIP       ET          HEAD       DEPTH      WIDTH   CONDCTNC.   GRADIENT

   1   13    1     1     1    1.0000E+05 -1.3566E+03   1.0136E+05  0.000E+00  0.000E+00  0.000E+00  4.84066E+01  1.452E-01  2.000E+01  2.000E+04 -6.783E-02
   1   13    2     1     2    1.0136E+05 -2.2717E+03   1.0363E+05  0.000E+00  0.000E+00  0.000E+00  4.79309E+01  1.468E-01  2.000E+01  2.000E+04 -1.136E-01
   1   14    3     1     3    1.0363E+05 -5.1767E+02   1.0415E+05  0.000E+00  0.000E+00  0.000E+00  4.74548E+01  1.480E-01  2.000E+01  2.000E+04 -2.588E-02
   1   15    4     1     4    1.0415E+05 -5.2577E+02   1.0467E+05  0.000E+00  0.000E+00  0.000E+00  4.69780E+01  1.484E-01  2.000E+01  2.000E+04 -2.629E-02
   1   16    5     1     5    1.0467E+05 -2.0549E+03   1.0673E+05  0.000E+00  0.000E+00  0.000E+00  4.65018E+01  1.495E-01  2.000E+01  2.000E+04 -1.027E-01
   1   16    6     1     6    1.0673E+05 -1.2590E+03   1.0799E+05  0.000E+00  0.000E+00  0.000E+00  4.60259E+01  1.509E-01  2.000E+01  2.000E+04 -6.295E-02
   1   16    7     1     7    1.0799E+05 -1.2233E+03   1.0921E+05  0.000E+00  0.000E+00  0.000E+00  4.55497E+01  1.520E-01  2.000E+01  2.000E+04 -6.117E-02
   1   16    8     1     8    1.0921E+05 -1.2151E+03   1.1042E+05  0.000E+00  0.000E+00  0.000E+00  4.50735E+01  1.530E-01  2.000E+01  2.000E+04 -6.075E-02
   1   16    9     1     9    1.1042E+05 -1.2090E+03   1.1163E+05  0.000E+00  0.000E+00  0.000E+00  4.45972E+01  1.540E-01  2.000E+01  2.000E+04 -6.045E-02
   1   16   10     1    10    1.1163E+05 -1.2018E+03   1.1283E+05  0.000E+00  0.000E+00  0.000E+00  4.41209E+01  1.550E-01  2.000E+01  2.000E+04 -6.009E-02
   1   16   11     1    11    1.1283E+05 -1.2066E+03   1.1404E+05  0.000E+00  0.000E+00  0.000E+00  4.36447E+01  1.560E-01  2.000E+01  2.000E+04 -6.033E-02
   1   16   12     1    12    1.1404E+05 -1.8866E+03   1.1593E+05  0.000E+00  0.000E+00  0.000E+00  4.31687E+01  1.573E-01  2.000E+01  2.000E+04 -9.433E-02
   1   15   13     1    13    1.1593E+05 -1.4107E+03   1.1734E+05  0.000E+00  0.000E+00  0.000E+00  4.26927E+01  1.586E-01  2.000E+01  2.000E+04 -7.053E-02
   1   14   14     1    14    1.1734E+05 -1.0702E+03   1.1841E+05  0.000E+00  0.000E+00  0.000E+00  4.22165E+01  1.597E-01  2.000E+01  2.000E+04 -5.351E-02
   1   13   15     1    15    1.1841E+05  1.7671E+02   1.1823E+05  0.000E+00  0.000E+00  0.000E+00  4.17396E+01  1.600E-01  2.000E+01  2.000E+04  8.835E-03
   1   12   16     1    16    1.1823E+05 -1.7037E+02   1.1840E+05  0.000E+00  0.000E+00  0.000E+00  4.12623E+01  1.600E-01  2.000E+01  2.000E+04 -8.519E-03
   1   12   17     1    17    1.1840E+05  3.0755E+03   1.1533E+05  0.000E+00  0.000E+00  0.000E+00  4.07838E+01  1.588E-01  2.000E+01  2.000E+04  1.538E-01
   1   12   18     1    18    1.1533E+05  2.6757E+02   1.1506E+05  0.000E+00  0.000E+00  0.000E+00  4.03052E+01  1.575E-01  2.000E+01  2.000E+04  1.338E-02
   1   12   19     1    19    1.1506E+05 -1.3035E+03   1.1636E+05  0.000E+00  0.000E+00  0.000E+00  3.98283E+01  1.579E-01  2.000E+01  2.000E+04 -6.517E-02
   1   13   20     1    20    1.1636E+05 -1.0246E+03   1.1739E+05  0.000E+00  0.000E+00  0.000E+00  3.93520E+01  1.588E-01  2.000E+01  2.000E+04 -5.123E-02
   1   14   21     1    21    1.1739E+05 -1.4794E+03   1.1887E+05  0.000E+00  0.000E+00  0.000E+00  3.88758E+01  1.599E-01  2.000E+01  2.000E+04 -7.397E-02
   1   14   22     1    22    1.1887E+05  4.7178E+03   1.1415E+05  0.000E+00  0.000E+00  0.000E+00  3.83972E+01  1.585E-01  2.000E+01  2.000E+04  2.359E-01
   1    9   30     2     1    5.0000E+04 -8.4104E+02   5.0841E+04  0.000E+00  0.000E+00  0.000E+00  4.02414E+01  1.164E-01  2.000E+01  2.000E+04 -4.205E-02
   1    9   29     2     2    5.0841E+04 -1.1214E+03   5.1962E+04  0.000E+00  0.000E+00  0.000E+00  3.99928E+01  1.178E-01  2.000E+01  2.000E+04 -5.607E-02
   1    9   28     2     3    5.1962E+04 -1.3316E+03   5.3294E+04  0.000E+00  0.000E+00  0.000E+00  3.97445E+01  1.195E-01  2.000E+01  2.000E+04 -6.658E-02
   1    9   27     2     4    5.3294E+04 -2.4333E+03   5.5727E+04  0.000E+00  0.000E+00  0.000E+00  3.94970E+01  1.220E-01  2.000E+01  2.000E+04 -1.217E-01
   1   10   26     2     5    5.5727E+04 -1.6953E+03   5.7423E+04  0.000E+00  0.000E+00  0.000E+00  3.92498E+01  1.248E-01  2.000E+01  2.000E+04 -8.476E-02
   1   11   25     2     6    5.7423E+04 -1.4903E+03   5.8913E+04  0.000E+00  0.000E+00  0.000E+00  3.90019E+01  1.269E-01  2.000E+01  2.000E+04 -7.452E-02
   1   12   24     2     7    5.8913E+04 -1.5175E+03   6.0430E+04  0.000E+00  0.000E+00  0.000E+00  3.87538E+01  1.288E-01  2.000E+01  2.000E+04 -7.588E-02
   1   13   23     2     8    6.0430E+04 -3.1102E+02   6.0741E+04  0.000E+00  0.000E+00  0.000E+00  3.85050E+01  1.300E-01  2.000E+01  2.000E+04 -1.555E-02
   1   14   22     2     9    6.0741E+04  1.8547E+03   5.8887E+04  0.000E+00  0.000E+00  0.000E+00  3.82540E+01  1.290E-01  2.000E+01  2.000E+04  9.273E-02
   1   14   22     3     1    1.7304E+05 -8.7285E+03   1.8176E+05  0.000E+00  0.000E+00  0.000E+00  3.77249E+01  1.693E-01  2.000E+01  2.000E+04 -4.364E-01
   1   15   23     3     2    1.8176E+05 -6.2385E+02   1.8239E+05  0.000E+00  0.000E+00  0.000E+00  3.68386E+01  1.720E-01  2.000E+01  2.000E+04 -3.119E-02
   1   15   24     3     3    1.8239E+05 -3.7373E+02   1.8276E+05  0.000E+00  0.000E+00  0.000E+00  3.59500E+01  1.723E-01  2.000E+01  2.000E+04 -1.869E-02
   1   15   25     3     4    1.8276E+05 -3.7205E+02   1.8313E+05  0.000E+00  0.000E+00  0.000E+00  3.50614E+01  1.725E-01  2.000E+01  2.000E+04 -1.860E-02
   1   15   26     3     5    1.8313E+05 -4.4820E+02   1.8358E+05  0.000E+00  0.000E+00  0.000E+00  3.41727E+01  1.727E-01  2.000E+01  2.000E+04 -2.241E-02
   1   16   27     3     6    1.8358E+05 -4.9504E+02   1.8408E+05  0.000E+00  0.000E+00  0.000E+00  3.32841E+01  1.730E-01  2.000E+01  2.000E+04 -2.475E-02
   1   17   28     3     7    1.8408E+05 -1.9219E+03   1.8600E+05  0.000E+00  0.000E+00  0.000E+00  3.23959E+01  1.736E-01  2.000E+01  2.000E+04 -9.609E-02
   1   18   29     3     8    1.8600E+05 -3.2681E+03   1.8927E+05  0.000E+00  0.000E+00  0.000E+00  3.15084E+01  1.751E-01  2.000E+01  2.000E+04 -1.634E-01
   1   18   30     3     9    1.8927E+05 -3.4674E+03   1.9273E+05  0.000E+00  0.000E+00  0.000E+00  3.06214E+01  1.770E-01  2.000E+01  2.000E+04 -1.734E-01



1
              HEAD IN LAYER   1 AT END OF TIME STEP   1 IN STRESS PERIOD   10
  ---------------------------------------------------------------------------

          1      2      3      4      5      6      7      8      9     10
         11     12     13     14     15     16     17     18     19     20
         21     22     23     24     25     26     27     28     29     30
 .........................................................................
   1  ****** ****** ****** ****** ****** ****** ****** ****** ****** ******
      ****** ****** ****** ****** ****** ****** ****** ****** ****** ******
      ****** ****** ****** ****** ****** ****** ****** ****** ****** ******
   2  ****** ****** ****** ****** ****** ****** ****** ****** ****** ******
      ****** ****** ****** ****** ****** ****** ****** ****** ****** ******
      ****** ****** ****** ****** ****** ****** ****** ****** ****** ******
   3  ****** ****** ****** ****** ****** ****** ****** ****** ****** ******
      ****** ****** ****** ****** ****** ****** ****** ****** ****** ******
      ****** ****** ****** ****** ****** ****** ****** ****** ****** ******
   4  ****** ****** ****** ****** ****** ****** ****** ****** ****** ******
      ****** ****** ****** ****** ****** ****** ****** ****** ****** ******
      ****** ****** ****** ****** ****** ****** ****** ****** ****** ******
   5  ****** ****** ****** ****** ****** ****** ****** ****** ****** ******
      ****** ****** ****** ****** ****** ****** ****** ****** ****** ******
      ****** ****** ****** ****** ****** ****** ****** ****** ****** ******
   6  ****** ****** ****** ****** ****** ****** ****** ****** ****** ******
      ****** ****** ****** ****** ****** ****** ****** ****** ****** ******
      ****** ****** ****** ****** ****** ****** ****** ****** ****** ******
   7  ****** ****** ****** ****** ****** ****** ****** ****** ****** ******
      ****** ****** ****** ****** ****** ****** ****** ****** ****** ******
      ****** ****** ****** ****** ****** ****** ****** ****** ****** ******
   8  ****** ****** ****** ****** ****** ****** ****** ****** ****** ******
      ****** ****** ****** ****** ****** ****** ****** ****** ****** ******
      ****** ****** ****** ****** ****** ****** ****** ****** ****** ******
   9  ****** ****** ****** ****** ****** ****** ****** ****** ****** ******
      ****** ****** ****** ****** ****** ****** ****** ****** ****** ******
      ****** ****** ****** ****** ****** ****** ****** ****** ****** ******
  10  ****** ****** ****** ****** ****** ****** ****** ****** ****** ******
      ****** ****** ****** ****** ****** ****** ****** ****** ****** ******
      ****** ****** ****** ****** ****** ****** ****** ****** ****** ******
  11  ****** ****** ****** ****** ****** ****** ****** ****** ****** ******
      ****** ****** ****** ****** ****** ****** ****** ****** ****** ******
      ****** ****** ****** ****** ****** ****** ****** ****** ****** ******
  12  ****** ****** ****** ****** ****** ****** ****** ****** ****** ******
      ****** ****** ****** ****** ****** ****** ****** ****** ****** ******
      ****** ****** ****** ****** ****** ****** ****** ****** ****** ******
  13  ****** ****** ****** ****** ****** ****** ****** ****** ****** ******
      ****** ****** ****** ****** ****** ****** ****** ****** ****** ******
      ****** ****** ****** ****** ****** ****** ****** ****** ****** ******
  14  ****** ****** ****** ****** ****** ****** ****** ****** ****** ******
      ****** ****** ****** ****** ****** ****** ****** ****** ****** ******
      ****** ****** ****** ****** ****** ****** ****** ****** ****** ******
  15  ****** ****** ****** ****** ****** ****** ****** ****** ****** ******
      ****** ****** ****** ****** ****** ****** ****** ****** ****** ******
      ****** ****** ****** ****** ****** ****** ****** ****** ****** ******
  16  ****** ****** ****** ****** ****** ****** ****** ****** ****** ******
      ****** ****** ****** ****** ****** ****** ****** ****** ****** ******
      ****** ****** ****** ****** ****** ****** ****** ****** ****** ******
  17  ****** ****** ****** ****** ****** ****** ****** ****** ****** ******
      ****** ****** ****** ****** ****** ****** ****** ****** ****** ******
      ****** ****** ****** ****** ****** ****** ****** ****** ****** ******
  18  ****** ****** ****** ****** ****** ****** ****** ****** ****** ******
      ****** ****** ****** ****** ****** ****** ****** ****** ****** ******
      ****** ****** ****** ****** ****** ****** ****** ****** ****** ******
  19  ****** ****** ****** ****** ****** ****** ****** ****** ****** ******
      ****** ****** ****** ****** ****** ****** ****** ****** ****** ******
      ****** ****** ****** ****** ****** ****** ****** ****** ****** ******
  20  ****** ****** ****** ****** ****** ****** ****** ****** ****** ******
      ****** ****** ****** ****** ****** ****** ****** ****** ****** ******
      ****** ****** ****** ****** ****** ****** ****** ****** ****** ******
  21  ****** ****** ****** ****** ****** ****** ****** ****** ****** ******
      ****** ****** ****** ****** ****** ****** ****** ****** ****** ******
      ****** ****** ****** ****** ****** ****** ****** ****** ****** ******
  22  ****** ****** ****** ****** ****** ****** ****** ****** ****** ******
      ****** ****** ****** ****** ****** ****** ****** ****** ****** ******
      ****** ****** ****** ****** ****** ****** ****** ****** ****** ******
  23  ****** ****** ****** ****** ****** ****** ****** ****** ****** ******
      ****** ****** ****** ****** ****** ****** ****** ****** ****** ******
      ****** ****** ****** ****** ****** ****** ****** ****** ****** ******
  24  ****** ****** ****** ****** ****** ****** ****** ****** ****** ******
      ****** ****** ****** ****** ****** ****** ****** ****** ****** ******
      ****** ****** ****** ****** ****** ****** ****** ****** ****** ******
  25  ****** ****** ****** ****** ****** ****** ****** ****** ****** ******
      ****** ****** ****** ****** ****** ****** ****** ****** ****** ******
      ****** ****** ****** ****** ****** ****** ****** ****** ****** ******

 HEAD WILL BE SAVED ON UNIT   51 AT END OF TIME STEP    1, STRESS PERIOD   10
1
  VOLUMETRIC BUDGET FOR ENTIRE MODEL AT END OF TIME STEP    1, STRESS PERIOD  10
  ------------------------------------------------------------------------------

     CUMULATIVE VOLUMES      L**3       RATES FOR THIS TIME STEP      L**3/T
     ------------------                 ------------------------

           IN:                                      IN:
           ---                                      ---
             STORAGE =    35329038.3055               STORAGE =           0.0000
       CONSTANT HEAD =    26939597.3815         CONSTANT HEAD =       33720.9307
               WELLS =           0.0000                 WELLS =           0.0000
            RECHARGE =    23901600.0000              RECHARGE =       55200.0000
      STREAM LEAKAGE =     8552800.3337        STREAM LEAKAGE =       10092.3073

            TOTAL IN =    94723036.0206              TOTAL IN =       99013.2380

          OUT:                                     OUT:
          ----                                     ----
             STORAGE =     2225013.6043               STORAGE =       15261.9286
       CONSTANT HEAD =           0.0000         CONSTANT HEAD =           0.0000
               WELLS =    28233893.9805                 WELLS =       30924.3089
            RECHARGE =           0.0000              RECHARGE =           0.0000
      STREAM LEAKAGE =    64264130.1888        STREAM LEAKAGE =       52826.9976

           TOTAL OUT =    94723037.7735             TOTAL OUT =       99013.2350

            IN - OUT =          -1.7529              IN - OUT =       2.9835E-03

 PERCENT DISCREPANCY =          -0.00     PERCENT DISCREPANCY =           0.00






         TIME SUMMARY AT END OF TIME STEP    1 IN STRESS PERIOD   10
                    SECONDS     MINUTES      HOURS       DAYS        YEARS
                    -----------------------------------------------------------
   TIME STEP LENGTH 7.86240E+06 1.31040E+05  2184.0      91.000     0.24914    
 STRESS PERIOD TIME 7.86240E+06 1.31040E+05  2184.0      91.000     0.24914    
         TOTAL TIME 7.88832E+07 1.31472E+06  21912.      913.00      2.4997    
1
1
                            STRESS PERIOD NO.   11, LENGTH =   91.00000    
                            -----------------------------------------------

                              NUMBER OF TIME STEPS =     1

                               MULTIPLIER FOR DELT =     1.500

                            INITIAL TIME STEP SIZE =   91.00000    

 WELL NO.  LAYER   ROW   COL   STRESS RATE         
 --------------------------------------------------
      1      1      6     15      -8201.    
      2      1     13     17     -0.1353E+05
      3      1      5      8      -7262.    
      4      1      3     21      -1929.    

      4 WELLS

                 RECHARGE =   0.00000    

 REUSING STREAM SEGMENT DATA FROM LAST STRESS PERIOD
 
 SOLVING FOR HEAD 


     7 CALLS TO PCG ROUTINE FOR TIME STEP   1 IN STRESS PERIOD   11
    26 TOTAL ITERATIONS

 OUTPUT CONTROL FOR STRESS PERIOD   11   TIME STEP    1
    SAVE BUDGET
    SAVE HEAD FOR ALL LAYERS
    PRINT HEAD FOR ALL LAYERS
 UBDSV2 SAVING "STREAMFLOW OUT  " ON UNIT  50 AT TIME STEP  1, STRESS PERIOD  11



 STREAM LISTING     PERIOD     11   STEP        1

 LAYER ROW COL. STREAM  RCH.  FLOW INTO     FLOW TO   FLOW OUT OF   OVRLND.     DIRECT     STREAM       STREAM     STREAM     STREAM   STREAMBED  STREAMBED
                SEG.NO.  NO.  STRM. RCH.    AQUIFER    STRM. RCH.    RUNOFF     PRECIP       ET          HEAD       DEPTH      WIDTH   CONDCTNC.   GRADIENT

   1   13    1     1     1    1.0000E+05 -7.7801E+02   1.0078E+05  0.000E+00  0.000E+00  0.000E+00  4.84064E+01  1.450E-01  2.000E+01  2.000E+04 -3.890E-02
   1   13    2     1     2    1.0078E+05 -1.6267E+03   1.0240E+05  0.000E+00  0.000E+00  0.000E+00  4.79301E+01  1.460E-01  2.000E+01  2.000E+04 -8.133E-02
   1   14    3     1     3    1.0240E+05 -2.8480E+02   1.0269E+05  0.000E+00  0.000E+00  0.000E+00  4.74537E+01  1.469E-01  2.000E+01  2.000E+04 -1.424E-02
   1   15    4     1     4    1.0269E+05 -2.8231E+02   1.0297E+05  0.000E+00  0.000E+00  0.000E+00  4.69766E+01  1.471E-01  2.000E+01  2.000E+04 -1.412E-02
   1   16    5     1     5    1.0297E+05 -1.3663E+03   1.0434E+05  0.000E+00  0.000E+00  0.000E+00  4.65001E+01  1.478E-01  2.000E+01  2.000E+04 -6.831E-02
   1   16    6     1     6    1.0434E+05 -8.4342E+02   1.0518E+05  0.000E+00  0.000E+00  0.000E+00  4.60237E+01  1.487E-01  2.000E+01  2.000E+04 -4.217E-02
   1   16    7     1     7    1.0518E+05 -8.2522E+02   1.0601E+05  0.000E+00  0.000E+00  0.000E+00  4.55472E+01  1.495E-01  2.000E+01  2.000E+04 -4.126E-02
   1   16    8     1     8    1.0601E+05 -8.2251E+02   1.0683E+05  0.000E+00  0.000E+00  0.000E+00  4.50706E+01  1.502E-01  2.000E+01  2.000E+04 -4.113E-02
   1   16    9     1     9    1.0683E+05 -8.1885E+02   1.0765E+05  0.000E+00  0.000E+00  0.000E+00  4.45940E+01  1.508E-01  2.000E+01  2.000E+04 -4.094E-02
   1   16   10     1    10    1.0765E+05 -8.1308E+02   1.0846E+05  0.000E+00  0.000E+00  0.000E+00  4.41174E+01  1.515E-01  2.000E+01  2.000E+04 -4.065E-02
   1   16   11     1    11    1.0846E+05 -8.1654E+02   1.0928E+05  0.000E+00  0.000E+00  0.000E+00  4.36409E+01  1.522E-01  2.000E+01  2.000E+04 -4.083E-02
   1   16   12     1    12    1.0928E+05 -1.2398E+03   1.1052E+05  0.000E+00  0.000E+00  0.000E+00  4.31644E+01  1.531E-01  2.000E+01  2.000E+04 -6.199E-02
   1   15   13     1    13    1.1052E+05 -7.1854E+02   1.1124E+05  0.000E+00  0.000E+00  0.000E+00  4.26880E+01  1.539E-01  2.000E+01  2.000E+04 -3.593E-02
   1   14   14     1    14    1.1124E+05 -3.5870E+02   1.1159E+05  0.000E+00  0.000E+00  0.000E+00  4.22112E+01  1.543E-01  2.000E+01  2.000E+04 -1.793E-02
   1   13   15     1    15    1.1159E+05  8.8392E+02   1.1071E+05  0.000E+00  0.000E+00  0.000E+00  4.17337E+01  1.541E-01  2.000E+01  2.000E+04  4.420E-02
   1   12   16     1    16    1.1071E+05  5.1564E+02   1.1020E+05  0.000E+00  0.000E+00  0.000E+00  4.12558E+01  1.535E-01  2.000E+01  2.000E+04  2.578E-02
   1   12   17     1    17    1.1020E+05  3.5864E+03   1.0661E+05  0.000E+00  0.000E+00  0.000E+00  4.07768E+01  1.518E-01  2.000E+01  2.000E+04  1.793E-01
   1   12   18     1    18    1.0661E+05  7.6991E+02   1.0584E+05  0.000E+00  0.000E+00  0.000E+00  4.02977E+01  1.500E-01  2.000E+01  2.000E+04  3.850E-02
   1   12   19     1    19    1.0584E+05 -6.8702E+02   1.0653E+05  0.000E+00  0.000E+00  0.000E+00  3.98204E+01  1.500E-01  2.000E+01  2.000E+04 -3.435E-02
   1   13   20     1    20    1.0653E+05 -4.1105E+02   1.0694E+05  0.000E+00  0.000E+00  0.000E+00  3.93436E+01  1.504E-01  2.000E+01  2.000E+04 -2.055E-02
   1   14   21     1    21    1.0694E+05 -8.8263E+02   1.0782E+05  0.000E+00  0.000E+00  0.000E+00  3.88669E+01  1.510E-01  2.000E+01  2.000E+04 -4.413E-02
   1   14   22     1    22    1.0782E+05  4.8603E+03   1.0296E+05  0.000E+00  0.000E+00  0.000E+00  3.83879E+01  1.493E-01  2.000E+01  2.000E+04  2.430E-01
   1    9   30     2     1    5.0000E+04 -3.5224E+02   5.0352E+04  0.000E+00  0.000E+00  0.000E+00  4.02411E+01  1.161E-01  2.000E+01  2.000E+04 -1.761E-02
   1    9   29     2     2    5.0352E+04 -6.3562E+02   5.0988E+04  0.000E+00  0.000E+00  0.000E+00  3.99918E+01  1.168E-01  2.000E+01  2.000E+04 -3.178E-02
   1    9   28     2     3    5.0988E+04 -8.4774E+02   5.1836E+04  0.000E+00  0.000E+00  0.000E+00  3.97428E+01  1.178E-01  2.000E+01  2.000E+04 -4.239E-02
   1    9   27     2     4    5.1836E+04 -1.7913E+03   5.3627E+04  0.000E+00  0.000E+00  0.000E+00  3.94946E+01  1.196E-01  2.000E+01  2.000E+04 -8.957E-02
   1   10   26     2     5    5.3627E+04 -1.0392E+03   5.4666E+04  0.000E+00  0.000E+00  0.000E+00  3.92465E+01  1.215E-01  2.000E+01  2.000E+04 -5.196E-02
   1   11   25     2     6    5.4666E+04 -8.5805E+02   5.5524E+04  0.000E+00  0.000E+00  0.000E+00  3.89978E+01  1.228E-01  2.000E+01  2.000E+04 -4.290E-02
   1   12   24     2     7    5.5524E+04 -9.4221E+02   5.6466E+04  0.000E+00  0.000E+00  0.000E+00  3.87490E+01  1.240E-01  2.000E+01  2.000E+04 -4.711E-02
   1   13   23     2     8    5.6466E+04 -1.2482E+02   5.6591E+04  0.000E+00  0.000E+00  0.000E+00  3.84997E+01  1.247E-01  2.000E+01  2.000E+04 -6.241E-03
   1   14   22     2     9    5.6591E+04  2.0705E+03   5.4521E+04  0.000E+00  0.000E+00  0.000E+00  3.82484E+01  1.234E-01  2.000E+01  2.000E+04  1.035E-01
   1   14   22     3     1    1.5748E+05 -8.5830E+03   1.6606E+05  0.000E+00  0.000E+00  0.000E+00  3.77157E+01  1.602E-01  2.000E+01  2.000E+04 -4.292E-01
   1   15   23     3     2    1.6606E+05 -4.3194E+02   1.6649E+05  0.000E+00  0.000E+00  0.000E+00  3.68295E+01  1.629E-01  2.000E+01  2.000E+04 -2.160E-02
   1   15   24     3     3    1.6649E+05 -2.0868E+02   1.6670E+05  0.000E+00  0.000E+00  0.000E+00  3.59408E+01  1.630E-01  2.000E+01  2.000E+04 -1.043E-02
   1   15   25     3     4    1.6670E+05 -2.0317E+02   1.6691E+05  0.000E+00  0.000E+00  0.000E+00  3.50521E+01  1.632E-01  2.000E+01  2.000E+04 -1.016E-02
   1   15   26     3     5    1.6691E+05 -2.5257E+02   1.6716E+05  0.000E+00  0.000E+00  0.000E+00  3.41633E+01  1.633E-01  2.000E+01  2.000E+04 -1.263E-02
   1   16   27     3     6    1.6716E+05 -2.7213E+02   1.6743E+05  0.000E+00  0.000E+00  0.000E+00  3.32746E+01  1.635E-01  2.000E+01  2.000E+04 -1.361E-02
   1   17   28     3     7    1.6743E+05 -1.3125E+03   1.6874E+05  0.000E+00  0.000E+00  0.000E+00  3.23861E+01  1.639E-01  2.000E+01  2.000E+04 -6.562E-02
   1   18   29     3     8    1.6874E+05 -2.6469E+03   1.7139E+05  0.000E+00  0.000E+00  0.000E+00  3.14984E+01  1.651E-01  2.000E+01  2.000E+04 -1.323E-01
   1   18   30     3     9    1.7139E+05 -2.9785E+03   1.7437E+05  0.000E+00  0.000E+00  0.000E+00  3.06111E+01  1.667E-01  2.000E+01  2.000E+04 -1.489E-01



1
              HEAD IN LAYER   1 AT END OF TIME STEP   1 IN STRESS PERIOD   11
  ---------------------------------------------------------------------------

          1      2      3      4      5      6      7      8      9     10
         11     12     13     14     15     16     17     18     19     20
         21     22     23     24     25     26     27     28     29     30
 .........................................................................
   1  ****** ****** ****** ****** ****** ****** ****** ****** ****** ******
      ****** ****** ****** ****** ****** ****** ****** ****** ****** ******
      ****** ****** ****** ****** ****** ****** ****** ****** ****** ******
   2  ****** ****** ****** ****** ****** ****** ****** ****** ****** ******
      ****** ****** ****** ****** ****** ****** ****** ****** ****** ******
      ****** ****** ****** ****** ****** ****** ****** ****** ****** ******
   3  ****** ****** ****** ****** ****** ****** ****** ****** ****** ******
      ****** ****** ****** ****** ****** ****** ****** ****** ****** ******
      ****** ****** ****** ****** ****** ****** ****** ****** ****** ******
   4  ****** ****** ****** ****** ****** ****** ****** ****** ****** ******
      ****** ****** ****** ****** ****** ****** ****** ****** ****** ******
      ****** ****** ****** ****** ****** ****** ****** ****** ****** ******
   5  ****** ****** ****** ****** ****** ****** ****** ****** ****** ******
      ****** ****** ****** ****** ****** ****** ****** ****** ****** ******
      ****** ****** ****** ****** ****** ****** ****** ****** ****** ******
   6  ****** ****** ****** ****** ****** ****** ****** ****** ****** ******
      ****** ****** ****** ****** ****** ****** ****** ****** ****** ******
      ****** ****** ****** ****** ****** ****** ****** ****** ****** ******
   7  ****** ****** ****** ****** ****** ****** ****** ****** ****** ******
      ****** ****** ****** ****** ****** ****** ****** ****** ****** ******
      ****** ****** ****** ****** ****** ****** ****** ****** ****** ******
   8  ****** ****** ****** ****** ****** ****** ****** ****** ****** ******
      ****** ****** ****** ****** ****** ****** ****** ****** ****** ******
      ****** ****** ****** ****** ****** ****** ****** ****** ****** ******
   9  ****** ****** ****** ****** ****** ****** ****** ****** ****** ******
      ****** ****** ****** ****** ****** ****** ****** ****** ****** ******
      ****** ****** ****** ****** ****** ****** ****** ****** ****** ******
  10  ****** ****** ****** ****** ****** ****** ****** ****** ****** ******
      ****** ****** ****** ****** ****** ****** ****** ****** ****** ******
      ****** ****** ****** ****** ****** ****** ****** ****** ****** ******
  11  ****** ****** ****** ****** ****** ****** ****** ****** ****** ******
      ****** ****** ****** ****** ****** ****** ****** ****** ****** ******
      ****** ****** ****** ****** ****** ****** ****** ****** ****** ******
  12  ****** ****** ****** ****** ****** ****** ****** ****** ****** ******
      ****** ****** ****** ****** ****** ****** ****** ****** ****** ******
      ****** ****** ****** ****** ****** ****** ****** ****** ****** ******
  13  ****** ****** ****** ****** ****** ****** ****** ****** ****** ******
      ****** ****** ****** ****** ****** ****** ****** ****** ****** ******
      ****** ****** ****** ****** ****** ****** ****** ****** ****** ******
  14  ****** ****** ****** ****** ****** ****** ****** ****** ****** ******
      ****** ****** ****** ****** ****** ****** ****** ****** ****** ******
      ****** ****** ****** ****** ****** ****** ****** ****** ****** ******
  15  ****** ****** ****** ****** ****** ****** ****** ****** ****** ******
      ****** ****** ****** ****** ****** ****** ****** ****** ****** ******
      ****** ****** ****** ****** ****** ****** ****** ****** ****** ******
  16  ****** ****** ****** ****** ****** ****** ****** ****** ****** ******
      ****** ****** ****** ****** ****** ****** ****** ****** ****** ******
      ****** ****** ****** ****** ****** ****** ****** ****** ****** ******
  17  ****** ****** ****** ****** ****** ****** ****** ****** ****** ******
      ****** ****** ****** ****** ****** ****** ****** ****** ****** ******
      ****** ****** ****** ****** ****** ****** ****** ****** ****** ******
  18  ****** ****** ****** ****** ****** ****** ****** ****** ****** ******
      ****** ****** ****** ****** ****** ****** ****** ****** ****** ******
      ****** ****** ****** ****** ****** ****** ****** ****** ****** ******
  19  ****** ****** ****** ****** ****** ****** ****** ****** ****** ******
      ****** ****** ****** ****** ****** ****** ****** ****** ****** ******
      ****** ****** ****** ****** ****** ****** ****** ****** ****** ******
  20  ****** ****** ****** ****** ****** ****** ****** ****** ****** ******
      ****** ****** ****** ****** ****** ****** ****** ****** ****** ******
      ****** ****** ****** ****** ****** ****** ****** ****** ****** ******
  21  ****** ****** ****** ****** ****** ****** ****** ****** ****** ******
      ****** ****** ****** ****** ****** ****** ****** ****** ****** ******
      ****** ****** ****** ****** ****** ****** ****** ****** ****** ******
  22  ****** ****** ****** ****** ****** ****** ****** ****** ****** ******
      ****** ****** ****** ****** ****** ****** ****** ****** ****** ******
      ****** ****** ****** ****** ****** ****** ****** ****** ****** ******
  23  ****** ****** ****** ****** ****** ****** ****** ****** ****** ******
      ****** ****** ****** ****** ****** ****** ****** ****** ****** ******
      ****** ****** ****** ****** ****** ****** ****** ****** ****** ******
  24  ****** ****** ****** ****** ****** ****** ****** ****** ****** ******
      ****** ****** ****** ****** ****** ****** ****** ****** ****** ******
      ****** ****** ****** ****** ****** ****** ****** ****** ****** ******
  25  ****** ****** ****** ****** ****** ****** ****** ****** ****** ******
      ****** ****** ****** ****** ****** ****** ****** ****** ****** ******
      ****** ****** ****** ****** ****** ****** ****** ****** ****** ******

 HEAD WILL BE SAVED ON UNIT   51 AT END OF TIME STEP    1, STRESS PERIOD   11
1
  VOLUMETRIC BUDGET FOR ENTIRE MODEL AT END OF TIME STEP    1, STRESS PERIOD  11
  ------------------------------------------------------------------------------

     CUMULATIVE VOLUMES      L**3       RATES FOR THIS TIME STEP      L**3/T
     ------------------                 ------------------------

           IN:                                      IN:
           ---                                      ---
             STORAGE =    36990068.5996               STORAGE =       18253.0802
       CONSTANT HEAD =    30310278.2088         CONSTANT HEAD =       37040.4487
               WELLS =           0.0000                 WELLS =           0.0000
            RECHARGE =    23901600.0000              RECHARGE =           0.0000
      STREAM LEAKAGE =     9707298.5809        STREAM LEAKAGE =       12686.7939

            TOTAL IN =   100909245.3893              TOTAL IN =       67980.3227

          OUT:                                     OUT:
          ----                                     ----
             STORAGE =     2225013.6043               STORAGE =           0.0000
       CONSTANT HEAD =           0.0000         CONSTANT HEAD =           0.0000
               WELLS =    31048006.0859                 WELLS =       30924.3089
            RECHARGE =           0.0000              RECHARGE =           0.0000
      STREAM LEAKAGE =    67636227.9131        STREAM LEAKAGE =       37056.0189

           TOTAL OUT =   100909247.6032             TOTAL OUT =       67980.3278

            IN - OUT =          -2.2139              IN - OUT =      -5.0652E-03

 PERCENT DISCREPANCY =          -0.00     PERCENT DISCREPANCY =          -0.00






         TIME SUMMARY AT END OF TIME STEP    1 IN STRESS PERIOD   11
                    SECONDS     MINUTES      HOURS       DAYS        YEARS
                    -----------------------------------------------------------
   TIME STEP LENGTH 7.86240E+06 1.31040E+05  2184.0      91.000     0.24914    
 STRESS PERIOD TIME 7.86240E+06 1.31040E+05  2184.0      91.000     0.24914    
         TOTAL TIME 8.67456E+07 1.44576E+06  24096.      1004.0      2.7488    
1
1
                            STRESS PERIOD NO.   12, LENGTH =   91.00000    
                            -----------------------------------------------

                              NUMBER OF TIME STEPS =     1

                               MULTIPLIER FOR DELT =     1.500

                            INITIAL TIME STEP SIZE =   91.00000    

 WELL NO.  LAYER   ROW   COL   STRESS RATE         
 --------------------------------------------------
      1      1      6     15      -8201.    
      2      1     13     17     -0.1353E+05
      3      1      5      8      -7262.    
      4      1      3     21      -1929.    

      4 WELLS

                 RECHARGE =  1.000000E-03

 REUSING STREAM SEGMENT DATA FROM LAST STRESS PERIOD
 
 SOLVING FOR HEAD 


     7 CALLS TO PCG ROUTINE FOR TIME STEP   1 IN STRESS PERIOD   12
    24 TOTAL ITERATIONS

 OUTPUT CONTROL FOR STRESS PERIOD   12   TIME STEP    1
    SAVE BUDGET
    SAVE HEAD FOR ALL LAYERS
    PRINT HEAD FOR ALL LAYERS
 UBDSV2 SAVING "STREAMFLOW OUT  " ON UNIT  50 AT TIME STEP  1, STRESS PERIOD  12



 STREAM LISTING     PERIOD     12   STEP        1

 LAYER ROW COL. STREAM  RCH.  FLOW INTO     FLOW TO   FLOW OUT OF   OVRLND.     DIRECT     STREAM       STREAM     STREAM     STREAM   STREAMBED  STREAMBED
                SEG.NO.  NO.  STRM. RCH.    AQUIFER    STRM. RCH.    RUNOFF     PRECIP       ET          HEAD       DEPTH      WIDTH   CONDCTNC.   GRADIENT

   1   13    1     1     1    1.0000E+05 -9.1438E+02   1.0091E+05  0.000E+00  0.000E+00  0.000E+00  4.84064E+01  1.450E-01  2.000E+01  2.000E+04 -4.572E-02
   1   13    2     1     2    1.0091E+05 -1.7724E+03   1.0269E+05  0.000E+00  0.000E+00  0.000E+00  4.79303E+01  1.462E-01  2.000E+01  2.000E+04 -8.862E-02
   1   14    3     1     3    1.0269E+05 -3.6190E+02   1.0305E+05  0.000E+00  0.000E+00  0.000E+00  4.74539E+01  1.471E-01  2.000E+01  2.000E+04 -1.809E-02
   1   15    4     1     4    1.0305E+05 -3.6350E+02   1.0341E+05  0.000E+00  0.000E+00  0.000E+00  4.69770E+01  1.474E-01  2.000E+01  2.000E+04 -1.817E-02
   1   16    5     1     5    1.0341E+05 -1.5754E+03   1.0499E+05  0.000E+00  0.000E+00  0.000E+00  4.65005E+01  1.483E-01  2.000E+01  2.000E+04 -7.877E-02
   1   16    6     1     6    1.0499E+05 -9.7288E+02   1.0596E+05  0.000E+00  0.000E+00  0.000E+00  4.60244E+01  1.494E-01  2.000E+01  2.000E+04 -4.864E-02
   1   16    7     1     7    1.0596E+05 -9.4950E+02   1.0691E+05  0.000E+00  0.000E+00  0.000E+00  4.55479E+01  1.502E-01  2.000E+01  2.000E+04 -4.747E-02
   1   16    8     1     8    1.0691E+05 -9.4578E+02   1.0786E+05  0.000E+00  0.000E+00  0.000E+00  4.50714E+01  1.510E-01  2.000E+01  2.000E+04 -4.729E-02
   1   16    9     1     9    1.0786E+05 -9.4269E+02   1.0880E+05  0.000E+00  0.000E+00  0.000E+00  4.45949E+01  1.518E-01  2.000E+01  2.000E+04 -4.713E-02
   1   16   10     1    10    1.0880E+05 -9.3849E+02   1.0974E+05  0.000E+00  0.000E+00  0.000E+00  4.41185E+01  1.526E-01  2.000E+01  2.000E+04 -4.692E-02
   1   16   11     1    11    1.0974E+05 -9.4448E+02   1.1068E+05  0.000E+00  0.000E+00  0.000E+00  4.36420E+01  1.533E-01  2.000E+01  2.000E+04 -4.722E-02
   1   16   12     1    12    1.1068E+05 -1.4406E+03   1.1212E+05  0.000E+00  0.000E+00  0.000E+00  4.31657E+01  1.543E-01  2.000E+01  2.000E+04 -7.203E-02
   1   15   13     1    13    1.1212E+05 -9.3286E+02   1.1305E+05  0.000E+00  0.000E+00  0.000E+00  4.26894E+01  1.553E-01  2.000E+01  2.000E+04 -4.664E-02
   1   14   14     1    14    1.1305E+05 -5.7246E+02   1.1363E+05  0.000E+00  0.000E+00  0.000E+00  4.22128E+01  1.559E-01  2.000E+01  2.000E+04 -2.862E-02
   1   13   15     1    15    1.1363E+05  6.7838E+02   1.1295E+05  0.000E+00  0.000E+00  0.000E+00  4.17354E+01  1.559E-01  2.000E+01  2.000E+04  3.392E-02
   1   12   16     1    16    1.1295E+05  3.3815E+02   1.1261E+05  0.000E+00  0.000E+00  0.000E+00  4.12577E+01  1.555E-01  2.000E+01  2.000E+04  1.691E-02
   1   12   17     1    17    1.1261E+05  3.4359E+03   1.0917E+05  0.000E+00  0.000E+00  0.000E+00  4.07789E+01  1.539E-01  2.000E+01  2.000E+04  1.718E-01
   1   12   18     1    18    1.0917E+05  6.1664E+02   1.0856E+05  0.000E+00  0.000E+00  0.000E+00  4.02999E+01  1.522E-01  2.000E+01  2.000E+04  3.083E-02
   1   12   19     1    19    1.0856E+05 -8.7671E+02   1.0943E+05  0.000E+00  0.000E+00  0.000E+00  3.98228E+01  1.523E-01  2.000E+01  2.000E+04 -4.384E-02
   1   13   20     1    20    1.0943E+05 -6.2036E+02   1.1006E+05  0.000E+00  0.000E+00  0.000E+00  3.93461E+01  1.530E-01  2.000E+01  2.000E+04 -3.102E-02
   1   14   21     1    21    1.1006E+05 -1.0765E+03   1.1113E+05  0.000E+00  0.000E+00  0.000E+00  3.88696E+01  1.537E-01  2.000E+01  2.000E+04 -5.382E-02
   1   14   22     1    22    1.1113E+05  4.8084E+03   1.0632E+05  0.000E+00  0.000E+00  0.000E+00  3.83907E+01  1.521E-01  2.000E+01  2.000E+04  2.404E-01
   1    9   30     2     1    5.0000E+04 -5.2813E+02   5.0528E+04  0.000E+00  0.000E+00  0.000E+00  4.02412E+01  1.162E-01  2.000E+01  2.000E+04 -2.641E-02
   1    9   29     2     2    5.0528E+04 -8.0941E+02   5.1338E+04  0.000E+00  0.000E+00  0.000E+00  3.99922E+01  1.172E-01  2.000E+01  2.000E+04 -4.047E-02
   1    9   28     2     3    5.1338E+04 -1.0179E+03   5.2355E+04  0.000E+00  0.000E+00  0.000E+00  3.97434E+01  1.184E-01  2.000E+01  2.000E+04 -5.089E-02
   1    9   27     2     4    5.2355E+04 -1.9989E+03   5.4354E+04  0.000E+00  0.000E+00  0.000E+00  3.94955E+01  1.205E-01  2.000E+01  2.000E+04 -9.995E-02
   1   10   26     2     5    5.4354E+04 -1.2676E+03   5.5622E+04  0.000E+00  0.000E+00  0.000E+00  3.92477E+01  1.227E-01  2.000E+01  2.000E+04 -6.338E-02
   1   11   25     2     6    5.5622E+04 -1.0827E+03   5.6705E+04  0.000E+00  0.000E+00  0.000E+00  3.89992E+01  1.242E-01  2.000E+01  2.000E+04 -5.413E-02
   1   12   24     2     7    5.6705E+04 -1.1471E+03   5.7852E+04  0.000E+00  0.000E+00  0.000E+00  3.87507E+01  1.257E-01  2.000E+01  2.000E+04 -5.736E-02
   1   13   23     2     8    5.7852E+04 -2.0226E+02   5.8054E+04  0.000E+00  0.000E+00  0.000E+00  3.85016E+01  1.266E-01  2.000E+01  2.000E+04 -1.011E-02
   1   14   22     2     9    5.8054E+04  2.0019E+03   5.6052E+04  0.000E+00  0.000E+00  0.000E+00  3.82504E+01  1.254E-01  2.000E+01  2.000E+04  1.001E-01
   1   14   22     3     1    1.6238E+05 -8.6333E+03   1.7101E+05  0.000E+00  0.000E+00  0.000E+00  3.77187E+01  1.631E-01  2.000E+01  2.000E+04 -4.317E-01
   1   15   23     3     2    1.7101E+05 -5.0403E+02   1.7151E+05  0.000E+00  0.000E+00  0.000E+00  3.68324E+01  1.658E-01  2.000E+01  2.000E+04 -2.520E-02
   1   15   24     3     3    1.7151E+05 -2.7380E+02   1.7179E+05  0.000E+00  0.000E+00  0.000E+00  3.59438E+01  1.660E-01  2.000E+01  2.000E+04 -1.369E-02
   1   15   25     3     4    1.7179E+05 -2.6956E+02   1.7206E+05  0.000E+00  0.000E+00  0.000E+00  3.50550E+01  1.661E-01  2.000E+01  2.000E+04 -1.348E-02
   1   15   26     3     5    1.7206E+05 -3.3007E+02   1.7239E+05  0.000E+00  0.000E+00  0.000E+00  3.41663E+01  1.663E-01  2.000E+01  2.000E+04 -1.650E-02
   1   16   27     3     6    1.7239E+05 -3.5895E+02   1.7275E+05  0.000E+00  0.000E+00  0.000E+00  3.32776E+01  1.665E-01  2.000E+01  2.000E+04 -1.795E-02
   1   17   28     3     7    1.7275E+05 -1.5333E+03   1.7428E+05  0.000E+00  0.000E+00  0.000E+00  3.23893E+01  1.671E-01  2.000E+01  2.000E+04 -7.667E-02
   1   18   29     3     8    1.7428E+05 -2.8478E+03   1.7713E+05  0.000E+00  0.000E+00  0.000E+00  3.15017E+01  1.683E-01  2.000E+01  2.000E+04 -1.424E-01
   1   18   30     3     9    1.7713E+05 -3.1469E+03   1.8027E+05  0.000E+00  0.000E+00  0.000E+00  3.06145E+01  1.700E-01  2.000E+01  2.000E+04 -1.573E-01



1
              HEAD IN LAYER   1 AT END OF TIME STEP   1 IN STRESS PERIOD   12
  ---------------------------------------------------------------------------

          1      2      3      4      5      6      7      8      9     10
         11     12     13     14     15     16     17     18     19     20
         21     22     23     24     25     26     27     28     29     30
 .........................................................................
   1  ****** ****** ****** ****** ****** ****** ****** ****** ****** ******
      ****** ****** ****** ****** ****** ****** ****** ****** ****** ******
      ****** ****** ****** ****** ****** ****** ****** ****** ****** ******
   2  ****** ****** ****** ****** ****** ****** ****** ****** ****** ******
      ****** ****** ****** ****** ****** ****** ****** ****** ****** ******
      ****** ****** ****** ****** ****** ****** ****** ****** ****** ******
   3  ****** ****** ****** ****** ****** ****** ****** ****** ****** ******
      ****** ****** ****** ****** ****** ****** ****** ****** ****** ******
      ****** ****** ****** ****** ****** ****** ****** ****** ****** ******
   4  ****** ****** ****** ****** ****** ****** ****** ****** ****** ******
      ****** ****** ****** ****** ****** ****** ****** ****** ****** ******
      ****** ****** ****** ****** ****** ****** ****** ****** ****** ******
   5  ****** ****** ****** ****** ****** ****** ****** ****** ****** ******
      ****** ****** ****** ****** ****** ****** ****** ****** ****** ******
      ****** ****** ****** ****** ****** ****** ****** ****** ****** ******
   6  ****** ****** ****** ****** ****** ****** ****** ****** ****** ******
      ****** ****** ****** ****** ****** ****** ****** ****** ****** ******
      ****** ****** ****** ****** ****** ****** ****** ****** ****** ******
   7  ****** ****** ****** ****** ****** ****** ****** ****** ****** ******
      ****** ****** ****** ****** ****** ****** ****** ****** ****** ******
      ****** ****** ****** ****** ****** ****** ****** ****** ****** ******
   8  ****** ****** ****** ****** ****** ****** ****** ****** ****** ******
      ****** ****** ****** ****** ****** ****** ****** ****** ****** ******
      ****** ****** ****** ****** ****** ****** ****** ****** ****** ******
   9  ****** ****** ****** ****** ****** ****** ****** ****** ****** ******
      ****** ****** ****** ****** ****** ****** ****** ****** ****** ******
      ****** ****** ****** ****** ****** ****** ****** ****** ****** ******
  10  ****** ****** ****** ****** ****** ****** ****** ****** ****** ******
      ****** ****** ****** ****** ****** ****** ****** ****** ****** ******
      ****** ****** ****** ****** ****** ****** ****** ****** ****** ******
  11  ****** ****** ****** ****** ****** ****** ****** ****** ****** ******
      ****** ****** ****** ****** ****** ****** ****** ****** ****** ******
      ****** ****** ****** ****** ****** ****** ****** ****** ****** ******
  12  ****** ****** ****** ****** ****** ****** ****** ****** ****** ******
      ****** ****** ****** ****** ****** ****** ****** ****** ****** ******
      ****** ****** ****** ****** ****** ****** ****** ****** ****** ******
  13  ****** ****** ****** ****** ****** ****** ****** ****** ****** ******
      ****** ****** ****** ****** ****** ****** ****** ****** ****** ******
      ****** ****** ****** ****** ****** ****** ****** ****** ****** ******
  14  ****** ****** ****** ****** ****** ****** ****** ****** ****** ******
      ****** ****** ****** ****** ****** ****** ****** ****** ****** ******
      ****** ****** ****** ****** ****** ****** ****** ****** ****** ******
  15  ****** ****** ****** ****** ****** ****** ****** ****** ****** ******
      ****** ****** ****** ****** ****** ****** ****** ****** ****** ******
      ****** ****** ****** ****** ****** ****** ****** ****** ****** ******
  16  ****** ****** ****** ****** ****** ****** ****** ****** ****** ******
      ****** ****** ****** ****** ****** ****** ****** ****** ****** ******
      ****** ****** ****** ****** ****** ****** ****** ****** ****** ******
  17  ****** ****** ****** ****** ****** ****** ****** ****** ****** ******
      ****** ****** ****** ****** ****** ****** ****** ****** ****** ******
      ****** ****** ****** ****** ****** ****** ****** ****** ****** ******
  18  ****** ****** ****** ****** ****** ****** ****** ****** ****** ******
      ****** ****** ****** ****** ****** ****** ****** ****** ****** ******
      ****** ****** ****** ****** ****** ****** ****** ****** ****** ******
  19  ****** ****** ****** ****** ****** ****** ****** ****** ****** ******
      ****** ****** ****** ****** ****** ****** ****** ****** ****** ******
      ****** ****** ****** ****** ****** ****** ****** ****** ****** ******
  20  ****** ****** ****** ****** ****** ****** ****** ****** ****** ******
      ****** ****** ****** ****** ****** ****** ****** ****** ****** ******
      ****** ****** ****** ****** ****** ****** ****** ****** ****** ******
  21  ****** ****** ****** ****** ****** ****** ****** ****** ****** ******
      ****** ****** ****** ****** ****** ****** ****** ****** ****** ******
      ****** ****** ****** ****** ****** ****** ****** ****** ****** ******
  22  ****** ****** ****** ****** ****** ****** ****** ****** ****** ******
      ****** ****** ****** ****** ****** ****** ****** ****** ****** ******
      ****** ****** ****** ****** ****** ****** ****** ****** ****** ******
  23  ****** ****** ****** ****** ****** ****** ****** ****** ****** ******
      ****** ****** ****** ****** ****** ****** ****** ****** ****** ******
      ****** ****** ****** ****** ****** ****** ****** ****** ****** ******
  24  ****** ****** ****** ****** ****** ****** ****** ****** ****** ******
      ****** ****** ****** ****** ****** ****** ****** ****** ****** ******
      ****** ****** ****** ****** ****** ****** ****** ****** ****** ******
  25  ****** ****** ****** ****** ****** ****** ****** ****** ****** ******
      ****** ****** ****** ****** ****** ****** ****** ****** ****** ******
      ****** ****** ****** ****** ****** ****** ****** ****** ****** ******

 HEAD WILL BE SAVED ON UNIT   51 AT END OF TIME STEP    1, STRESS PERIOD   12
1
  VOLUMETRIC BUDGET FOR ENTIRE MODEL AT END OF TIME STEP    1, STRESS PERIOD  12
  ------------------------------------------------------------------------------

     CUMULATIVE VOLUMES      L**3       RATES FOR THIS TIME STEP      L**3/T
     ------------------                 ------------------------

           IN:                                      IN:
           ---                                      ---
             STORAGE =    36998222.3359               STORAGE =          89.6015
       CONSTANT HEAD =    33619851.8008         CONSTANT HEAD =       36368.9406
               WELLS =           0.0000                 WELLS =           0.0000
            RECHARGE =    26413200.0000              RECHARGE =       27600.0000
      STREAM LEAKAGE =    10788315.1691        STREAM LEAKAGE =       11879.3032

            TOTAL IN =   107819589.3058              TOTAL IN =       75937.8452

          OUT:                                     OUT:
          ----                                     ----
             STORAGE =     2485357.1354               STORAGE =        2860.9179
       CONSTANT HEAD =           0.0000         CONSTANT HEAD =           0.0000
               WELLS =    33862118.1912                 WELLS =       30924.3089
            RECHARGE =           0.0000              RECHARGE =           0.0000
      STREAM LEAKAGE =    71472116.1086        STREAM LEAKAGE =       42152.6175

           TOTAL OUT =   107819591.4353             TOTAL OUT =       75937.8443

            IN - OUT =          -2.1295              IN - OUT =       9.2742E-04

 PERCENT DISCREPANCY =          -0.00     PERCENT DISCREPANCY =           0.00






         TIME SUMMARY AT END OF TIME STEP    1 IN STRESS PERIOD   12
                    SECONDS     MINUTES      HOURS       DAYS        YEARS
                    -----------------------------------------------------------
   TIME STEP LENGTH 7.86240E+06 1.31040E+05  2184.0      91.000     0.24914    
 STRESS PERIOD TIME 7.86240E+06 1.31040E+05  2184.0      91.000     0.24914    
         TOTAL TIME 9.46080E+07 1.57680E+06  26280.      1095.0      2.9979    
1

 Run end date and time (yyyy/mm/dd hh:mm:ss): 2019/08/06 18:39:10
 Elapsed run time:  0.042 Seconds

