                                  MODFLOW-2005     
      U.S. GEOLOGICAL SURVEY MODULAR FINITE-DIFFERENCE GROUND-WATER FLOW MODEL
                            VERSION 1.11.00 8/8/2013

 LIST FILE: supply2.lst
                         UNIT   10

 OPENING ..\data\supply.dis
 FILE TYPE:DIS   UNIT   11   STATUS:OLD    
 FORMAT:FORMATTED              ACCESS:SEQUENTIAL          

 OPENING ..\data\supply.ba6
 FILE TYPE:BAS6   UNIT   12   STATUS:OLD    
 FORMAT:FORMATTED              ACCESS:SEQUENTIAL          

 OPENING ..\data\supply_het.bc6
 FILE TYPE:BCF6   UNIT   13   STATUS:OLD    
 FORMAT:FORMATTED              ACCESS:SEQUENTIAL          

 OPENING ..\data\supply.rch
 FILE TYPE:RCH   UNIT   15   STATUS:OLD    
 FORMAT:FORMATTED              ACCESS:SEQUENTIAL          

 OPENING ..\data\supply2.sfr
 FILE TYPE:SFR   UNIT   16   STATUS:OLD    
 FORMAT:FORMATTED              ACCESS:SEQUENTIAL          

 OPENING ..\data\supply.oc
 FILE TYPE:OC   UNIT   17   STATUS:OLD    
 FORMAT:FORMATTED              ACCESS:SEQUENTIAL          

 OPENING ..\data\supply.pcg
 FILE TYPE:PCG   UNIT   18   STATUS:OLD    
 FORMAT:FORMATTED              ACCESS:SEQUENTIAL          

 OPENING supply2.wel
 FILE TYPE:WEL   UNIT   19   STATUS:OLD    
 FORMAT:FORMATTED              ACCESS:SEQUENTIAL          

 OPENING supply2sf.cbc
 FILE TYPE:DATA(BINARY)   UNIT   50   STATUS:UNKNOWN
 FORMAT:BINARY                 ACCESS:SEQUENTIAL          

 OPENING supply2hd.bhd
 FILE TYPE:DATA(BINARY)   UNIT   51   STATUS:UNKNOWN
 FORMAT:BINARY                 ACCESS:SEQUENTIAL          

 BAS -- BASIC PACKAGE, VERSION 7, 5/2/2005 INPUT READ FROM UNIT   12
 
 MODFLOW was compiled using uniform precision
 Precision of REAL and DOUBLE PRECISION variables:          15

 DISCRETIZATION INPUT DATA READ FROM UNIT   11
    1 LAYERS        25 ROWS        30 COLUMNS
   12 STRESS PERIOD(S) IN SIMULATION
 MODEL TIME UNIT IS DAYS
 MODEL LENGTH UNIT IS UNDEFINED
  Confining bed flag for each layer:
   0

                     DELR =   200.000    

                     DELC =   200.000    

 TOP ELEVATION OF LAYER 1 =  100.0000    

   MODEL LAYER BOTTOM EL. =   0.00000     FOR LAYER   1


 STRESS PERIOD     LENGTH       TIME STEPS     MULTIPLIER FOR DELT    SS FLAG
 ----------------------------------------------------------------------------
        1         92.00000          1                    1.500         TR
        2         91.00000          1                    1.500         TR
        3         91.00000          1                    1.500         TR
        4         91.00000          1                    1.500         TR
        5         92.00000          1                    1.500         TR
        6         91.00000          1                    1.500         TR
        7         91.00000          1                    1.500         TR
        8         91.00000          1                    1.500         TR
        9         92.00000          1                    1.500         TR
       10         91.00000          1                    1.500         TR
       11         91.00000          1                    1.500         TR
       12         91.00000          1                    1.500         TR

 TRANSIENT SIMULATION



 
 #MODOFC transient water supply sample problem                                   
 #                                                                               
 THE FREE FORMAT OPTION HAS BEEN SELECTED



                     BOUNDARY ARRAY FOR LAYER   1
 READING ON UNIT   12 WITH FORMAT: (20I4)              

 AQUIFER HEAD WILL BE SET TO   0.0000     AT ALL NO-FLOW NODES (IBOUND=0).



                       INITIAL HEAD FOR LAYER   1
 READING ON UNIT   12 WITH FORMAT: (10F13.0)           

 OUTPUT CONTROL IS SPECIFIED ONLY AT TIME STEPS FOR WHICH OUTPUT IS DESIRED
 COMPACT CELL-BY-CELL BUDGET FILES WILL BE WRITTEN
 HEAD PRINT FORMAT CODE IS  18    DRAWDOWN PRINT FORMAT CODE IS   0
 HEADS WILL BE SAVED ON UNIT   51    DRAWDOWNS WILL BE SAVED ON UNIT    0

 BCF -- BLOCK-CENTERED FLOW PACKAGE, VERSION 7, 5/2/2005
         INPUT READ FROM UNIT 13
 TRANSIENT SIMULATION
 HEAD AT CELLS THAT CONVERT TO DRY=   0.0000    
 WETTING CAPABILITY IS NOT ACTIVE
      LAYER  LAYER-TYPE CODE     INTERBLOCK T
      --------------------------------------------
         1            0          0 -- HARMONIC    

 COLUMN TO ROW ANISOTROPY =  1.000000    

     PRIMARY STORAGE COEF =  5.000000E-02 FOR LAYER   1



               TRANSMIS. ALONG ROWS FOR LAYER   1
 READING ON UNIT   13 WITH FORMAT: (FREE)              

 WEL -- WELL PACKAGE, VERSION 7, 5/2/2005 INPUT READ FROM UNIT   19
 # Well package input file written by MMProc
 No named parameters
 MAXIMUM OF      4 ACTIVE WELLS AT ONE TIME


     0 Well parameters

 RCH -- RECHARGE PACKAGE, VERSION 7, 5/2/2005 INPUT READ FROM UNIT   15
 No named parameters
 OPTION 1 -- RECHARGE TO TOP LAYER


     0 Recharge parameters

 SFR7 -- STREAMFLOW ROUTING PACKAGE, VERSION 1.0.7, 2013-01-15
         INPUT READ FROM UNIT  16
 #  Supply2 test problem for GWM-VI
 #  The eighth entry in the first data line is ISTCB2 -
 #    Setting this to a negative number indicates that
 #    streamflows out of the reach will be saved to a
 #    binary file.  The absolute value of ISTCB2 is the
 #    unit to which unformatted flows will be written.
 #
 No named parameters
 Segment information will not be 
 read by reach
 No named parameters
 No specifed inflow files


 NUMBER OF STREAM REACHES IS   40

 NUMBER OF STREAM SEGMENTS IS    3

 NUMBER OF STREAM PARAMETERS IS    0

 NUMBER OF STREAM SEGMENTS DEFINED USING PARAMETERS IS              0

 MAXIMUM ERROR FOR STREAM LEAKAGE RATES IS  1.00E-04

 CONSTANT FOR MANNINGS EQUATION IS  1.2839E+05





   STREAM NETWORK DESCRIPTION: 

   LAYER    ROW    COL   SEGMENT   REACH     LENGTH
                          NUMBER   NUMBER    IN CELL        
   --------------------------------------------------
      1     13      1       1        1    2.0000E+02
      1     13      2       1        2    2.0000E+02
      1     14      3       1        3    2.0000E+02
      1     15      4       1        4    2.0000E+02
      1     16      5       1        5    2.0000E+02
      1     16      6       1        6    2.0000E+02
      1     16      7       1        7    2.0000E+02
      1     16      8       1        8    2.0000E+02
      1     16      9       1        9    2.0000E+02
      1     16     10       1       10    2.0000E+02
      1     16     11       1       11    2.0000E+02
      1     16     12       1       12    2.0000E+02
      1     15     13       1       13    2.0000E+02
      1     14     14       1       14    2.0000E+02
      1     13     15       1       15    2.0000E+02
      1     12     16       1       16    2.0000E+02
      1     12     17       1       17    2.0000E+02
      1     12     18       1       18    2.0000E+02
      1     12     19       1       19    2.0000E+02
      1     13     20       1       20    2.0000E+02
      1     14     21       1       21    2.0000E+02
      1     14     22       1       22    2.0000E+02
      1      9     30       2        1    2.0000E+02
      1      9     29       2        2    2.0000E+02
      1      9     28       2        3    2.0000E+02
      1      9     27       2        4    2.0000E+02
      1     10     26       2        5    2.0000E+02
      1     11     25       2        6    2.0000E+02
      1     12     24       2        7    2.0000E+02
      1     13     23       2        8    2.0000E+02
      1     14     22       2        9    2.0000E+02
      1     14     22       3        1    2.0000E+02
      1     15     23       3        2    2.0000E+02
      1     15     24       3        3    2.0000E+02
      1     15     25       3        4    2.0000E+02
      1     15     26       3        5    2.0000E+02
      1     16     27       3        6    2.0000E+02
      1     17     28       3        7    2.0000E+02
      1     18     29       3        8    2.0000E+02
      1     18     30       3        9    2.0000E+02




 PCG -- CONJUGATE-GRADIENT SOLUTION PACKAGE, VERSION 7, 5/2/2005
 MAXIMUM OF    500 CALLS OF SOLUTION ROUTINE
 MAXIMUM OF      5 INTERNAL ITERATIONS PER CALL TO SOLUTION ROUTINE
 MATRIX PRECONDITIONING TYPE :    1



                                    SOLUTION BY THE CONJUGATE-GRADIENT METHOD
                                   -------------------------------------------
                    MAXIMUM NUMBER OF CALLS TO PCG ROUTINE =      500
                        MAXIMUM ITERATIONS PER CALL TO PCG =        5
                               MATRIX PRECONDITIONING TYPE =        1
        RELAXATION FACTOR (ONLY USED WITH PRECOND. TYPE 1) =    0.10000E+01
 PARAMETER OF POLYNOMIAL PRECOND. = 2 (2) OR IS CALCULATED :        0
                         HEAD CHANGE CRITERION FOR CLOSURE =    0.10000E-05
                     RESIDUAL CHANGE CRITERION FOR CLOSURE =    0.10000E+01
            PCG HEAD AND RESIDUAL CHANGE PRINTOUT INTERVAL =        1
     PRINTING FROM SOLVER IS LIMITED(1) OR SUPPRESSED (>1) =        1
                            STEADY-STATE DAMPING PARAMETER =    0.10000E+01
                               TRANSIENT DAMPING PARAMETER =    0.10000E+01
1
                            STRESS PERIOD NO.    1, LENGTH =   92.00000    
                            -----------------------------------------------

                              NUMBER OF TIME STEPS =     1

                               MULTIPLIER FOR DELT =     1.500

                            INITIAL TIME STEP SIZE =   92.00000    

 WELL NO.  LAYER   ROW   COL   STRESS RATE         
 --------------------------------------------------
      1      1      8     16      -9735.    
      2      1     14     29     -0.1305E+05
      3      1     19     28      -9398.    
      4      1     18      3      -9037.    

      4 WELLS

                 RECHARGE =  5.000000E-04



 CLASSIFICATION & COUNT OF STREAM SEGMENTS BASED ON SOURCE OF INFLOW:

                HEADWATER     DIVERSION     RECEIVES TRIBUTARY FLOW
                ---------     ---------     -----------------------
                     2              0               1



                    INPUT DATA FOR EACH STREAM SEGMENT
 ---------------------------------------------------------------------------------------------

 SEGMENT    SEG.     INFLOW   OVERLAND   STREAM    STREAM   ICALC  OUTFLOW  DIVERSION PRIORITY
    NO.    LENGTH     RATE     RUNOFF      ET       PPT.    METH.  TO SEG.  FROM SEG.    NO.

      1  4.400E+03 1.000E+05 0.000E+00 0.000E+00 0.000E+00    1        3        0        0
      2  1.800E+03 5.000E+04 0.000E+00 0.000E+00 0.000E+00    1        3        0        0
      3  1.800E+03 0.000E+00 0.000E+00 0.000E+00 0.000E+00    1        0        0        0


         STREAMBED PROPERTIES AND STREAM DIMENSIONS

 SEGMENT     BED HYD. COND.      BED THICKNESS     ELEV.-TOP OF BED     WIDTH OF STREAM     DEPTH OF STREAM    STREAM ROUGHNESS
    No.     UPPER     LOWER     UPPER     LOWER     UPPER     LOWER     UPPER     LOWER     UPPER     LOWER   CHANNEL      BANK

     1  5.000E+00 5.000E+00 1.000E+00 1.000E+00 4.850E+01 3.800E+01 2.000E+01 2.000E+01                     5.000E-02
     2  5.000E+00 5.000E+00 1.000E+00 1.000E+00 4.025E+01 3.800E+01 2.000E+01 2.000E+01                     5.000E-02
     3  5.000E+00 5.000E+00 1.000E+00 1.000E+00 3.800E+01 3.000E+01 2.000E+01 2.000E+01                     5.000E-02



 
 SOLVING FOR HEAD 


     9 CALLS TO PCG ROUTINE FOR TIME STEP   1 IN STRESS PERIOD    1
    36 TOTAL ITERATIONS

 OUTPUT CONTROL FOR STRESS PERIOD    1   TIME STEP    1
    SAVE BUDGET
    SAVE HEAD FOR ALL LAYERS
    PRINT HEAD FOR ALL LAYERS
 UBDSV2 SAVING "STREAMFLOW OUT  " ON UNIT  50 AT TIME STEP  1, STRESS PERIOD   1



 STREAM LISTING     PERIOD      1   STEP        1

 LAYER ROW COL. STREAM  RCH.  FLOW INTO     FLOW TO   FLOW OUT OF   OVRLND.     DIRECT     STREAM       STREAM     STREAM     STREAM   STREAMBED  STREAMBED
                SEG.NO.  NO.  STRM. RCH.    AQUIFER    STRM. RCH.    RUNOFF     PRECIP       ET          HEAD       DEPTH      WIDTH   CONDCTNC.   GRADIENT

   1   13    1     1     1    1.0000E+05 -5.6432E+03   1.0564E+05  0.000E+00  0.000E+00  0.000E+00  4.84085E+01  1.471E-01  2.000E+01  2.000E+04 -2.822E-01
   1   13    2     1     2    1.0564E+05 -7.1310E+03   1.1277E+05  0.000E+00  0.000E+00  0.000E+00  4.79366E+01  1.525E-01  2.000E+01  2.000E+04 -3.565E-01
   1   14    3     1     3    1.1277E+05 -2.0323E+03   1.1481E+05  0.000E+00  0.000E+00  0.000E+00  4.74631E+01  1.563E-01  2.000E+01  2.000E+04 -1.016E-01
   1   15    4     1     4    1.1481E+05 -1.9866E+03   1.1679E+05  0.000E+00  0.000E+00  0.000E+00  4.69875E+01  1.580E-01  2.000E+01  2.000E+04 -9.933E-02
   1   16    5     1     5    1.1679E+05 -5.2700E+03   1.2206E+05  0.000E+00  0.000E+00  0.000E+00  4.65132E+01  1.609E-01  2.000E+01  2.000E+04 -2.635E-01
   1   16    6     1     6    1.2206E+05 -3.7687E+03   1.2583E+05  0.000E+00  0.000E+00  0.000E+00  4.60395E+01  1.645E-01  2.000E+01  2.000E+04 -1.884E-01
   1   16    7     1     7    1.2583E+05 -3.8359E+03   1.2967E+05  0.000E+00  0.000E+00  0.000E+00  4.55653E+01  1.675E-01  2.000E+01  2.000E+04 -1.918E-01
   1   16    8     1     8    1.2967E+05 -3.9101E+03   1.3358E+05  0.000E+00  0.000E+00  0.000E+00  4.50910E+01  1.706E-01  2.000E+01  2.000E+04 -1.955E-01
   1   16    9     1     9    1.3358E+05 -3.9660E+03   1.3754E+05  0.000E+00  0.000E+00  0.000E+00  4.46168E+01  1.736E-01  2.000E+01  2.000E+04 -1.983E-01
   1   16   10     1    10    1.3754E+05 -4.0038E+03   1.4155E+05  0.000E+00  0.000E+00  0.000E+00  4.41426E+01  1.767E-01  2.000E+01  2.000E+04 -2.002E-01
   1   16   11     1    11    1.4155E+05 -4.0636E+03   1.4561E+05  0.000E+00  0.000E+00  0.000E+00  4.36683E+01  1.797E-01  2.000E+01  2.000E+04 -2.032E-01
   1   16   12     1    12    1.4561E+05 -6.9315E+03   1.5254E+05  0.000E+00  0.000E+00  0.000E+00  4.31952E+01  1.838E-01  2.000E+01  2.000E+04 -3.466E-01
   1   15   13     1    13    1.5254E+05 -7.2190E+03   1.5976E+05  0.000E+00  0.000E+00  0.000E+00  4.27231E+01  1.890E-01  2.000E+01  2.000E+04 -3.609E-01
   1   14   14     1    14    1.5976E+05 -7.6345E+03   1.6740E+05  0.000E+00  0.000E+00  0.000E+00  4.22512E+01  1.943E-01  2.000E+01  2.000E+04 -3.817E-01
   1   13   15     1    15    1.6740E+05 -7.8151E+03   1.7521E+05  0.000E+00  0.000E+00  0.000E+00  4.17793E+01  1.998E-01  2.000E+01  2.000E+04 -3.908E-01
   1   12   16     1    16    1.7521E+05 -8.0245E+03   1.8324E+05  0.000E+00  0.000E+00  0.000E+00  4.13076E+01  2.053E-01  2.000E+01  2.000E+04 -4.012E-01
   1   12   17     1    17    1.8324E+05 -5.7809E+03   1.8902E+05  0.000E+00  0.000E+00  0.000E+00  4.08350E+01  2.100E-01  2.000E+01  2.000E+04 -2.890E-01
   1   12   18     1    18    1.8902E+05 -5.7478E+03   1.9476E+05  0.000E+00  0.000E+00  0.000E+00  4.03616E+01  2.139E-01  2.000E+01  2.000E+04 -2.874E-01
   1   12   19     1    19    1.9476E+05 -7.3679E+03   2.0213E+05  0.000E+00  0.000E+00  0.000E+00  3.98887E+01  2.182E-01  2.000E+01  2.000E+04 -3.684E-01
   1   13   20     1    20    2.0213E+05 -6.7342E+03   2.0887E+05  0.000E+00  0.000E+00  0.000E+00  3.94160E+01  2.228E-01  2.000E+01  2.000E+04 -3.367E-01
   1   14   21     1    21    2.0887E+05 -6.3850E+03   2.1525E+05  0.000E+00  0.000E+00  0.000E+00  3.89430E+01  2.271E-01  2.000E+01  2.000E+04 -3.192E-01
   1   14   22     1    22    2.1525E+05  3.6621E+03   2.1159E+05  0.000E+00  0.000E+00  0.000E+00  3.84666E+01  2.280E-01  2.000E+01  2.000E+04  1.831E-01
   1    9   30     2     1    5.0000E+04 -4.0057E+03   5.4006E+04  0.000E+00  0.000E+00  0.000E+00  4.02436E+01  1.186E-01  2.000E+01  2.000E+04 -2.003E-01
   1    9   29     2     2    5.4006E+04 -4.3691E+03   5.8375E+04  0.000E+00  0.000E+00  0.000E+00  3.99993E+01  1.243E-01  2.000E+01  2.000E+04 -2.185E-01
   1    9   28     2     3    5.8375E+04 -4.8088E+03   6.3184E+04  0.000E+00  0.000E+00  0.000E+00  3.97553E+01  1.303E-01  2.000E+01  2.000E+04 -2.404E-01
   1    9   27     2     4    6.3184E+04 -7.8648E+03   7.1048E+04  0.000E+00  0.000E+00  0.000E+00  3.95133E+01  1.383E-01  2.000E+01  2.000E+04 -3.932E-01
   1   10   26     2     5    7.1048E+04 -6.5712E+03   7.7620E+04  0.000E+00  0.000E+00  0.000E+00  3.92720E+01  1.470E-01  2.000E+01  2.000E+04 -3.286E-01
   1   11   25     2     6    7.7620E+04 -6.1563E+03   8.3776E+04  0.000E+00  0.000E+00  0.000E+00  3.90294E+01  1.544E-01  2.000E+01  2.000E+04 -3.078E-01
   1   12   24     2     7    8.3776E+04 -5.9857E+03   8.9762E+04  0.000E+00  0.000E+00  0.000E+00  3.87863E+01  1.613E-01  2.000E+01  2.000E+04 -2.993E-01
   1   13   23     2     8    8.9762E+04 -1.6283E+03   9.1390E+04  0.000E+00  0.000E+00  0.000E+00  3.85405E+01  1.655E-01  2.000E+01  2.000E+04 -8.141E-02
   1   14   22     2     9    9.1390E+04  1.5606E+02   9.1234E+04  0.000E+00  0.000E+00  0.000E+00  3.82913E+01  1.663E-01  2.000E+01  2.000E+04  7.803E-03
   1   14   22     3     1    3.0282E+05 -9.8464E+03   3.1267E+05  0.000E+00  0.000E+00  0.000E+00  3.77912E+01  2.356E-01  2.000E+01  2.000E+04 -4.923E-01
   1   15   23     3     2    3.1267E+05 -1.9784E+03   3.1465E+05  0.000E+00  0.000E+00  0.000E+00  3.69050E+01  2.383E-01  2.000E+01  2.000E+04 -9.892E-02
   1   15   24     3     3    3.1465E+05 -1.5155E+03   3.1616E+05  0.000E+00  0.000E+00  0.000E+00  3.60169E+01  2.391E-01  2.000E+01  2.000E+04 -7.578E-02
   1   15   25     3     4    3.1616E+05 -1.5431E+03   3.1771E+05  0.000E+00  0.000E+00  0.000E+00  3.51287E+01  2.398E-01  2.000E+01  2.000E+04 -7.716E-02
   1   15   26     3     5    3.1771E+05 -1.6156E+03   3.1932E+05  0.000E+00  0.000E+00  0.000E+00  3.42405E+01  2.405E-01  2.000E+01  2.000E+04 -8.078E-02
   1   16   27     3     6    3.1932E+05 -1.6026E+03   3.2092E+05  0.000E+00  0.000E+00  0.000E+00  3.33524E+01  2.413E-01  2.000E+01  2.000E+04 -8.013E-02
   1   17   28     3     7    3.2092E+05 -2.3003E+03   3.2323E+05  0.000E+00  0.000E+00  0.000E+00  3.24644E+01  2.421E-01  2.000E+01  2.000E+04 -1.150E-01
   1   18   29     3     8    3.2323E+05 -3.7042E+03   3.2693E+05  0.000E+00  0.000E+00  0.000E+00  3.15768E+01  2.435E-01  2.000E+01  2.000E+04 -1.852E-01
   1   18   30     3     9    3.2693E+05 -4.8985E+03   3.3183E+05  0.000E+00  0.000E+00  0.000E+00  3.06899E+01  2.454E-01  2.000E+01  2.000E+04 -2.449E-01



1
              HEAD IN LAYER   1 AT END OF TIME STEP   1 IN STRESS PERIOD    1
  ---------------------------------------------------------------------------

          1      2      3      4      5      6      7      8      9     10
         11     12     13     14     15     16     17     18     19     20
         21     22     23     24     25     26     27     28     29     30
 .........................................................................
   1  ****** ****** ****** ****** ****** ****** ****** ****** ****** ******
      ****** ****** ****** ****** ****** ****** ****** ****** ****** ******
      ****** ****** ****** ****** ****** ****** ****** ****** ****** ******
   2  ****** ****** ****** ****** ****** ****** ****** ****** ****** ******
      ****** ****** ****** ****** ****** ****** ****** ****** ****** ******
      ****** ****** ****** ****** ****** ****** ****** ****** ****** ******
   3  ****** ****** ****** ****** ****** ****** ****** ****** ****** ******
      ****** ****** ****** ****** ****** ****** ****** ****** ****** ******
      ****** ****** ****** ****** ****** ****** ****** ****** ****** ******
   4  ****** ****** ****** ****** ****** ****** ****** ****** ****** ******
      ****** ****** ****** ****** ****** ****** ****** ****** ****** ******
      ****** ****** ****** ****** ****** ****** ****** ****** ****** ******
   5  ****** ****** ****** ****** ****** ****** ****** ****** ****** ******
      ****** ****** ****** ****** ****** ****** ****** ****** ****** ******
      ****** ****** ****** ****** ****** ****** ****** ****** ****** ******
   6  ****** ****** ****** ****** ****** ****** ****** ****** ****** ******
      ****** ****** ****** ****** ****** ****** ****** ****** ****** ******
      ****** ****** ****** ****** ****** ****** ****** ****** ****** ******
   7  ****** ****** ****** ****** ****** ****** ****** ****** ****** ******
      ****** ****** ****** ****** ****** ****** ****** ****** ****** ******
      ****** ****** ****** ****** ****** ****** ****** ****** ****** ******
   8  ****** ****** ****** ****** ****** ****** ****** ****** ****** ******
      ****** ****** ****** ****** ****** ****** ****** ****** ****** ******
      ****** ****** ****** ****** ****** ****** ****** ****** ****** ******
   9  ****** ****** ****** ****** ****** ****** ****** ****** ****** ******
      ****** ****** ****** ****** ****** ****** ****** ****** ****** ******
      ****** ****** ****** ****** ****** ****** ****** ****** ****** ******
  10  ****** ****** ****** ****** ****** ****** ****** ****** ****** ******
      ****** ****** ****** ****** ****** ****** ****** ****** ****** ******
      ****** ****** ****** ****** ****** ****** ****** ****** ****** ******
  11  ****** ****** ****** ****** ****** ****** ****** ****** ****** ******
      ****** ****** ****** ****** ****** ****** ****** ****** ****** ******
      ****** ****** ****** ****** ****** ****** ****** ****** ****** ******
  12  ****** ****** ****** ****** ****** ****** ****** ****** ****** ******
      ****** ****** ****** ****** ****** ****** ****** ****** ****** ******
      ****** ****** ****** ****** ****** ****** ****** ****** ****** ******
  13  ****** ****** ****** ****** ****** ****** ****** ****** ****** ******
      ****** ****** ****** ****** ****** ****** ****** ****** ****** ******
      ****** ****** ****** ****** ****** ****** ****** ****** ****** ******
  14  ****** ****** ****** ****** ****** ****** ****** ****** ****** ******
      ****** ****** ****** ****** ****** ****** ****** ****** ****** ******
      ****** ****** ****** ****** ****** ****** ****** ****** ****** ******
  15  ****** ****** ****** ****** ****** ****** ****** ****** ****** ******
      ****** ****** ****** ****** ****** ****** ****** ****** ****** ******
      ****** ****** ****** ****** ****** ****** ****** ****** ****** ******
  16  ****** ****** ****** ****** ****** ****** ****** ****** ****** ******
      ****** ****** ****** ****** ****** ****** ****** ****** ****** ******
      ****** ****** ****** ****** ****** ****** ****** ****** ****** ******
  17  ****** ****** ****** ****** ****** ****** ****** ****** ****** ******
      ****** ****** ****** ****** ****** ****** ****** ****** ****** ******
      ****** ****** ****** ****** ****** ****** ****** ****** ****** ******
  18  ****** ****** ****** ****** ****** ****** ****** ****** ****** ******
      ****** ****** ****** ****** ****** ****** ****** ****** ****** ******
      ****** ****** ****** ****** ****** ****** ****** ****** ****** ******
  19  ****** ****** ****** ****** ****** ****** ****** ****** ****** ******
      ****** ****** ****** ****** ****** ****** ****** ****** ****** ******
      ****** ****** ****** ****** ****** ****** ****** ****** ****** ******
  20  ****** ****** ****** ****** ****** ****** ****** ****** ****** ******
      ****** ****** ****** ****** ****** ****** ****** ****** ****** ******
      ****** ****** ****** ****** ****** ****** ****** ****** ****** ******
  21  ****** ****** ****** ****** ****** ****** ****** ****** ****** ******
      ****** ****** ****** ****** ****** ****** ****** ****** ****** ******
      ****** ****** ****** ****** ****** ****** ****** ****** ****** ******
  22  ****** ****** ****** ****** ****** ****** ****** ****** ****** ******
      ****** ****** ****** ****** ****** ****** ****** ****** ****** ******
      ****** ****** ****** ****** ****** ****** ****** ****** ****** ******
  23  ****** ****** ****** ****** ****** ****** ****** ****** ****** ******
      ****** ****** ****** ****** ****** ****** ****** ****** ****** ******
      ****** ****** ****** ****** ****** ****** ****** ****** ****** ******
  24  ****** ****** ****** ****** ****** ****** ****** ****** ****** ******
      ****** ****** ****** ****** ****** ****** ****** ****** ****** ******
      ****** ****** ****** ****** ****** ****** ****** ****** ****** ******
  25  ****** ****** ****** ****** ****** ****** ****** ****** ****** ******
      ****** ****** ****** ****** ****** ****** ****** ****** ****** ******
      ****** ****** ****** ****** ****** ****** ****** ****** ****** ******

 HEAD WILL BE SAVED ON UNIT   51 AT END OF TIME STEP    1, STRESS PERIOD    1
1
  VOLUMETRIC BUDGET FOR ENTIRE MODEL AT END OF TIME STEP    1, STRESS PERIOD   1
  ------------------------------------------------------------------------------

     CUMULATIVE VOLUMES      L**3       RATES FOR THIS TIME STEP      L**3/T
     ------------------                 ------------------------

           IN:                                      IN:
           ---                                      ---
             STORAGE =    18087954.6052               STORAGE =      196608.2022
       CONSTANT HEAD =     1162739.9646         CONSTANT HEAD =       12638.4779
               WELLS =           0.0000                 WELLS =           0.0000
            RECHARGE =     1269600.0000              RECHARGE =       13800.0000
      STREAM LEAKAGE =      351269.2929        STREAM LEAKAGE =        3818.1445

            TOTAL IN =    20871563.8627              TOTAL IN =      226864.8246

          OUT:                                     OUT:
          ----                                     ----
             STORAGE =           0.0000               STORAGE =           0.0000
       CONSTANT HEAD =           0.0000         CONSTANT HEAD =           0.0000
               WELLS =     3792128.6972                 WELLS =       41218.7902
            RECHARGE =           0.0000              RECHARGE =           0.0000
      STREAM LEAKAGE =    17079435.4569        STREAM LEAKAGE =      185646.0376

           TOTAL OUT =    20871564.1541             TOTAL OUT =      226864.8278

            IN - OUT =          -0.2914              IN - OUT =      -3.1670E-03

 PERCENT DISCREPANCY =          -0.00     PERCENT DISCREPANCY =          -0.00






         TIME SUMMARY AT END OF TIME STEP    1 IN STRESS PERIOD    1
                    SECONDS     MINUTES      HOURS       DAYS        YEARS
                    -----------------------------------------------------------
   TIME STEP LENGTH 7.94880E+06 1.32480E+05  2208.0      92.000     0.25188    
 STRESS PERIOD TIME 7.94880E+06 1.32480E+05  2208.0      92.000     0.25188    
         TOTAL TIME 7.94880E+06 1.32480E+05  2208.0      92.000     0.25188    
1
1
                            STRESS PERIOD NO.    2, LENGTH =   91.00000    
                            -----------------------------------------------

                              NUMBER OF TIME STEPS =     1

                               MULTIPLIER FOR DELT =     1.500

                            INITIAL TIME STEP SIZE =   91.00000    

 WELL NO.  LAYER   ROW   COL   STRESS RATE         
 --------------------------------------------------
      1      1      8     16      -9735.    
      2      1     14     29     -0.1305E+05
      3      1     19     28      -9398.    
      4      1     18      3      -9037.    

      4 WELLS

                 RECHARGE =  2.000000E-03

 REUSING STREAM SEGMENT DATA FROM LAST STRESS PERIOD
 
 SOLVING FOR HEAD 


     7 CALLS TO PCG ROUTINE FOR TIME STEP   1 IN STRESS PERIOD    2
    27 TOTAL ITERATIONS

 OUTPUT CONTROL FOR STRESS PERIOD    2   TIME STEP    1
    SAVE BUDGET
    SAVE HEAD FOR ALL LAYERS
    PRINT HEAD FOR ALL LAYERS
 UBDSV2 SAVING "STREAMFLOW OUT  " ON UNIT  50 AT TIME STEP  1, STRESS PERIOD   2



 STREAM LISTING     PERIOD      2   STEP        1

 LAYER ROW COL. STREAM  RCH.  FLOW INTO     FLOW TO   FLOW OUT OF   OVRLND.     DIRECT     STREAM       STREAM     STREAM     STREAM   STREAMBED  STREAMBED
                SEG.NO.  NO.  STRM. RCH.    AQUIFER    STRM. RCH.    RUNOFF     PRECIP       ET          HEAD       DEPTH      WIDTH   CONDCTNC.   GRADIENT

   1   13    1     1     1    1.0000E+05 -3.3216E+03   1.0332E+05  0.000E+00  0.000E+00  0.000E+00  4.84075E+01  1.461E-01  2.000E+01  2.000E+04 -1.661E-01
   1   13    2     1     2    1.0332E+05 -4.6111E+03   1.0793E+05  0.000E+00  0.000E+00  0.000E+00  4.79336E+01  1.495E-01  2.000E+01  2.000E+04 -2.306E-01
   1   14    3     1     3    1.0793E+05 -8.8200E+02   1.0881E+05  0.000E+00  0.000E+00  0.000E+00  4.74586E+01  1.518E-01  2.000E+01  2.000E+04 -4.410E-02
   1   15    4     1     4    1.0881E+05 -7.6727E+02   1.0958E+05  0.000E+00  0.000E+00  0.000E+00  4.69820E+01  1.525E-01  2.000E+01  2.000E+04 -3.836E-02
   1   16    5     1     5    1.0958E+05 -1.7524E+03   1.1133E+05  0.000E+00  0.000E+00  0.000E+00  4.65058E+01  1.535E-01  2.000E+01  2.000E+04 -8.762E-02
   1   16    6     1     6    1.1133E+05 -1.7677E+03   1.1310E+05  0.000E+00  0.000E+00  0.000E+00  4.60300E+01  1.550E-01  2.000E+01  2.000E+04 -8.839E-02
   1   16    7     1     7    1.1310E+05 -1.9689E+03   1.1507E+05  0.000E+00  0.000E+00  0.000E+00  4.55543E+01  1.566E-01  2.000E+01  2.000E+04 -9.845E-02
   1   16    8     1     8    1.1507E+05 -2.0923E+03   1.1716E+05  0.000E+00  0.000E+00  0.000E+00  4.50787E+01  1.582E-01  2.000E+01  2.000E+04 -1.046E-01
   1   16    9     1     9    1.1716E+05 -2.1643E+03   1.1933E+05  0.000E+00  0.000E+00  0.000E+00  4.46031E+01  1.600E-01  2.000E+01  2.000E+04 -1.082E-01
   1   16   10     1    10    1.1933E+05 -2.1994E+03   1.2153E+05  0.000E+00  0.000E+00  0.000E+00  4.41276E+01  1.617E-01  2.000E+01  2.000E+04 -1.100E-01
   1   16   11     1    11    1.2153E+05 -2.2431E+03   1.2377E+05  0.000E+00  0.000E+00  0.000E+00  4.36521E+01  1.635E-01  2.000E+01  2.000E+04 -1.122E-01
   1   16   12     1    12    1.2377E+05 -3.9972E+03   1.2777E+05  0.000E+00  0.000E+00  0.000E+00  4.31773E+01  1.660E-01  2.000E+01  2.000E+04 -1.999E-01
   1   15   13     1    13    1.2777E+05 -3.9368E+03   1.3170E+05  0.000E+00  0.000E+00  0.000E+00  4.27032E+01  1.691E-01  2.000E+01  2.000E+04 -1.968E-01
   1   14   14     1    14    1.3170E+05 -4.2097E+03   1.3591E+05  0.000E+00  0.000E+00  0.000E+00  4.22291E+01  1.723E-01  2.000E+01  2.000E+04 -2.105E-01
   1   13   15     1    15    1.3591E+05 -4.3530E+03   1.4027E+05  0.000E+00  0.000E+00  0.000E+00  4.17551E+01  1.756E-01  2.000E+01  2.000E+04 -2.177E-01
   1   12   16     1    16    1.4027E+05 -4.6548E+03   1.4492E+05  0.000E+00  0.000E+00  0.000E+00  4.12812E+01  1.790E-01  2.000E+01  2.000E+04 -2.327E-01
   1   12   17     1    17    1.4492E+05 -3.1576E+03   1.4808E+05  0.000E+00  0.000E+00  0.000E+00  4.08069E+01  1.819E-01  2.000E+01  2.000E+04 -1.579E-01
   1   12   18     1    18    1.4808E+05 -3.1445E+03   1.5122E+05  0.000E+00  0.000E+00  0.000E+00  4.03320E+01  1.842E-01  2.000E+01  2.000E+04 -1.572E-01
   1   12   19     1    19    1.5122E+05 -4.1436E+03   1.5537E+05  0.000E+00  0.000E+00  0.000E+00  3.98574E+01  1.869E-01  2.000E+01  2.000E+04 -2.072E-01
   1   13   20     1    20    1.5537E+05 -3.6015E+03   1.5897E+05  0.000E+00  0.000E+00  0.000E+00  3.93829E+01  1.897E-01  2.000E+01  2.000E+04 -1.801E-01
   1   14   21     1    21    1.5897E+05 -3.6551E+03   1.6262E+05  0.000E+00  0.000E+00  0.000E+00  3.89083E+01  1.923E-01  2.000E+01  2.000E+04 -1.828E-01
   1   14   22     1    22    1.6262E+05  4.4238E+03   1.5820E+05  0.000E+00  0.000E+00  0.000E+00  3.84307E+01  1.921E-01  2.000E+01  2.000E+04  2.212E-01
   1    9   30     2     1    5.0000E+04 -1.0271E+03   5.1027E+04  0.000E+00  0.000E+00  0.000E+00  4.02416E+01  1.166E-01  2.000E+01  2.000E+04 -5.136E-02
   1    9   29     2     2    5.1027E+04 -1.4244E+03   5.2452E+04  0.000E+00  0.000E+00  0.000E+00  3.99933E+01  1.183E-01  2.000E+01  2.000E+04 -7.122E-02
   1    9   28     2     3    5.2452E+04 -1.9238E+03   5.4375E+04  0.000E+00  0.000E+00  0.000E+00  3.97455E+01  1.205E-01  2.000E+01  2.000E+04 -9.619E-02
   1    9   27     2     4    5.4375E+04 -4.2615E+03   5.8637E+04  0.000E+00  0.000E+00  0.000E+00  3.94997E+01  1.247E-01  2.000E+01  2.000E+04 -2.131E-01
   1   10   26     2     5    5.8637E+04 -2.7181E+03   6.1355E+04  0.000E+00  0.000E+00  0.000E+00  3.92543E+01  1.293E-01  2.000E+01  2.000E+04 -1.359E-01
   1   11   25     2     6    6.1355E+04 -2.4927E+03   6.3848E+04  0.000E+00  0.000E+00  0.000E+00  3.90076E+01  1.326E-01  2.000E+01  2.000E+04 -1.246E-01
   1   12   24     2     7    6.3848E+04 -2.7810E+03   6.6629E+04  0.000E+00  0.000E+00  0.000E+00  3.87609E+01  1.359E-01  2.000E+01  2.000E+04 -1.390E-01
   1   13   23     2     8    6.6629E+04 -5.7484E+02   6.7204E+04  0.000E+00  0.000E+00  0.000E+00  3.85130E+01  1.380E-01  2.000E+01  2.000E+04 -2.874E-02
   1   14   22     2     9    6.7204E+04  1.0636E+03   6.6140E+04  0.000E+00  0.000E+00  0.000E+00  3.82627E+01  1.377E-01  2.000E+01  2.000E+04  5.318E-02
   1   14   22     3     1    2.2434E+05 -9.1336E+03   2.3347E+05  0.000E+00  0.000E+00  0.000E+00  3.77528E+01  1.973E-01  2.000E+01  2.000E+04 -4.567E-01
   1   15   23     3     2    2.3347E+05 -1.0317E+03   2.3451E+05  0.000E+00  0.000E+00  0.000E+00  3.68666E+01  1.999E-01  2.000E+01  2.000E+04 -5.159E-02
   1   15   24     3     3    2.3451E+05 -6.3719E+02   2.3514E+05  0.000E+00  0.000E+00  0.000E+00  3.59781E+01  2.003E-01  2.000E+01  2.000E+04 -3.186E-02
   1   15   25     3     4    2.3514E+05 -6.0904E+02   2.3575E+05  0.000E+00  0.000E+00  0.000E+00  3.50895E+01  2.006E-01  2.000E+01  2.000E+04 -3.045E-02
   1   15   26     3     5    2.3575E+05 -4.0122E+02   2.3615E+05  0.000E+00  0.000E+00  0.000E+00  3.42009E+01  2.009E-01  2.000E+01  2.000E+04 -2.006E-02
   1   16   27     3     6    2.3615E+05 -1.7943E+02   2.3633E+05  0.000E+00  0.000E+00  0.000E+00  3.33122E+01  2.011E-01  2.000E+01  2.000E+04 -8.971E-03
   1   17   28     3     7    2.3633E+05  1.8284E+03   2.3450E+05  0.000E+00  0.000E+00  0.000E+00  3.24229E+01  2.006E-01  2.000E+01  2.000E+04  9.142E-02
   1   18   29     3     8    2.3450E+05 -9.5243E+01   2.3460E+05  0.000E+00  0.000E+00  0.000E+00  3.15335E+01  2.002E-01  2.000E+01  2.000E+04 -4.762E-03
   1   18   30     3     9    2.3460E+05 -1.8782E+03   2.3648E+05  0.000E+00  0.000E+00  0.000E+00  3.06451E+01  2.007E-01  2.000E+01  2.000E+04 -9.391E-02



1
              HEAD IN LAYER   1 AT END OF TIME STEP   1 IN STRESS PERIOD    2
  ---------------------------------------------------------------------------

          1      2      3      4      5      6      7      8      9     10
         11     12     13     14     15     16     17     18     19     20
         21     22     23     24     25     26     27     28     29     30
 .........................................................................
   1  ****** ****** ****** ****** ****** ****** ****** ****** ****** ******
      ****** ****** ****** ****** ****** ****** ****** ****** ****** ******
      ****** ****** ****** ****** ****** ****** ****** ****** ****** ******
   2  ****** ****** ****** ****** ****** ****** ****** ****** ****** ******
      ****** ****** ****** ****** ****** ****** ****** ****** ****** ******
      ****** ****** ****** ****** ****** ****** ****** ****** ****** ******
   3  ****** ****** ****** ****** ****** ****** ****** ****** ****** ******
      ****** ****** ****** ****** ****** ****** ****** ****** ****** ******
      ****** ****** ****** ****** ****** ****** ****** ****** ****** ******
   4  ****** ****** ****** ****** ****** ****** ****** ****** ****** ******
      ****** ****** ****** ****** ****** ****** ****** ****** ****** ******
      ****** ****** ****** ****** ****** ****** ****** ****** ****** ******
   5  ****** ****** ****** ****** ****** ****** ****** ****** ****** ******
      ****** ****** ****** ****** ****** ****** ****** ****** ****** ******
      ****** ****** ****** ****** ****** ****** ****** ****** ****** ******
   6  ****** ****** ****** ****** ****** ****** ****** ****** ****** ******
      ****** ****** ****** ****** ****** ****** ****** ****** ****** ******
      ****** ****** ****** ****** ****** ****** ****** ****** ****** ******
   7  ****** ****** ****** ****** ****** ****** ****** ****** ****** ******
      ****** ****** ****** ****** ****** ****** ****** ****** ****** ******
      ****** ****** ****** ****** ****** ****** ****** ****** ****** ******
   8  ****** ****** ****** ****** ****** ****** ****** ****** ****** ******
      ****** ****** ****** ****** ****** ****** ****** ****** ****** ******
      ****** ****** ****** ****** ****** ****** ****** ****** ****** ******
   9  ****** ****** ****** ****** ****** ****** ****** ****** ****** ******
      ****** ****** ****** ****** ****** ****** ****** ****** ****** ******
      ****** ****** ****** ****** ****** ****** ****** ****** ****** ******
  10  ****** ****** ****** ****** ****** ****** ****** ****** ****** ******
      ****** ****** ****** ****** ****** ****** ****** ****** ****** ******
      ****** ****** ****** ****** ****** ****** ****** ****** ****** ******
  11  ****** ****** ****** ****** ****** ****** ****** ****** ****** ******
      ****** ****** ****** ****** ****** ****** ****** ****** ****** ******
      ****** ****** ****** ****** ****** ****** ****** ****** ****** ******
  12  ****** ****** ****** ****** ****** ****** ****** ****** ****** ******
      ****** ****** ****** ****** ****** ****** ****** ****** ****** ******
      ****** ****** ****** ****** ****** ****** ****** ****** ****** ******
  13  ****** ****** ****** ****** ****** ****** ****** ****** ****** ******
      ****** ****** ****** ****** ****** ****** ****** ****** ****** ******
      ****** ****** ****** ****** ****** ****** ****** ****** ****** ******
  14  ****** ****** ****** ****** ****** ****** ****** ****** ****** ******
      ****** ****** ****** ****** ****** ****** ****** ****** ****** ******
      ****** ****** ****** ****** ****** ****** ****** ****** ****** ******
  15  ****** ****** ****** ****** ****** ****** ****** ****** ****** ******
      ****** ****** ****** ****** ****** ****** ****** ****** ****** ******
      ****** ****** ****** ****** ****** ****** ****** ****** ****** ******
  16  ****** ****** ****** ****** ****** ****** ****** ****** ****** ******
      ****** ****** ****** ****** ****** ****** ****** ****** ****** ******
      ****** ****** ****** ****** ****** ****** ****** ****** ****** ******
  17  ****** ****** ****** ****** ****** ****** ****** ****** ****** ******
      ****** ****** ****** ****** ****** ****** ****** ****** ****** ******
      ****** ****** ****** ****** ****** ****** ****** ****** ****** ******
  18  ****** ****** ****** ****** ****** ****** ****** ****** ****** ******
      ****** ****** ****** ****** ****** ****** ****** ****** ****** ******
      ****** ****** ****** ****** ****** ****** ****** ****** ****** ******
  19  ****** ****** ****** ****** ****** ****** ****** ****** ****** ******
      ****** ****** ****** ****** ****** ****** ****** ****** ****** ******
      ****** ****** ****** ****** ****** ****** ****** ****** ****** ******
  20  ****** ****** ****** ****** ****** ****** ****** ****** ****** ******
      ****** ****** ****** ****** ****** ****** ****** ****** ****** ******
      ****** ****** ****** ****** ****** ****** ****** ****** ****** ******
  21  ****** ****** ****** ****** ****** ****** ****** ****** ****** ******
      ****** ****** ****** ****** ****** ****** ****** ****** ****** ******
      ****** ****** ****** ****** ****** ****** ****** ****** ****** ******
  22  ****** ****** ****** ****** ****** ****** ****** ****** ****** ******
      ****** ****** ****** ****** ****** ****** ****** ****** ****** ******
      ****** ****** ****** ****** ****** ****** ****** ****** ****** ******
  23  ****** ****** ****** ****** ****** ****** ****** ****** ****** ******
      ****** ****** ****** ****** ****** ****** ****** ****** ****** ******
      ****** ****** ****** ****** ****** ****** ****** ****** ****** ******
  24  ****** ****** ****** ****** ****** ****** ****** ****** ****** ******
      ****** ****** ****** ****** ****** ****** ****** ****** ****** ******
      ****** ****** ****** ****** ****** ****** ****** ****** ****** ******
  25  ****** ****** ****** ****** ****** ****** ****** ****** ****** ******
      ****** ****** ****** ****** ****** ****** ****** ****** ****** ******
      ****** ****** ****** ****** ****** ****** ****** ****** ****** ******

 HEAD WILL BE SAVED ON UNIT   51 AT END OF TIME STEP    1, STRESS PERIOD    2
1
  VOLUMETRIC BUDGET FOR ENTIRE MODEL AT END OF TIME STEP    1, STRESS PERIOD   2
  ------------------------------------------------------------------------------

     CUMULATIVE VOLUMES      L**3       RATES FOR THIS TIME STEP      L**3/T
     ------------------                 ------------------------

           IN:                                      IN:
           ---                                      ---
             STORAGE =    23112770.6047               STORAGE =       55217.7582
       CONSTANT HEAD =     2735060.3517         CONSTANT HEAD =       17278.2460
               WELLS =           0.0000                 WELLS =           0.0000
            RECHARGE =     6292800.0000              RECHARGE =       55200.0000
      STREAM LEAKAGE =     1017010.4083        STREAM LEAKAGE =        7315.8364

            TOTAL IN =    33157641.3647              TOTAL IN =      135011.8407

          OUT:                                     OUT:
          ----                                     ----
             STORAGE =           0.0000               STORAGE =           0.0000
       CONSTANT HEAD =           0.0000         CONSTANT HEAD =           0.0000
               WELLS =     7543038.6043                 WELLS =       41218.7902
            RECHARGE =           0.0000              RECHARGE =           0.0000
      STREAM LEAKAGE =    25614604.0969        STREAM LEAKAGE =       93793.0620

           TOTAL OUT =    33157642.7011             TOTAL OUT =      135011.8522

            IN - OUT =          -1.3364              IN - OUT =      -1.1484E-02

 PERCENT DISCREPANCY =          -0.00     PERCENT DISCREPANCY =          -0.00






         TIME SUMMARY AT END OF TIME STEP    1 IN STRESS PERIOD    2
                    SECONDS     MINUTES      HOURS       DAYS        YEARS
                    -----------------------------------------------------------
   TIME STEP LENGTH 7.86240E+06 1.31040E+05  2184.0      91.000     0.24914    
 STRESS PERIOD TIME 7.86240E+06 1.31040E+05  2184.0      91.000     0.24914    
         TOTAL TIME 1.58112E+07 2.63520E+05  4392.0      183.00     0.50103    
1
1
                            STRESS PERIOD NO.    3, LENGTH =   91.00000    
                            -----------------------------------------------

                              NUMBER OF TIME STEPS =     1

                               MULTIPLIER FOR DELT =     1.500

                            INITIAL TIME STEP SIZE =   91.00000    

 WELL NO.  LAYER   ROW   COL   STRESS RATE         
 --------------------------------------------------
      1      1      8     16      -9735.    
      2      1     14     29     -0.1305E+05
      3      1     19     28      -9398.    
      4      1     18      3      -9037.    

      4 WELLS

                 RECHARGE =   0.00000    

 REUSING STREAM SEGMENT DATA FROM LAST STRESS PERIOD
 
 SOLVING FOR HEAD 


     7 CALLS TO PCG ROUTINE FOR TIME STEP   1 IN STRESS PERIOD    3
    27 TOTAL ITERATIONS

 OUTPUT CONTROL FOR STRESS PERIOD    3   TIME STEP    1
    SAVE BUDGET
    SAVE HEAD FOR ALL LAYERS
    PRINT HEAD FOR ALL LAYERS
 UBDSV2 SAVING "STREAMFLOW OUT  " ON UNIT  50 AT TIME STEP  1, STRESS PERIOD   3



 STREAM LISTING     PERIOD      3   STEP        1

 LAYER ROW COL. STREAM  RCH.  FLOW INTO     FLOW TO   FLOW OUT OF   OVRLND.     DIRECT     STREAM       STREAM     STREAM     STREAM   STREAMBED  STREAMBED
                SEG.NO.  NO.  STRM. RCH.    AQUIFER    STRM. RCH.    RUNOFF     PRECIP       ET          HEAD       DEPTH      WIDTH   CONDCTNC.   GRADIENT

   1   13    1     1     1    1.0000E+05 -1.9892E+03   1.0199E+05  0.000E+00  0.000E+00  0.000E+00  4.84069E+01  1.455E-01  2.000E+01  2.000E+04 -9.946E-02
   1   13    2     1     2    1.0199E+05 -3.1279E+03   1.0512E+05  0.000E+00  0.000E+00  0.000E+00  4.79318E+01  1.477E-01  2.000E+01  2.000E+04 -1.564E-01
   1   14    3     1     3    1.0512E+05 -3.9593E+02   1.0551E+05  0.000E+00  0.000E+00  0.000E+00  4.74560E+01  1.492E-01  2.000E+01  2.000E+04 -1.980E-02
   1   15    4     1     4    1.0551E+05 -2.2876E+02   1.0574E+05  0.000E+00  0.000E+00  0.000E+00  4.69790E+01  1.495E-01  2.000E+01  2.000E+04 -1.144E-02
   1   16    5     1     5    1.0574E+05  2.5492E+02   1.0549E+05  0.000E+00  0.000E+00  0.000E+00  4.65017E+01  1.495E-01  2.000E+01  2.000E+04  1.275E-02
   1   16    6     1     6    1.0549E+05 -6.8139E+02   1.0617E+05  0.000E+00  0.000E+00  0.000E+00  4.60247E+01  1.497E-01  2.000E+01  2.000E+04 -3.407E-02
   1   16    7     1     7    1.0617E+05 -9.6091E+02   1.0713E+05  0.000E+00  0.000E+00  0.000E+00  4.55481E+01  1.503E-01  2.000E+01  2.000E+04 -4.805E-02
   1   16    8     1     8    1.0713E+05 -1.1150E+03   1.0824E+05  0.000E+00  0.000E+00  0.000E+00  4.50717E+01  1.512E-01  2.000E+01  2.000E+04 -5.575E-02
   1   16    9     1     9    1.0824E+05 -1.2012E+03   1.0945E+05  0.000E+00  0.000E+00  0.000E+00  4.45954E+01  1.522E-01  2.000E+01  2.000E+04 -6.006E-02
   1   16   10     1    10    1.0945E+05 -1.2442E+03   1.1069E+05  0.000E+00  0.000E+00  0.000E+00  4.41191E+01  1.532E-01  2.000E+01  2.000E+04 -6.221E-02
   1   16   11     1    11    1.1069E+05 -1.2881E+03   1.1198E+05  0.000E+00  0.000E+00  0.000E+00  4.36429E+01  1.543E-01  2.000E+01  2.000E+04 -6.440E-02
   1   16   12     1    12    1.1198E+05 -2.3506E+03   1.1433E+05  0.000E+00  0.000E+00  0.000E+00  4.31671E+01  1.558E-01  2.000E+01  2.000E+04 -1.175E-01
   1   15   13     1    13    1.1433E+05 -2.2533E+03   1.1658E+05  0.000E+00  0.000E+00  0.000E+00  4.26918E+01  1.577E-01  2.000E+01  2.000E+04 -1.127E-01
   1   14   14     1    14    1.1658E+05 -2.4712E+03   1.1905E+05  0.000E+00  0.000E+00  0.000E+00  4.22164E+01  1.596E-01  2.000E+01  2.000E+04 -1.236E-01
   1   13   15     1    15    1.1905E+05 -2.5976E+03   1.2165E+05  0.000E+00  0.000E+00  0.000E+00  4.17412E+01  1.617E-01  2.000E+01  2.000E+04 -1.299E-01
   1   12   16     1    16    1.2165E+05 -2.8103E+03   1.2446E+05  0.000E+00  0.000E+00  0.000E+00  4.12661E+01  1.638E-01  2.000E+01  2.000E+04 -1.405E-01
   1   12   17     1    17    1.2446E+05 -1.8373E+03   1.2630E+05  0.000E+00  0.000E+00  0.000E+00  4.07907E+01  1.657E-01  2.000E+01  2.000E+04 -9.186E-02
   1   12   18     1    18    1.2630E+05 -1.8494E+03   1.2815E+05  0.000E+00  0.000E+00  0.000E+00  4.03149E+01  1.671E-01  2.000E+01  2.000E+04 -9.247E-02
   1   12   19     1    19    1.2815E+05 -2.5201E+03   1.3067E+05  0.000E+00  0.000E+00  0.000E+00  3.98393E+01  1.688E-01  2.000E+01  2.000E+04 -1.260E-01
   1   13   20     1    20    1.3067E+05 -2.1357E+03   1.3280E+05  0.000E+00  0.000E+00  0.000E+00  3.93638E+01  1.707E-01  2.000E+01  2.000E+04 -1.068E-01
   1   14   21     1    21    1.3280E+05 -2.1730E+03   1.3498E+05  0.000E+00  0.000E+00  0.000E+00  3.88882E+01  1.723E-01  2.000E+01  2.000E+04 -1.086E-01
   1   14   22     1    22    1.3498E+05  4.7802E+03   1.3020E+05  0.000E+00  0.000E+00  0.000E+00  3.84100E+01  1.713E-01  2.000E+01  2.000E+04  2.390E-01
   1    9   30     2     1    5.0000E+04  2.3574E+02   4.9764E+04  0.000E+00  0.000E+00  0.000E+00  4.02407E+01  1.157E-01  2.000E+01  2.000E+04  1.179E-02
   1    9   29     2     2    4.9764E+04 -1.6729E+02   4.9932E+04  0.000E+00  0.000E+00  0.000E+00  3.99907E+01  1.157E-01  2.000E+01  2.000E+04 -8.365E-03
   1    9   28     2     3    4.9932E+04 -6.6180E+02   5.0593E+04  0.000E+00  0.000E+00  0.000E+00  3.97412E+01  1.162E-01  2.000E+01  2.000E+04 -3.309E-02
   1    9   27     2     4    5.0593E+04 -2.4737E+03   5.3067E+04  0.000E+00  0.000E+00  0.000E+00  3.94934E+01  1.184E-01  2.000E+01  2.000E+04 -1.237E-01
   1   10   26     2     5    5.3067E+04 -1.0179E+03   5.4085E+04  0.000E+00  0.000E+00  0.000E+00  3.92458E+01  1.208E-01  2.000E+01  2.000E+04 -5.090E-02
   1   11   25     2     6    5.4085E+04 -9.0940E+02   5.4994E+04  0.000E+00  0.000E+00  0.000E+00  3.89971E+01  1.221E-01  2.000E+01  2.000E+04 -4.547E-02
   1   12   24     2     7    5.4994E+04 -1.3828E+03   5.6377E+04  0.000E+00  0.000E+00  0.000E+00  3.87486E+01  1.236E-01  2.000E+01  2.000E+04 -6.914E-02
   1   13   23     2     8    5.6377E+04 -2.3341E+02   5.6611E+04  0.000E+00  0.000E+00  0.000E+00  3.84997E+01  1.247E-01  2.000E+01  2.000E+04 -1.167E-02
   1   14   22     2     9    5.6611E+04  1.5568E+03   5.5054E+04  0.000E+00  0.000E+00  0.000E+00  3.82488E+01  1.238E-01  2.000E+01  2.000E+04  7.784E-02
   1   14   22     3     1    1.8525E+05 -8.7835E+03   1.9403E+05  0.000E+00  0.000E+00  0.000E+00  3.77318E+01  1.762E-01  2.000E+01  2.000E+04 -4.392E-01
   1   15   23     3     2    1.9403E+05 -6.3604E+02   1.9467E+05  0.000E+00  0.000E+00  0.000E+00  3.68455E+01  1.788E-01  2.000E+01  2.000E+04 -3.180E-02
   1   15   24     3     3    1.9467E+05 -3.0830E+02   1.9498E+05  0.000E+00  0.000E+00  0.000E+00  3.59569E+01  1.791E-01  2.000E+01  2.000E+04 -1.542E-02
   1   15   25     3     4    1.9498E+05 -2.5859E+02   1.9524E+05  0.000E+00  0.000E+00  0.000E+00  3.50681E+01  1.793E-01  2.000E+01  2.000E+04 -1.293E-02
   1   15   26     3     5    1.9524E+05  3.4522E+01   1.9520E+05  0.000E+00  0.000E+00  0.000E+00  3.41793E+01  1.793E-01  2.000E+01  2.000E+04  1.726E-03
   1   16   27     3     6    1.9520E+05  3.2663E+02   1.9487E+05  0.000E+00  0.000E+00  0.000E+00  3.32903E+01  1.792E-01  2.000E+01  2.000E+04  1.633E-02
   1   17   28     3     7    1.9487E+05  3.4203E+03   1.9145E+05  0.000E+00  0.000E+00  0.000E+00  3.24004E+01  1.782E-01  2.000E+01  2.000E+04  1.710E-01
   1   18   29     3     8    1.9145E+05  1.5883E+03   1.8987E+05  0.000E+00  0.000E+00  0.000E+00  3.15101E+01  1.768E-01  2.000E+01  2.000E+04  7.941E-02
   1   18   30     3     9    1.8987E+05 -6.0815E+02   1.9047E+05  0.000E+00  0.000E+00  0.000E+00  3.06210E+01  1.765E-01  2.000E+01  2.000E+04 -3.041E-02



1
              HEAD IN LAYER   1 AT END OF TIME STEP   1 IN STRESS PERIOD    3
  ---------------------------------------------------------------------------

          1      2      3      4      5      6      7      8      9     10
         11     12     13     14     15     16     17     18     19     20
         21     22     23     24     25     26     27     28     29     30
 .........................................................................
   1  ****** ****** ****** ****** ****** ****** ****** ****** ****** ******
      ****** ****** ****** ****** ****** ****** ****** ****** ****** ******
      ****** ****** ****** ****** ****** ****** ****** ****** ****** ******
   2  ****** ****** ****** ****** ****** ****** ****** ****** ****** ******
      ****** ****** ****** ****** ****** ****** ****** ****** ****** ******
      ****** ****** ****** ****** ****** ****** ****** ****** ****** ******
   3  ****** ****** ****** ****** ****** ****** ****** ****** ****** ******
      ****** ****** ****** ****** ****** ****** ****** ****** ****** ******
      ****** ****** ****** ****** ****** ****** ****** ****** ****** ******
   4  ****** ****** ****** ****** ****** ****** ****** ****** ****** ******
      ****** ****** ****** ****** ****** ****** ****** ****** ****** ******
      ****** ****** ****** ****** ****** ****** ****** ****** ****** ******
   5  ****** ****** ****** ****** ****** ****** ****** ****** ****** ******
      ****** ****** ****** ****** ****** ****** ****** ****** ****** ******
      ****** ****** ****** ****** ****** ****** ****** ****** ****** ******
   6  ****** ****** ****** ****** ****** ****** ****** ****** ****** ******
      ****** ****** ****** ****** ****** ****** ****** ****** ****** ******
      ****** ****** ****** ****** ****** ****** ****** ****** ****** ******
   7  ****** ****** ****** ****** ****** ****** ****** ****** ****** ******
      ****** ****** ****** ****** ****** ****** ****** ****** ****** ******
      ****** ****** ****** ****** ****** ****** ****** ****** ****** ******
   8  ****** ****** ****** ****** ****** ****** ****** ****** ****** ******
      ****** ****** ****** ****** ****** ****** ****** ****** ****** ******
      ****** ****** ****** ****** ****** ****** ****** ****** ****** ******
   9  ****** ****** ****** ****** ****** ****** ****** ****** ****** ******
      ****** ****** ****** ****** ****** ****** ****** ****** ****** ******
      ****** ****** ****** ****** ****** ****** ****** ****** ****** ******
  10  ****** ****** ****** ****** ****** ****** ****** ****** ****** ******
      ****** ****** ****** ****** ****** ****** ****** ****** ****** ******
      ****** ****** ****** ****** ****** ****** ****** ****** ****** ******
  11  ****** ****** ****** ****** ****** ****** ****** ****** ****** ******
      ****** ****** ****** ****** ****** ****** ****** ****** ****** ******
      ****** ****** ****** ****** ****** ****** ****** ****** ****** ******
  12  ****** ****** ****** ****** ****** ****** ****** ****** ****** ******
      ****** ****** ****** ****** ****** ****** ****** ****** ****** ******
      ****** ****** ****** ****** ****** ****** ****** ****** ****** ******
  13  ****** ****** ****** ****** ****** ****** ****** ****** ****** ******
      ****** ****** ****** ****** ****** ****** ****** ****** ****** ******
      ****** ****** ****** ****** ****** ****** ****** ****** ****** ******
  14  ****** ****** ****** ****** ****** ****** ****** ****** ****** ******
      ****** ****** ****** ****** ****** ****** ****** ****** ****** ******
      ****** ****** ****** ****** ****** ****** ****** ****** ****** ******
  15  ****** ****** ****** ****** ****** ****** ****** ****** ****** ******
      ****** ****** ****** ****** ****** ****** ****** ****** ****** ******
      ****** ****** ****** ****** ****** ****** ****** ****** ****** ******
  16  ****** ****** ****** ****** ****** ****** ****** ****** ****** ******
      ****** ****** ****** ****** ****** ****** ****** ****** ****** ******
      ****** ****** ****** ****** ****** ****** ****** ****** ****** ******
  17  ****** ****** ****** ****** ****** ****** ****** ****** ****** ******
      ****** ****** ****** ****** ****** ****** ****** ****** ****** ******
      ****** ****** ****** ****** ****** ****** ****** ****** ****** ******
  18  ****** ****** ****** ****** ****** ****** ****** ****** ****** ******
      ****** ****** ****** ****** ****** ****** ****** ****** ****** ******
      ****** ****** ****** ****** ****** ****** ****** ****** ****** ******
  19  ****** ****** ****** ****** ****** ****** ****** ****** ****** ******
      ****** ****** ****** ****** ****** ****** ****** ****** ****** ******
      ****** ****** ****** ****** ****** ****** ****** ****** ****** ******
  20  ****** ****** ****** ****** ****** ****** ****** ****** ****** ******
      ****** ****** ****** ****** ****** ****** ****** ****** ****** ******
      ****** ****** ****** ****** ****** ****** ****** ****** ****** ******
  21  ****** ****** ****** ****** ****** ****** ****** ****** ****** ******
      ****** ****** ****** ****** ****** ****** ****** ****** ****** ******
      ****** ****** ****** ****** ****** ****** ****** ****** ****** ******
  22  ****** ****** ****** ****** ****** ****** ****** ****** ****** ******
      ****** ****** ****** ****** ****** ****** ****** ****** ****** ******
      ****** ****** ****** ****** ****** ****** ****** ****** ****** ******
  23  ****** ****** ****** ****** ****** ****** ****** ****** ****** ******
      ****** ****** ****** ****** ****** ****** ****** ****** ****** ******
      ****** ****** ****** ****** ****** ****** ****** ****** ****** ******
  24  ****** ****** ****** ****** ****** ****** ****** ****** ****** ******
      ****** ****** ****** ****** ****** ****** ****** ****** ****** ******
      ****** ****** ****** ****** ****** ****** ****** ****** ****** ******
  25  ****** ****** ****** ****** ****** ****** ****** ****** ****** ******
      ****** ****** ****** ****** ****** ****** ****** ****** ****** ******
      ****** ****** ****** ****** ****** ****** ****** ****** ****** ******

 HEAD WILL BE SAVED ON UNIT   51 AT END OF TIME STEP    1, STRESS PERIOD    3
1
  VOLUMETRIC BUDGET FOR ENTIRE MODEL AT END OF TIME STEP    1, STRESS PERIOD   3
  ------------------------------------------------------------------------------

     CUMULATIVE VOLUMES      L**3       RATES FOR THIS TIME STEP      L**3/T
     ------------------                 ------------------------

           IN:                                      IN:
           ---                                      ---
             STORAGE =    28186942.8055               STORAGE =       55760.1341
       CONSTANT HEAD =     5094974.8273         CONSTANT HEAD =       25933.1261
               WELLS =           0.0000                 WELLS =           0.0000
            RECHARGE =     6292800.0000              RECHARGE =           0.0000
      STREAM LEAKAGE =     2126970.2415        STREAM LEAKAGE =       12197.3608

            TOTAL IN =    41701687.8743              TOTAL IN =       93890.6210

          OUT:                                     OUT:
          ----                                     ----
             STORAGE =           0.0000               STORAGE =           0.0000
       CONSTANT HEAD =           0.0000         CONSTANT HEAD =           0.0000
               WELLS =    11293948.5113                 WELLS =       41218.7902
            RECHARGE =           0.0000              RECHARGE =           0.0000
      STREAM LEAKAGE =    30407741.4284        STREAM LEAKAGE =       52671.8388

           TOTAL OUT =    41701689.9397             TOTAL OUT =       93890.6290

            IN - OUT =          -2.0653              IN - OUT =      -8.0101E-03

 PERCENT DISCREPANCY =          -0.00     PERCENT DISCREPANCY =          -0.00






         TIME SUMMARY AT END OF TIME STEP    1 IN STRESS PERIOD    3
                    SECONDS     MINUTES      HOURS       DAYS        YEARS
                    -----------------------------------------------------------
   TIME STEP LENGTH 7.86240E+06 1.31040E+05  2184.0      91.000     0.24914    
 STRESS PERIOD TIME 7.86240E+06 1.31040E+05  2184.0      91.000     0.24914    
         TOTAL TIME 2.36736E+07 3.94560E+05  6576.0      274.00     0.75017    
1
1
                            STRESS PERIOD NO.    4, LENGTH =   91.00000    
                            -----------------------------------------------

                              NUMBER OF TIME STEPS =     1

                               MULTIPLIER FOR DELT =     1.500

                            INITIAL TIME STEP SIZE =   91.00000    

 WELL NO.  LAYER   ROW   COL   STRESS RATE         
 --------------------------------------------------
      1      1      8     16      -9735.    
      2      1     14     29     -0.1305E+05
      3      1     19     28      -9398.    
      4      1     18      3      -9037.    

      4 WELLS

                 RECHARGE =  1.000000E-03

 REUSING STREAM SEGMENT DATA FROM LAST STRESS PERIOD
 
 SOLVING FOR HEAD 


     6 CALLS TO PCG ROUTINE FOR TIME STEP   1 IN STRESS PERIOD    4
    23 TOTAL ITERATIONS

 OUTPUT CONTROL FOR STRESS PERIOD    4   TIME STEP    1
    SAVE BUDGET
    SAVE HEAD FOR ALL LAYERS
    PRINT HEAD FOR ALL LAYERS
 UBDSV2 SAVING "STREAMFLOW OUT  " ON UNIT  50 AT TIME STEP  1, STRESS PERIOD   4



 STREAM LISTING     PERIOD      4   STEP        1

 LAYER ROW COL. STREAM  RCH.  FLOW INTO     FLOW TO   FLOW OUT OF   OVRLND.     DIRECT     STREAM       STREAM     STREAM     STREAM   STREAMBED  STREAMBED
                SEG.NO.  NO.  STRM. RCH.    AQUIFER    STRM. RCH.    RUNOFF     PRECIP       ET          HEAD       DEPTH      WIDTH   CONDCTNC.   GRADIENT

   1   13    1     1     1    1.0000E+05 -1.7165E+03   1.0172E+05  0.000E+00  0.000E+00  0.000E+00  4.84068E+01  1.454E-01  2.000E+01  2.000E+04 -8.583E-02
   1   13    2     1     2    1.0172E+05 -2.8174E+03   1.0453E+05  0.000E+00  0.000E+00  0.000E+00  4.79314E+01  1.473E-01  2.000E+01  2.000E+04 -1.409E-01
   1   14    3     1     3    1.0453E+05 -3.5699E+02   1.0489E+05  0.000E+00  0.000E+00  0.000E+00  4.74555E+01  1.487E-01  2.000E+01  2.000E+04 -1.785E-02
   1   15    4     1     4    1.0489E+05 -1.7676E+02   1.0507E+05  0.000E+00  0.000E+00  0.000E+00  4.69785E+01  1.489E-01  2.000E+01  2.000E+04 -8.838E-03
   1   16    5     1     5    1.0507E+05  6.4357E+02   1.0442E+05  0.000E+00  0.000E+00  0.000E+00  4.65010E+01  1.487E-01  2.000E+01  2.000E+04  3.218E-02
   1   16    6     1     6    1.0442E+05 -4.9704E+02   1.0492E+05  0.000E+00  0.000E+00  0.000E+00  4.60237E+01  1.487E-01  2.000E+01  2.000E+04 -2.485E-02
   1   16    7     1     7    1.0492E+05 -7.9564E+02   1.0572E+05  0.000E+00  0.000E+00  0.000E+00  4.55469E+01  1.492E-01  2.000E+01  2.000E+04 -3.978E-02
   1   16    8     1     8    1.0572E+05 -9.5908E+02   1.0668E+05  0.000E+00  0.000E+00  0.000E+00  4.50704E+01  1.500E-01  2.000E+01  2.000E+04 -4.795E-02
   1   16    9     1     9    1.0668E+05 -1.0522E+03   1.0773E+05  0.000E+00  0.000E+00  0.000E+00  4.45940E+01  1.508E-01  2.000E+01  2.000E+04 -5.261E-02
   1   16   10     1    10    1.0773E+05 -1.1023E+03   1.0883E+05  0.000E+00  0.000E+00  0.000E+00  4.41176E+01  1.517E-01  2.000E+01  2.000E+04 -5.511E-02
   1   16   11     1    11    1.0883E+05 -1.1493E+03   1.0998E+05  0.000E+00  0.000E+00  0.000E+00  4.36413E+01  1.527E-01  2.000E+01  2.000E+04 -5.747E-02
   1   16   12     1    12    1.0998E+05 -2.0704E+03   1.1205E+05  0.000E+00  0.000E+00  0.000E+00  4.31654E+01  1.540E-01  2.000E+01  2.000E+04 -1.035E-01
   1   15   13     1    13    1.1205E+05 -1.9940E+03   1.1404E+05  0.000E+00  0.000E+00  0.000E+00  4.26898E+01  1.557E-01  2.000E+01  2.000E+04 -9.970E-02
   1   14   14     1    14    1.1404E+05 -2.1873E+03   1.1623E+05  0.000E+00  0.000E+00  0.000E+00  4.22142E+01  1.574E-01  2.000E+01  2.000E+04 -1.094E-01
   1   13   15     1    15    1.1623E+05 -2.2849E+03   1.1852E+05  0.000E+00  0.000E+00  0.000E+00  4.17388E+01  1.592E-01  2.000E+01  2.000E+04 -1.142E-01
   1   12   16     1    16    1.1852E+05 -2.3923E+03   1.2091E+05  0.000E+00  0.000E+00  0.000E+00  4.12634E+01  1.611E-01  2.000E+01  2.000E+04 -1.196E-01
   1   12   17     1    17    1.2091E+05 -1.5899E+03   1.2250E+05  0.000E+00  0.000E+00  0.000E+00  4.07877E+01  1.627E-01  2.000E+01  2.000E+04 -7.950E-02
   1   12   18     1    18    1.2250E+05 -1.6212E+03   1.2412E+05  0.000E+00  0.000E+00  0.000E+00  4.03118E+01  1.640E-01  2.000E+01  2.000E+04 -8.106E-02
   1   12   19     1    19    1.2412E+05 -2.2370E+03   1.2636E+05  0.000E+00  0.000E+00  0.000E+00  3.98360E+01  1.656E-01  2.000E+01  2.000E+04 -1.119E-01
   1   13   20     1    20    1.2636E+05 -1.9594E+03   1.2832E+05  0.000E+00  0.000E+00  0.000E+00  3.93604E+01  1.672E-01  2.000E+01  2.000E+04 -9.797E-02
   1   14   21     1    21    1.2832E+05 -1.9400E+03   1.3026E+05  0.000E+00  0.000E+00  0.000E+00  3.88847E+01  1.688E-01  2.000E+01  2.000E+04 -9.700E-02
   1   14   22     1    22    1.3026E+05  4.8145E+03   1.2544E+05  0.000E+00  0.000E+00  0.000E+00  3.84063E+01  1.676E-01  2.000E+01  2.000E+04  2.407E-01
   1    9   30     2     1    5.0000E+04  3.3894E+02   4.9661E+04  0.000E+00  0.000E+00  0.000E+00  4.02406E+01  1.156E-01  2.000E+01  2.000E+04  1.695E-02
   1    9   29     2     2    4.9661E+04 -5.7678E+01   4.9719E+04  0.000E+00  0.000E+00  0.000E+00  3.99904E+01  1.154E-01  2.000E+01  2.000E+04 -2.884E-03
   1    9   28     2     3    4.9719E+04 -5.3306E+02   5.0252E+04  0.000E+00  0.000E+00  0.000E+00  3.97408E+01  1.158E-01  2.000E+01  2.000E+04 -2.665E-02
   1    9   27     2     4    5.0252E+04 -2.1924E+03   5.2444E+04  0.000E+00  0.000E+00  0.000E+00  3.94927E+01  1.177E-01  2.000E+01  2.000E+04 -1.096E-01
   1   10   26     2     5    5.2444E+04 -8.4103E+02   5.3285E+04  0.000E+00  0.000E+00  0.000E+00  3.92448E+01  1.198E-01  2.000E+01  2.000E+04 -4.205E-02
   1   11   25     2     6    5.3285E+04 -7.7321E+02   5.4058E+04  0.000E+00  0.000E+00  0.000E+00  3.89959E+01  1.209E-01  2.000E+01  2.000E+04 -3.866E-02
   1   12   24     2     7    5.4058E+04 -1.2689E+03   5.5327E+04  0.000E+00  0.000E+00  0.000E+00  3.87473E+01  1.223E-01  2.000E+01  2.000E+04 -6.345E-02
   1   13   23     2     8    5.5327E+04 -2.5658E+02   5.5584E+04  0.000E+00  0.000E+00  0.000E+00  3.84983E+01  1.233E-01  2.000E+01  2.000E+04 -1.283E-02
   1   14   22     2     9    5.5584E+04  1.6366E+03   5.3947E+04  0.000E+00  0.000E+00  0.000E+00  3.82474E+01  1.224E-01  2.000E+01  2.000E+04  8.183E-02
   1   14   22     3     1    1.7939E+05 -8.7412E+03   1.8813E+05  0.000E+00  0.000E+00  0.000E+00  3.77285E+01  1.729E-01  2.000E+01  2.000E+04 -4.371E-01
   1   15   23     3     2    1.8813E+05 -6.1091E+02   1.8874E+05  0.000E+00  0.000E+00  0.000E+00  3.68422E+01  1.755E-01  2.000E+01  2.000E+04 -3.055E-02
   1   15   24     3     3    1.8874E+05 -3.0487E+02   1.8905E+05  0.000E+00  0.000E+00  0.000E+00  3.59536E+01  1.758E-01  2.000E+01  2.000E+04 -1.524E-02
   1   15   25     3     4    1.8905E+05 -2.5336E+02   1.8930E+05  0.000E+00  0.000E+00  0.000E+00  3.50648E+01  1.760E-01  2.000E+01  2.000E+04 -1.267E-02
   1   15   26     3     5    1.8930E+05  3.4663E+01   1.8926E+05  0.000E+00  0.000E+00  0.000E+00  3.41760E+01  1.760E-01  2.000E+01  2.000E+04  1.733E-03
   1   16   27     3     6    1.8926E+05  3.3733E+02   1.8893E+05  0.000E+00  0.000E+00  0.000E+00  3.32870E+01  1.759E-01  2.000E+01  2.000E+04  1.687E-02
   1   17   28     3     7    1.8893E+05  3.5293E+03   1.8540E+05  0.000E+00  0.000E+00  0.000E+00  3.23971E+01  1.748E-01  2.000E+01  2.000E+04  1.765E-01
   1   18   29     3     8    1.8540E+05  1.8564E+03   1.8354E+05  0.000E+00  0.000E+00  0.000E+00  3.15067E+01  1.733E-01  2.000E+01  2.000E+04  9.282E-02
   1   18   30     3     9    1.8354E+05 -4.6201E+02   1.8400E+05  0.000E+00  0.000E+00  0.000E+00  3.06174E+01  1.729E-01  2.000E+01  2.000E+04 -2.310E-02



1
              HEAD IN LAYER   1 AT END OF TIME STEP   1 IN STRESS PERIOD    4
  ---------------------------------------------------------------------------

          1      2      3      4      5      6      7      8      9     10
         11     12     13     14     15     16     17     18     19     20
         21     22     23     24     25     26     27     28     29     30
 .........................................................................
   1  ****** ****** ****** ****** ****** ****** ****** ****** ****** ******
      ****** ****** ****** ****** ****** ****** ****** ****** ****** ******
      ****** ****** ****** ****** ****** ****** ****** ****** ****** ******
   2  ****** ****** ****** ****** ****** ****** ****** ****** ****** ******
      ****** ****** ****** ****** ****** ****** ****** ****** ****** ******
      ****** ****** ****** ****** ****** ****** ****** ****** ****** ******
   3  ****** ****** ****** ****** ****** ****** ****** ****** ****** ******
      ****** ****** ****** ****** ****** ****** ****** ****** ****** ******
      ****** ****** ****** ****** ****** ****** ****** ****** ****** ******
   4  ****** ****** ****** ****** ****** ****** ****** ****** ****** ******
      ****** ****** ****** ****** ****** ****** ****** ****** ****** ******
      ****** ****** ****** ****** ****** ****** ****** ****** ****** ******
   5  ****** ****** ****** ****** ****** ****** ****** ****** ****** ******
      ****** ****** ****** ****** ****** ****** ****** ****** ****** ******
      ****** ****** ****** ****** ****** ****** ****** ****** ****** ******
   6  ****** ****** ****** ****** ****** ****** ****** ****** ****** ******
      ****** ****** ****** ****** ****** ****** ****** ****** ****** ******
      ****** ****** ****** ****** ****** ****** ****** ****** ****** ******
   7  ****** ****** ****** ****** ****** ****** ****** ****** ****** ******
      ****** ****** ****** ****** ****** ****** ****** ****** ****** ******
      ****** ****** ****** ****** ****** ****** ****** ****** ****** ******
   8  ****** ****** ****** ****** ****** ****** ****** ****** ****** ******
      ****** ****** ****** ****** ****** ****** ****** ****** ****** ******
      ****** ****** ****** ****** ****** ****** ****** ****** ****** ******
   9  ****** ****** ****** ****** ****** ****** ****** ****** ****** ******
      ****** ****** ****** ****** ****** ****** ****** ****** ****** ******
      ****** ****** ****** ****** ****** ****** ****** ****** ****** ******
  10  ****** ****** ****** ****** ****** ****** ****** ****** ****** ******
      ****** ****** ****** ****** ****** ****** ****** ****** ****** ******
      ****** ****** ****** ****** ****** ****** ****** ****** ****** ******
  11  ****** ****** ****** ****** ****** ****** ****** ****** ****** ******
      ****** ****** ****** ****** ****** ****** ****** ****** ****** ******
      ****** ****** ****** ****** ****** ****** ****** ****** ****** ******
  12  ****** ****** ****** ****** ****** ****** ****** ****** ****** ******
      ****** ****** ****** ****** ****** ****** ****** ****** ****** ******
      ****** ****** ****** ****** ****** ****** ****** ****** ****** ******
  13  ****** ****** ****** ****** ****** ****** ****** ****** ****** ******
      ****** ****** ****** ****** ****** ****** ****** ****** ****** ******
      ****** ****** ****** ****** ****** ****** ****** ****** ****** ******
  14  ****** ****** ****** ****** ****** ****** ****** ****** ****** ******
      ****** ****** ****** ****** ****** ****** ****** ****** ****** ******
      ****** ****** ****** ****** ****** ****** ****** ****** ****** ******
  15  ****** ****** ****** ****** ****** ****** ****** ****** ****** ******
      ****** ****** ****** ****** ****** ****** ****** ****** ****** ******
      ****** ****** ****** ****** ****** ****** ****** ****** ****** ******
  16  ****** ****** ****** ****** ****** ****** ****** ****** ****** ******
      ****** ****** ****** ****** ****** ****** ****** ****** ****** ******
      ****** ****** ****** ****** ****** ****** ****** ****** ****** ******
  17  ****** ****** ****** ****** ****** ****** ****** ****** ****** ******
      ****** ****** ****** ****** ****** ****** ****** ****** ****** ******
      ****** ****** ****** ****** ****** ****** ****** ****** ****** ******
  18  ****** ****** ****** ****** ****** ****** ****** ****** ****** ******
      ****** ****** ****** ****** ****** ****** ****** ****** ****** ******
      ****** ****** ****** ****** ****** ****** ****** ****** ****** ******
  19  ****** ****** ****** ****** ****** ****** ****** ****** ****** ******
      ****** ****** ****** ****** ****** ****** ****** ****** ****** ******
      ****** ****** ****** ****** ****** ****** ****** ****** ****** ******
  20  ****** ****** ****** ****** ****** ****** ****** ****** ****** ******
      ****** ****** ****** ****** ****** ****** ****** ****** ****** ******
      ****** ****** ****** ****** ****** ****** ****** ****** ****** ******
  21  ****** ****** ****** ****** ****** ****** ****** ****** ****** ******
      ****** ****** ****** ****** ****** ****** ****** ****** ****** ******
      ****** ****** ****** ****** ****** ****** ****** ****** ****** ******
  22  ****** ****** ****** ****** ****** ****** ****** ****** ****** ******
      ****** ****** ****** ****** ****** ****** ****** ****** ****** ******
      ****** ****** ****** ****** ****** ****** ****** ****** ****** ******
  23  ****** ****** ****** ****** ****** ****** ****** ****** ****** ******
      ****** ****** ****** ****** ****** ****** ****** ****** ****** ******
      ****** ****** ****** ****** ****** ****** ****** ****** ****** ******
  24  ****** ****** ****** ****** ****** ****** ****** ****** ****** ******
      ****** ****** ****** ****** ****** ****** ****** ****** ****** ******
      ****** ****** ****** ****** ****** ****** ****** ****** ****** ******
  25  ****** ****** ****** ****** ****** ****** ****** ****** ****** ******
      ****** ****** ****** ****** ****** ****** ****** ****** ****** ******
      ****** ****** ****** ****** ****** ****** ****** ****** ****** ******

 HEAD WILL BE SAVED ON UNIT   51 AT END OF TIME STEP    1, STRESS PERIOD    4
1
  VOLUMETRIC BUDGET FOR ENTIRE MODEL AT END OF TIME STEP    1, STRESS PERIOD   4
  ------------------------------------------------------------------------------

     CUMULATIVE VOLUMES      L**3       RATES FOR THIS TIME STEP      L**3/T
     ------------------                 ------------------------

           IN:                                      IN:
           ---                                      ---
             STORAGE =    29917213.4759               STORAGE =       19013.9634
       CONSTANT HEAD =     7698672.0326         CONSTANT HEAD =       28612.0572
               WELLS =           0.0000                 WELLS =           0.0000
            RECHARGE =     8804400.0000              RECHARGE =       27600.0000
      STREAM LEAKAGE =     3327377.8006        STREAM LEAKAGE =       13191.2919

            TOTAL IN =    49747663.3091              TOTAL IN =       88417.3125

          OUT:                                     OUT:
          ----                                     ----
             STORAGE =         310.7827               STORAGE =           3.4152
       CONSTANT HEAD =           0.0000         CONSTANT HEAD =           0.0000
               WELLS =    15044858.4183                 WELLS =       41218.7902
            RECHARGE =           0.0000              RECHARGE =           0.0000
      STREAM LEAKAGE =    34702496.2581        STREAM LEAKAGE =       47195.1080

           TOTAL OUT =    49747665.4592             TOTAL OUT =       88417.3134

            IN - OUT =          -2.1500              IN - OUT =      -9.3070E-04

 PERCENT DISCREPANCY =          -0.00     PERCENT DISCREPANCY =          -0.00






         TIME SUMMARY AT END OF TIME STEP    1 IN STRESS PERIOD    4
                    SECONDS     MINUTES      HOURS       DAYS        YEARS
                    -----------------------------------------------------------
   TIME STEP LENGTH 7.86240E+06 1.31040E+05  2184.0      91.000     0.24914    
 STRESS PERIOD TIME 7.86240E+06 1.31040E+05  2184.0      91.000     0.24914    
         TOTAL TIME 3.15360E+07 5.25600E+05  8760.0      365.00     0.99932    
1
1
                            STRESS PERIOD NO.    5, LENGTH =   92.00000    
                            -----------------------------------------------

                              NUMBER OF TIME STEPS =     1

                               MULTIPLIER FOR DELT =     1.500

                            INITIAL TIME STEP SIZE =   92.00000    

 WELL NO.  LAYER   ROW   COL   STRESS RATE         
 --------------------------------------------------
      1      1      8     16      -9735.    
      2      1     14     29     -0.1305E+05
      3      1     19     28      -9398.    
      4      1     18      3      -9037.    

      4 WELLS

                 RECHARGE =  5.000000E-04

 REUSING STREAM SEGMENT DATA FROM LAST STRESS PERIOD
 
 SOLVING FOR HEAD 


     7 CALLS TO PCG ROUTINE FOR TIME STEP   1 IN STRESS PERIOD    5
    26 TOTAL ITERATIONS

 OUTPUT CONTROL FOR STRESS PERIOD    5   TIME STEP    1
    SAVE BUDGET
    SAVE HEAD FOR ALL LAYERS
    PRINT HEAD FOR ALL LAYERS
 UBDSV2 SAVING "STREAMFLOW OUT  " ON UNIT  50 AT TIME STEP  1, STRESS PERIOD   5



 STREAM LISTING     PERIOD      5   STEP        1

 LAYER ROW COL. STREAM  RCH.  FLOW INTO     FLOW TO   FLOW OUT OF   OVRLND.     DIRECT     STREAM       STREAM     STREAM     STREAM   STREAMBED  STREAMBED
                SEG.NO.  NO.  STRM. RCH.    AQUIFER    STRM. RCH.    RUNOFF     PRECIP       ET          HEAD       DEPTH      WIDTH   CONDCTNC.   GRADIENT

   1   13    1     1     1    1.0000E+05 -1.2819E+03   1.0128E+05  0.000E+00  0.000E+00  0.000E+00  4.84066E+01  1.452E-01  2.000E+01  2.000E+04 -6.409E-02
   1   13    2     1     2    1.0128E+05 -2.3283E+03   1.0361E+05  0.000E+00  0.000E+00  0.000E+00  4.79309E+01  1.468E-01  2.000E+01  2.000E+04 -1.164E-01
   1   14    3     1     3    1.0361E+05 -2.2982E+02   1.0384E+05  0.000E+00  0.000E+00  0.000E+00  4.74547E+01  1.479E-01  2.000E+01  2.000E+04 -1.149E-02
   1   15    4     1     4    1.0384E+05 -4.1747E+01   1.0388E+05  0.000E+00  0.000E+00  0.000E+00  4.69775E+01  1.480E-01  2.000E+01  2.000E+04 -2.087E-03
   1   16    5     1     5    1.0388E+05  1.1124E+03   1.0277E+05  0.000E+00  0.000E+00  0.000E+00  4.64998E+01  1.475E-01  2.000E+01  2.000E+04  5.562E-02
   1   16    6     1     6    1.0277E+05 -2.2848E+02   1.0300E+05  0.000E+00  0.000E+00  0.000E+00  4.60221E+01  1.471E-01  2.000E+01  2.000E+04 -1.142E-02
   1   16    7     1     7    1.0300E+05 -5.4067E+02   1.0354E+05  0.000E+00  0.000E+00  0.000E+00  4.55452E+01  1.475E-01  2.000E+01  2.000E+04 -2.703E-02
   1   16    8     1     8    1.0354E+05 -7.0989E+02   1.0425E+05  0.000E+00  0.000E+00  0.000E+00  4.50685E+01  1.480E-01  2.000E+01  2.000E+04 -3.549E-02
   1   16    9     1     9    1.0425E+05 -8.0776E+02   1.0506E+05  0.000E+00  0.000E+00  0.000E+00  4.45918E+01  1.487E-01  2.000E+01  2.000E+04 -4.039E-02
   1   16   10     1    10    1.0506E+05 -8.6294E+02   1.0592E+05  0.000E+00  0.000E+00  0.000E+00  4.41153E+01  1.494E-01  2.000E+01  2.000E+04 -4.315E-02
   1   16   11     1    11    1.0592E+05 -9.1101E+02   1.0683E+05  0.000E+00  0.000E+00  0.000E+00  4.36388E+01  1.501E-01  2.000E+01  2.000E+04 -4.555E-02
   1   16   12     1    12    1.0683E+05 -1.6472E+03   1.0848E+05  0.000E+00  0.000E+00  0.000E+00  4.31626E+01  1.512E-01  2.000E+01  2.000E+04 -8.236E-02
   1   15   13     1    13    1.0848E+05 -1.5495E+03   1.1003E+05  0.000E+00  0.000E+00  0.000E+00  4.26866E+01  1.525E-01  2.000E+01  2.000E+04 -7.748E-02
   1   14   14     1    14    1.1003E+05 -1.7139E+03   1.1174E+05  0.000E+00  0.000E+00  0.000E+00  4.22107E+01  1.539E-01  2.000E+01  2.000E+04 -8.569E-02
   1   13   15     1    15    1.1174E+05 -1.7923E+03   1.1353E+05  0.000E+00  0.000E+00  0.000E+00  4.17349E+01  1.554E-01  2.000E+01  2.000E+04 -8.962E-02
   1   12   16     1    16    1.1353E+05 -1.8497E+03   1.1538E+05  0.000E+00  0.000E+00  0.000E+00  4.12591E+01  1.569E-01  2.000E+01  2.000E+04 -9.248E-02
   1   12   17     1    17    1.1538E+05 -1.2280E+03   1.1661E+05  0.000E+00  0.000E+00  0.000E+00  4.07831E+01  1.581E-01  2.000E+01  2.000E+04 -6.140E-02
   1   12   18     1    18    1.1661E+05 -1.2776E+03   1.1789E+05  0.000E+00  0.000E+00  0.000E+00  4.03069E+01  1.591E-01  2.000E+01  2.000E+04 -6.388E-02
   1   12   19     1    19    1.1789E+05 -1.8208E+03   1.1971E+05  0.000E+00  0.000E+00  0.000E+00  3.98309E+01  1.604E-01  2.000E+01  2.000E+04 -9.104E-02
   1   13   20     1    20    1.1971E+05 -1.6004E+03   1.2131E+05  0.000E+00  0.000E+00  0.000E+00  3.93550E+01  1.618E-01  2.000E+01  2.000E+04 -8.002E-02
   1   14   21     1    21    1.2131E+05 -1.5582E+03   1.2287E+05  0.000E+00  0.000E+00  0.000E+00  3.88790E+01  1.631E-01  2.000E+01  2.000E+04 -7.791E-02
   1   14   22     1    22    1.2287E+05  4.8934E+03   1.1797E+05  0.000E+00  0.000E+00  0.000E+00  3.84003E+01  1.617E-01  2.000E+01  2.000E+04  2.447E-01
   1    9   30     2     1    5.0000E+04  5.7404E+02   4.9426E+04  0.000E+00  0.000E+00  0.000E+00  4.02405E+01  1.155E-01  2.000E+01  2.000E+04  2.870E-02
   1    9   29     2     2    4.9426E+04  1.8093E+02   4.9245E+04  0.000E+00  0.000E+00  0.000E+00  3.99899E+01  1.149E-01  2.000E+01  2.000E+04  9.046E-03
   1    9   28     2     3    4.9245E+04 -2.8262E+02   4.9528E+04  0.000E+00  0.000E+00  0.000E+00  3.97400E+01  1.150E-01  2.000E+01  2.000E+04 -1.413E-02
   1    9   27     2     4    4.9528E+04 -1.7982E+03   5.1326E+04  0.000E+00  0.000E+00  0.000E+00  3.94915E+01  1.165E-01  2.000E+01  2.000E+04 -8.991E-02
   1   10   26     2     5    5.1326E+04 -4.9475E+02   5.1821E+04  0.000E+00  0.000E+00  0.000E+00  3.92430E+01  1.180E-01  2.000E+01  2.000E+04 -2.474E-02
   1   11   25     2     6    5.1821E+04 -4.5480E+02   5.2275E+04  0.000E+00  0.000E+00  0.000E+00  3.89937E+01  1.187E-01  2.000E+01  2.000E+04 -2.274E-02
   1   12   24     2     7    5.2275E+04 -9.7844E+02   5.3254E+04  0.000E+00  0.000E+00  0.000E+00  3.87447E+01  1.197E-01  2.000E+01  2.000E+04 -4.892E-02
   1   13   23     2     8    5.3254E+04 -1.8710E+02   5.3441E+04  0.000E+00  0.000E+00  0.000E+00  3.84955E+01  1.205E-01  2.000E+01  2.000E+04 -9.355E-03
   1   14   22     2     9    5.3441E+04  1.7740E+03   5.1667E+04  0.000E+00  0.000E+00  0.000E+00  3.82444E+01  1.194E-01  2.000E+01  2.000E+04  8.870E-02
   1   14   22     3     1    1.6964E+05 -8.6558E+03   1.7830E+05  0.000E+00  0.000E+00  0.000E+00  3.77229E+01  1.673E-01  2.000E+01  2.000E+04 -4.328E-01
   1   15   23     3     2    1.7830E+05 -5.1090E+02   1.7881E+05  0.000E+00  0.000E+00  0.000E+00  3.68366E+01  1.700E-01  2.000E+01  2.000E+04 -2.554E-02
   1   15   24     3     3    1.7881E+05 -2.3117E+02   1.7904E+05  0.000E+00  0.000E+00  0.000E+00  3.59480E+01  1.702E-01  2.000E+01  2.000E+04 -1.156E-02
   1   15   25     3     4    1.7904E+05 -1.7983E+02   1.7922E+05  0.000E+00  0.000E+00  0.000E+00  3.50592E+01  1.703E-01  2.000E+01  2.000E+04 -8.991E-03
   1   15   26     3     5    1.7922E+05  1.0983E+02   1.7911E+05  0.000E+00  0.000E+00  0.000E+00  3.41703E+01  1.703E-01  2.000E+01  2.000E+04  5.491E-03
   1   16   27     3     6    1.7911E+05  4.3179E+02   1.7868E+05  0.000E+00  0.000E+00  0.000E+00  3.32813E+01  1.702E-01  2.000E+01  2.000E+04  2.159E-02
   1   17   28     3     7    1.7868E+05  3.8126E+03   1.7486E+05  0.000E+00  0.000E+00  0.000E+00  3.23912E+01  1.689E-01  2.000E+01  2.000E+04  1.906E-01
   1   18   29     3     8    1.7486E+05  2.2528E+03   1.7261E+05  0.000E+00  0.000E+00  0.000E+00  3.15005E+01  1.672E-01  2.000E+01  2.000E+04  1.126E-01
   1   18   30     3     9    1.7261E+05 -1.8914E+02   1.7280E+05  0.000E+00  0.000E+00  0.000E+00  3.06110E+01  1.666E-01  2.000E+01  2.000E+04 -9.457E-03



1
              HEAD IN LAYER   1 AT END OF TIME STEP   1 IN STRESS PERIOD    5
  ---------------------------------------------------------------------------

          1      2      3      4      5      6      7      8      9     10
         11     12     13     14     15     16     17     18     19     20
         21     22     23     24     25     26     27     28     29     30
 .........................................................................
   1  ****** ****** ****** ****** ****** ****** ****** ****** ****** ******
      ****** ****** ****** ****** ****** ****** ****** ****** ****** ******
      ****** ****** ****** ****** ****** ****** ****** ****** ****** ******
   2  ****** ****** ****** ****** ****** ****** ****** ****** ****** ******
      ****** ****** ****** ****** ****** ****** ****** ****** ****** ******
      ****** ****** ****** ****** ****** ****** ****** ****** ****** ******
   3  ****** ****** ****** ****** ****** ****** ****** ****** ****** ******
      ****** ****** ****** ****** ****** ****** ****** ****** ****** ******
      ****** ****** ****** ****** ****** ****** ****** ****** ****** ******
   4  ****** ****** ****** ****** ****** ****** ****** ****** ****** ******
      ****** ****** ****** ****** ****** ****** ****** ****** ****** ******
      ****** ****** ****** ****** ****** ****** ****** ****** ****** ******
   5  ****** ****** ****** ****** ****** ****** ****** ****** ****** ******
      ****** ****** ****** ****** ****** ****** ****** ****** ****** ******
      ****** ****** ****** ****** ****** ****** ****** ****** ****** ******
   6  ****** ****** ****** ****** ****** ****** ****** ****** ****** ******
      ****** ****** ****** ****** ****** ****** ****** ****** ****** ******
      ****** ****** ****** ****** ****** ****** ****** ****** ****** ******
   7  ****** ****** ****** ****** ****** ****** ****** ****** ****** ******
      ****** ****** ****** ****** ****** ****** ****** ****** ****** ******
      ****** ****** ****** ****** ****** ****** ****** ****** ****** ******
   8  ****** ****** ****** ****** ****** ****** ****** ****** ****** ******
      ****** ****** ****** ****** ****** ****** ****** ****** ****** ******
      ****** ****** ****** ****** ****** ****** ****** ****** ****** ******
   9  ****** ****** ****** ****** ****** ****** ****** ****** ****** ******
      ****** ****** ****** ****** ****** ****** ****** ****** ****** ******
      ****** ****** ****** ****** ****** ****** ****** ****** ****** ******
  10  ****** ****** ****** ****** ****** ****** ****** ****** ****** ******
      ****** ****** ****** ****** ****** ****** ****** ****** ****** ******
      ****** ****** ****** ****** ****** ****** ****** ****** ****** ******
  11  ****** ****** ****** ****** ****** ****** ****** ****** ****** ******
      ****** ****** ****** ****** ****** ****** ****** ****** ****** ******
      ****** ****** ****** ****** ****** ****** ****** ****** ****** ******
  12  ****** ****** ****** ****** ****** ****** ****** ****** ****** ******
      ****** ****** ****** ****** ****** ****** ****** ****** ****** ******
      ****** ****** ****** ****** ****** ****** ****** ****** ****** ******
  13  ****** ****** ****** ****** ****** ****** ****** ****** ****** ******
      ****** ****** ****** ****** ****** ****** ****** ****** ****** ******
      ****** ****** ****** ****** ****** ****** ****** ****** ****** ******
  14  ****** ****** ****** ****** ****** ****** ****** ****** ****** ******
      ****** ****** ****** ****** ****** ****** ****** ****** ****** ******
      ****** ****** ****** ****** ****** ****** ****** ****** ****** ******
  15  ****** ****** ****** ****** ****** ****** ****** ****** ****** ******
      ****** ****** ****** ****** ****** ****** ****** ****** ****** ******
      ****** ****** ****** ****** ****** ****** ****** ****** ****** ******
  16  ****** ****** ****** ****** ****** ****** ****** ****** ****** ******
      ****** ****** ****** ****** ****** ****** ****** ****** ****** ******
      ****** ****** ****** ****** ****** ****** ****** ****** ****** ******
  17  ****** ****** ****** ****** ****** ****** ****** ****** ****** ******
      ****** ****** ****** ****** ****** ****** ****** ****** ****** ******
      ****** ****** ****** ****** ****** ****** ****** ****** ****** ******
  18  ****** ****** ****** ****** ****** ****** ****** ****** ****** ******
      ****** ****** ****** ****** ****** ****** ****** ****** ****** ******
      ****** ****** ****** ****** ****** ****** ****** ****** ****** ******
  19  ****** ****** ****** ****** ****** ****** ****** ****** ****** ******
      ****** ****** ****** ****** ****** ****** ****** ****** ****** ******
      ****** ****** ****** ****** ****** ****** ****** ****** ****** ******
  20  ****** ****** ****** ****** ****** ****** ****** ****** ****** ******
      ****** ****** ****** ****** ****** ****** ****** ****** ****** ******
      ****** ****** ****** ****** ****** ****** ****** ****** ****** ******
  21  ****** ****** ****** ****** ****** ****** ****** ****** ****** ******
      ****** ****** ****** ****** ****** ****** ****** ****** ****** ******
      ****** ****** ****** ****** ****** ****** ****** ****** ****** ******
  22  ****** ****** ****** ****** ****** ****** ****** ****** ****** ******
      ****** ****** ****** ****** ****** ****** ****** ****** ****** ******
      ****** ****** ****** ****** ****** ****** ****** ****** ****** ******
  23  ****** ****** ****** ****** ****** ****** ****** ****** ****** ******
      ****** ****** ****** ****** ****** ****** ****** ****** ****** ******
      ****** ****** ****** ****** ****** ****** ****** ****** ****** ******
  24  ****** ****** ****** ****** ****** ****** ****** ****** ****** ******
      ****** ****** ****** ****** ****** ****** ****** ****** ****** ******
      ****** ****** ****** ****** ****** ****** ****** ****** ****** ******
  25  ****** ****** ****** ****** ****** ****** ****** ****** ****** ******
      ****** ****** ****** ****** ****** ****** ****** ****** ****** ******
      ****** ****** ****** ****** ****** ****** ****** ****** ****** ******

 HEAD WILL BE SAVED ON UNIT   51 AT END OF TIME STEP    1, STRESS PERIOD    5
1
  VOLUMETRIC BUDGET FOR ENTIRE MODEL AT END OF TIME STEP    1, STRESS PERIOD   5
  ------------------------------------------------------------------------------

     CUMULATIVE VOLUMES      L**3       RATES FOR THIS TIME STEP      L**3/T
     ------------------                 ------------------------

           IN:                                      IN:
           ---                                      ---
             STORAGE =    31631515.2991               STORAGE =       18633.7155
       CONSTANT HEAD =    10604606.2715         CONSTANT HEAD =       31586.2417
               WELLS =           0.0000                 WELLS =           0.0000
            RECHARGE =    10074000.0000              RECHARGE =       13800.0000
      STREAM LEAKAGE =     4720416.8053        STREAM LEAKAGE =       15141.7283

            TOTAL IN =    57030538.3760              TOTAL IN =       79161.6855

          OUT:                                     OUT:
          ----                                     ----
             STORAGE =         310.7827               STORAGE =           0.0000
       CONSTANT HEAD =           0.0000         CONSTANT HEAD =           0.0000
               WELLS =    18836987.1155                 WELLS =       41218.7902
            RECHARGE =           0.0000              RECHARGE =           0.0000
      STREAM LEAKAGE =    38193242.9333        STREAM LEAKAGE =       37942.8986

           TOTAL OUT =    57030540.8316             TOTAL OUT =       79161.6888

            IN - OUT =          -2.4556              IN - OUT =      -3.3214E-03

 PERCENT DISCREPANCY =          -0.00     PERCENT DISCREPANCY =          -0.00






         TIME SUMMARY AT END OF TIME STEP    1 IN STRESS PERIOD    5
                    SECONDS     MINUTES      HOURS       DAYS        YEARS
                    -----------------------------------------------------------
   TIME STEP LENGTH 7.94880E+06 1.32480E+05  2208.0      92.000     0.25188    
 STRESS PERIOD TIME 7.94880E+06 1.32480E+05  2208.0      92.000     0.25188    
         TOTAL TIME 3.94848E+07 6.58080E+05  10968.      457.00      1.2512    
1
1
                            STRESS PERIOD NO.    6, LENGTH =   91.00000    
                            -----------------------------------------------

                              NUMBER OF TIME STEPS =     1

                               MULTIPLIER FOR DELT =     1.500

                            INITIAL TIME STEP SIZE =   91.00000    

 WELL NO.  LAYER   ROW   COL   STRESS RATE         
 --------------------------------------------------
      1      1      8     16      -9735.    
      2      1     14     29     -0.1305E+05
      3      1     19     28      -9398.    
      4      1     18      3      -9037.    

      4 WELLS

                 RECHARGE =  2.000000E-03

 REUSING STREAM SEGMENT DATA FROM LAST STRESS PERIOD
 
 SOLVING FOR HEAD 


     7 CALLS TO PCG ROUTINE FOR TIME STEP   1 IN STRESS PERIOD    6
    26 TOTAL ITERATIONS

 OUTPUT CONTROL FOR STRESS PERIOD    6   TIME STEP    1
    SAVE BUDGET
    SAVE HEAD FOR ALL LAYERS
    PRINT HEAD FOR ALL LAYERS
 UBDSV2 SAVING "STREAMFLOW OUT  " ON UNIT  50 AT TIME STEP  1, STRESS PERIOD   6



 STREAM LISTING     PERIOD      6   STEP        1

 LAYER ROW COL. STREAM  RCH.  FLOW INTO     FLOW TO   FLOW OUT OF   OVRLND.     DIRECT     STREAM       STREAM     STREAM     STREAM   STREAMBED  STREAMBED
                SEG.NO.  NO.  STRM. RCH.    AQUIFER    STRM. RCH.    RUNOFF     PRECIP       ET          HEAD       DEPTH      WIDTH   CONDCTNC.   GRADIENT

   1   13    1     1     1    1.0000E+05 -1.5859E+03   1.0159E+05  0.000E+00  0.000E+00  0.000E+00  4.84067E+01  1.453E-01  2.000E+01  2.000E+04 -7.929E-02
   1   13    2     1     2    1.0159E+05 -2.6617E+03   1.0425E+05  0.000E+00  0.000E+00  0.000E+00  4.79313E+01  1.472E-01  2.000E+01  2.000E+04 -1.331E-01
   1   14    3     1     3    1.0425E+05 -3.8221E+02   1.0463E+05  0.000E+00  0.000E+00  0.000E+00  4.74553E+01  1.485E-01  2.000E+01  2.000E+04 -1.911E-02
   1   15    4     1     4    1.0463E+05 -2.0508E+02   1.0483E+05  0.000E+00  0.000E+00  0.000E+00  4.69783E+01  1.487E-01  2.000E+01  2.000E+04 -1.025E-02
   1   16    5     1     5    1.0483E+05  6.3302E+02   1.0420E+05  0.000E+00  0.000E+00  0.000E+00  4.65008E+01  1.485E-01  2.000E+01  2.000E+04  3.165E-02
   1   16    6     1     6    1.0420E+05 -5.1206E+02   1.0471E+05  0.000E+00  0.000E+00  0.000E+00  4.60235E+01  1.485E-01  2.000E+01  2.000E+04 -2.560E-02
   1   16    7     1     7    1.0471E+05 -8.1032E+02   1.0552E+05  0.000E+00  0.000E+00  0.000E+00  4.55468E+01  1.491E-01  2.000E+01  2.000E+04 -4.052E-02
   1   16    8     1     8    1.0552E+05 -9.7587E+02   1.0650E+05  0.000E+00  0.000E+00  0.000E+00  4.50703E+01  1.498E-01  2.000E+01  2.000E+04 -4.879E-02
   1   16    9     1     9    1.0650E+05 -1.0741E+03   1.0757E+05  0.000E+00  0.000E+00  0.000E+00  4.45939E+01  1.507E-01  2.000E+01  2.000E+04 -5.370E-02
   1   16   10     1    10    1.0757E+05 -1.1316E+03   1.0871E+05  0.000E+00  0.000E+00  0.000E+00  4.41175E+01  1.516E-01  2.000E+01  2.000E+04 -5.658E-02
   1   16   11     1    11    1.0871E+05 -1.1837E+03   1.0989E+05  0.000E+00  0.000E+00  0.000E+00  4.36412E+01  1.526E-01  2.000E+01  2.000E+04 -5.918E-02
   1   16   12     1    12    1.0989E+05 -2.0884E+03   1.1198E+05  0.000E+00  0.000E+00  0.000E+00  4.31653E+01  1.539E-01  2.000E+01  2.000E+04 -1.044E-01
   1   15   13     1    13    1.1198E+05 -2.0007E+03   1.1398E+05  0.000E+00  0.000E+00  0.000E+00  4.26897E+01  1.556E-01  2.000E+01  2.000E+04 -1.000E-01
   1   14   14     1    14    1.1398E+05 -2.1593E+03   1.1614E+05  0.000E+00  0.000E+00  0.000E+00  4.22142E+01  1.574E-01  2.000E+01  2.000E+04 -1.080E-01
   1   13   15     1    15    1.1614E+05 -2.2175E+03   1.1836E+05  0.000E+00  0.000E+00  0.000E+00  4.17387E+01  1.591E-01  2.000E+01  2.000E+04 -1.109E-01
   1   12   16     1    16    1.1836E+05 -2.2266E+03   1.2058E+05  0.000E+00  0.000E+00  0.000E+00  4.12632E+01  1.609E-01  2.000E+01  2.000E+04 -1.113E-01
   1   12   17     1    17    1.2058E+05 -1.5378E+03   1.2212E+05  0.000E+00  0.000E+00  0.000E+00  4.07875E+01  1.625E-01  2.000E+01  2.000E+04 -7.689E-02
   1   12   18     1    18    1.2212E+05 -1.5918E+03   1.2371E+05  0.000E+00  0.000E+00  0.000E+00  4.03114E+01  1.637E-01  2.000E+01  2.000E+04 -7.959E-02
   1   12   19     1    19    1.2371E+05 -2.2115E+03   1.2592E+05  0.000E+00  0.000E+00  0.000E+00  3.98357E+01  1.652E-01  2.000E+01  2.000E+04 -1.106E-01
   1   13   20     1    20    1.2592E+05 -2.0206E+03   1.2794E+05  0.000E+00  0.000E+00  0.000E+00  3.93601E+01  1.669E-01  2.000E+01  2.000E+04 -1.010E-01
   1   14   21     1    21    1.2794E+05 -1.9685E+03   1.2991E+05  0.000E+00  0.000E+00  0.000E+00  3.88844E+01  1.685E-01  2.000E+01  2.000E+04 -9.842E-02
   1   14   22     1    22    1.2991E+05  4.7858E+03   1.2513E+05  0.000E+00  0.000E+00  0.000E+00  3.84060E+01  1.674E-01  2.000E+01  2.000E+04  2.393E-01
   1    9   30     2     1    5.0000E+04  2.1124E+02   4.9789E+04  0.000E+00  0.000E+00  0.000E+00  4.02407E+01  1.157E-01  2.000E+01  2.000E+04  1.056E-02
   1    9   29     2     2    4.9789E+04 -1.7747E+02   4.9966E+04  0.000E+00  0.000E+00  0.000E+00  3.99907E+01  1.157E-01  2.000E+01  2.000E+04 -8.873E-03
   1    9   28     2     3    4.9966E+04 -6.3417E+02   5.0600E+04  0.000E+00  0.000E+00  0.000E+00  3.97413E+01  1.163E-01  2.000E+01  2.000E+04 -3.171E-02
   1    9   27     2     4    5.0600E+04 -2.2421E+03   5.2842E+04  0.000E+00  0.000E+00  0.000E+00  3.94932E+01  1.182E-01  2.000E+01  2.000E+04 -1.121E-01
   1   10   26     2     5    5.2842E+04 -9.6247E+02   5.3805E+04  0.000E+00  0.000E+00  0.000E+00  3.92454E+01  1.204E-01  2.000E+01  2.000E+04 -4.812E-02
   1   11   25     2     6    5.3805E+04 -9.0782E+02   5.4713E+04  0.000E+00  0.000E+00  0.000E+00  3.89967E+01  1.217E-01  2.000E+01  2.000E+04 -4.539E-02
   1   12   24     2     7    5.4713E+04 -1.3868E+03   5.6100E+04  0.000E+00  0.000E+00  0.000E+00  3.87482E+01  1.232E-01  2.000E+01  2.000E+04 -6.934E-02
   1   13   23     2     8    5.6100E+04 -3.2467E+02   5.6424E+04  0.000E+00  0.000E+00  0.000E+00  3.84994E+01  1.244E-01  2.000E+01  2.000E+04 -1.623E-02
   1   14   22     2     9    5.6424E+04  1.6356E+03   5.4789E+04  0.000E+00  0.000E+00  0.000E+00  3.82485E+01  1.235E-01  2.000E+01  2.000E+04  8.178E-02
   1   14   22     3     1    1.7991E+05 -8.7587E+03   1.8867E+05  0.000E+00  0.000E+00  0.000E+00  3.77288E+01  1.732E-01  2.000E+01  2.000E+04 -4.379E-01
   1   15   23     3     2    1.8867E+05 -6.4774E+02   1.8932E+05  0.000E+00  0.000E+00  0.000E+00  3.68425E+01  1.759E-01  2.000E+01  2.000E+04 -3.239E-02
   1   15   24     3     3    1.8932E+05 -3.5263E+02   1.8967E+05  0.000E+00  0.000E+00  0.000E+00  3.59539E+01  1.761E-01  2.000E+01  2.000E+04 -1.763E-02
   1   15   25     3     4    1.8967E+05 -3.0563E+02   1.8998E+05  0.000E+00  0.000E+00  0.000E+00  3.50652E+01  1.763E-01  2.000E+01  2.000E+04 -1.528E-02
   1   15   26     3     5    1.8998E+05 -4.0783E+01   1.9002E+05  0.000E+00  0.000E+00  0.000E+00  3.41764E+01  1.764E-01  2.000E+01  2.000E+04 -2.039E-03
   1   16   27     3     6    1.9002E+05  2.6407E+02   1.8976E+05  0.000E+00  0.000E+00  0.000E+00  3.32875E+01  1.764E-01  2.000E+01  2.000E+04  1.320E-02
   1   17   28     3     7    1.8976E+05  3.3535E+03   1.8640E+05  0.000E+00  0.000E+00  0.000E+00  3.23976E+01  1.753E-01  2.000E+01  2.000E+04  1.677E-01
   1   18   29     3     8    1.8640E+05  1.8188E+03   1.8458E+05  0.000E+00  0.000E+00  0.000E+00  3.15072E+01  1.739E-01  2.000E+01  2.000E+04  9.094E-02
   1   18   30     3     9    1.8458E+05 -5.4155E+02   1.8513E+05  0.000E+00  0.000E+00  0.000E+00  3.06180E+01  1.735E-01  2.000E+01  2.000E+04 -2.708E-02



1
              HEAD IN LAYER   1 AT END OF TIME STEP   1 IN STRESS PERIOD    6
  ---------------------------------------------------------------------------

          1      2      3      4      5      6      7      8      9     10
         11     12     13     14     15     16     17     18     19     20
         21     22     23     24     25     26     27     28     29     30
 .........................................................................
   1  ****** ****** ****** ****** ****** ****** ****** ****** ****** ******
      ****** ****** ****** ****** ****** ****** ****** ****** ****** ******
      ****** ****** ****** ****** ****** ****** ****** ****** ****** ******
   2  ****** ****** ****** ****** ****** ****** ****** ****** ****** ******
      ****** ****** ****** ****** ****** ****** ****** ****** ****** ******
      ****** ****** ****** ****** ****** ****** ****** ****** ****** ******
   3  ****** ****** ****** ****** ****** ****** ****** ****** ****** ******
      ****** ****** ****** ****** ****** ****** ****** ****** ****** ******
      ****** ****** ****** ****** ****** ****** ****** ****** ****** ******
   4  ****** ****** ****** ****** ****** ****** ****** ****** ****** ******
      ****** ****** ****** ****** ****** ****** ****** ****** ****** ******
      ****** ****** ****** ****** ****** ****** ****** ****** ****** ******
   5  ****** ****** ****** ****** ****** ****** ****** ****** ****** ******
      ****** ****** ****** ****** ****** ****** ****** ****** ****** ******
      ****** ****** ****** ****** ****** ****** ****** ****** ****** ******
   6  ****** ****** ****** ****** ****** ****** ****** ****** ****** ******
      ****** ****** ****** ****** ****** ****** ****** ****** ****** ******
      ****** ****** ****** ****** ****** ****** ****** ****** ****** ******
   7  ****** ****** ****** ****** ****** ****** ****** ****** ****** ******
      ****** ****** ****** ****** ****** ****** ****** ****** ****** ******
      ****** ****** ****** ****** ****** ****** ****** ****** ****** ******
   8  ****** ****** ****** ****** ****** ****** ****** ****** ****** ******
      ****** ****** ****** ****** ****** ****** ****** ****** ****** ******
      ****** ****** ****** ****** ****** ****** ****** ****** ****** ******
   9  ****** ****** ****** ****** ****** ****** ****** ****** ****** ******
      ****** ****** ****** ****** ****** ****** ****** ****** ****** ******
      ****** ****** ****** ****** ****** ****** ****** ****** ****** ******
  10  ****** ****** ****** ****** ****** ****** ****** ****** ****** ******
      ****** ****** ****** ****** ****** ****** ****** ****** ****** ******
      ****** ****** ****** ****** ****** ****** ****** ****** ****** ******
  11  ****** ****** ****** ****** ****** ****** ****** ****** ****** ******
      ****** ****** ****** ****** ****** ****** ****** ****** ****** ******
      ****** ****** ****** ****** ****** ****** ****** ****** ****** ******
  12  ****** ****** ****** ****** ****** ****** ****** ****** ****** ******
      ****** ****** ****** ****** ****** ****** ****** ****** ****** ******
      ****** ****** ****** ****** ****** ****** ****** ****** ****** ******
  13  ****** ****** ****** ****** ****** ****** ****** ****** ****** ******
      ****** ****** ****** ****** ****** ****** ****** ****** ****** ******
      ****** ****** ****** ****** ****** ****** ****** ****** ****** ******
  14  ****** ****** ****** ****** ****** ****** ****** ****** ****** ******
      ****** ****** ****** ****** ****** ****** ****** ****** ****** ******
      ****** ****** ****** ****** ****** ****** ****** ****** ****** ******
  15  ****** ****** ****** ****** ****** ****** ****** ****** ****** ******
      ****** ****** ****** ****** ****** ****** ****** ****** ****** ******
      ****** ****** ****** ****** ****** ****** ****** ****** ****** ******
  16  ****** ****** ****** ****** ****** ****** ****** ****** ****** ******
      ****** ****** ****** ****** ****** ****** ****** ****** ****** ******
      ****** ****** ****** ****** ****** ****** ****** ****** ****** ******
  17  ****** ****** ****** ****** ****** ****** ****** ****** ****** ******
      ****** ****** ****** ****** ****** ****** ****** ****** ****** ******
      ****** ****** ****** ****** ****** ****** ****** ****** ****** ******
  18  ****** ****** ****** ****** ****** ****** ****** ****** ****** ******
      ****** ****** ****** ****** ****** ****** ****** ****** ****** ******
      ****** ****** ****** ****** ****** ****** ****** ****** ****** ******
  19  ****** ****** ****** ****** ****** ****** ****** ****** ****** ******
      ****** ****** ****** ****** ****** ****** ****** ****** ****** ******
      ****** ****** ****** ****** ****** ****** ****** ****** ****** ******
  20  ****** ****** ****** ****** ****** ****** ****** ****** ****** ******
      ****** ****** ****** ****** ****** ****** ****** ****** ****** ******
      ****** ****** ****** ****** ****** ****** ****** ****** ****** ******
  21  ****** ****** ****** ****** ****** ****** ****** ****** ****** ******
      ****** ****** ****** ****** ****** ****** ****** ****** ****** ******
      ****** ****** ****** ****** ****** ****** ****** ****** ****** ******
  22  ****** ****** ****** ****** ****** ****** ****** ****** ****** ******
      ****** ****** ****** ****** ****** ****** ****** ****** ****** ******
      ****** ****** ****** ****** ****** ****** ****** ****** ****** ******
  23  ****** ****** ****** ****** ****** ****** ****** ****** ****** ******
      ****** ****** ****** ****** ****** ****** ****** ****** ****** ******
      ****** ****** ****** ****** ****** ****** ****** ****** ****** ******
  24  ****** ****** ****** ****** ****** ****** ****** ****** ****** ******
      ****** ****** ****** ****** ****** ****** ****** ****** ****** ******
      ****** ****** ****** ****** ****** ****** ****** ****** ****** ******
  25  ****** ****** ****** ****** ****** ****** ****** ****** ****** ******
      ****** ****** ****** ****** ****** ****** ****** ****** ****** ******
      ****** ****** ****** ****** ****** ****** ****** ****** ****** ******

 HEAD WILL BE SAVED ON UNIT   51 AT END OF TIME STEP    1, STRESS PERIOD    6
1
  VOLUMETRIC BUDGET FOR ENTIRE MODEL AT END OF TIME STEP    1, STRESS PERIOD   6
  ------------------------------------------------------------------------------

     CUMULATIVE VOLUMES      L**3       RATES FOR THIS TIME STEP      L**3/T
     ------------------                 ------------------------

           IN:                                      IN:
           ---                                      ---
             STORAGE =    31631515.2991               STORAGE =           0.0000
       CONSTANT HEAD =    13308356.1278         CONSTANT HEAD =       29711.5369
               WELLS =           0.0000                 WELLS =           0.0000
            RECHARGE =    15097200.0000              RECHARGE =       55200.0000
      STREAM LEAKAGE =     5876297.2198        STREAM LEAKAGE =       12701.9826

            TOTAL IN =    65913368.6468              TOTAL IN =       97613.5195

          OUT:                                     OUT:
          ----                                     ----
             STORAGE =      779928.5757               STORAGE =        8567.2285
       CONSTANT HEAD =           0.0000         CONSTANT HEAD =           0.0000
               WELLS =    22587897.0226                 WELLS =       41218.7902
            RECHARGE =           0.0000              RECHARGE =           0.0000
      STREAM LEAKAGE =    42545545.2400        STREAM LEAKAGE =       47827.4979

           TOTAL OUT =    65913370.8383             TOTAL OUT =       97613.5166

            IN - OUT =          -2.1915              IN - OUT =       2.9023E-03

 PERCENT DISCREPANCY =          -0.00     PERCENT DISCREPANCY =           0.00






         TIME SUMMARY AT END OF TIME STEP    1 IN STRESS PERIOD    6
                    SECONDS     MINUTES      HOURS       DAYS        YEARS
                    -----------------------------------------------------------
   TIME STEP LENGTH 7.86240E+06 1.31040E+05  2184.0      91.000     0.24914    
 STRESS PERIOD TIME 7.86240E+06 1.31040E+05  2184.0      91.000     0.24914    
         TOTAL TIME 4.73472E+07 7.89120E+05  13152.      548.00      1.5003    
1
1
                            STRESS PERIOD NO.    7, LENGTH =   91.00000    
                            -----------------------------------------------

                              NUMBER OF TIME STEPS =     1

                               MULTIPLIER FOR DELT =     1.500

                            INITIAL TIME STEP SIZE =   91.00000    

 WELL NO.  LAYER   ROW   COL   STRESS RATE         
 --------------------------------------------------
      1      1      8     16      -9735.    
      2      1     14     29     -0.1305E+05
      3      1     19     28      -9398.    
      4      1     18      3      -9037.    

      4 WELLS

                 RECHARGE =   0.00000    

 REUSING STREAM SEGMENT DATA FROM LAST STRESS PERIOD
 
 SOLVING FOR HEAD 


     7 CALLS TO PCG ROUTINE FOR TIME STEP   1 IN STRESS PERIOD    7
    26 TOTAL ITERATIONS

 OUTPUT CONTROL FOR STRESS PERIOD    7   TIME STEP    1
    SAVE BUDGET
    SAVE HEAD FOR ALL LAYERS
    PRINT HEAD FOR ALL LAYERS
 UBDSV2 SAVING "STREAMFLOW OUT  " ON UNIT  50 AT TIME STEP  1, STRESS PERIOD   7



 STREAM LISTING     PERIOD      7   STEP        1

 LAYER ROW COL. STREAM  RCH.  FLOW INTO     FLOW TO   FLOW OUT OF   OVRLND.     DIRECT     STREAM       STREAM     STREAM     STREAM   STREAMBED  STREAMBED
                SEG.NO.  NO.  STRM. RCH.    AQUIFER    STRM. RCH.    RUNOFF     PRECIP       ET          HEAD       DEPTH      WIDTH   CONDCTNC.   GRADIENT

   1   13    1     1     1    1.0000E+05 -9.1372E+02   1.0091E+05  0.000E+00  0.000E+00  0.000E+00  4.84064E+01  1.450E-01  2.000E+01  2.000E+04 -4.569E-02
   1   13    2     1     2    1.0091E+05 -1.9099E+03   1.0282E+05  0.000E+00  0.000E+00  0.000E+00  4.79304E+01  1.463E-01  2.000E+01  2.000E+04 -9.549E-02
   1   14    3     1     3    1.0282E+05 -1.2890E+02   1.0295E+05  0.000E+00  0.000E+00  0.000E+00  4.74540E+01  1.471E-01  2.000E+01  2.000E+04 -6.445E-03
   1   15    4     1     4    1.0295E+05  5.9177E+01   1.0289E+05  0.000E+00  0.000E+00  0.000E+00  4.69767E+01  1.472E-01  2.000E+01  2.000E+04  2.959E-03
   1   16    5     1     5    1.0289E+05  1.3943E+03   1.0150E+05  0.000E+00  0.000E+00  0.000E+00  4.64988E+01  1.465E-01  2.000E+01  2.000E+04  6.971E-02
   1   16    6     1     6    1.0150E+05 -5.3938E+01   1.0155E+05  0.000E+00  0.000E+00  0.000E+00  4.60210E+01  1.460E-01  2.000E+01  2.000E+04 -2.697E-03
   1   16    7     1     7    1.0155E+05 -3.7115E+02   1.0192E+05  0.000E+00  0.000E+00  0.000E+00  4.55439E+01  1.462E-01  2.000E+01  2.000E+04 -1.856E-02
   1   16    8     1     8    1.0192E+05 -5.4301E+02   1.0247E+05  0.000E+00  0.000E+00  0.000E+00  4.50670E+01  1.465E-01  2.000E+01  2.000E+04 -2.715E-02
   1   16    9     1     9    1.0247E+05 -6.4469E+02   1.0311E+05  0.000E+00  0.000E+00  0.000E+00  4.45902E+01  1.471E-01  2.000E+01  2.000E+04 -3.223E-02
   1   16   10     1    10    1.0311E+05 -7.0504E+02   1.0382E+05  0.000E+00  0.000E+00  0.000E+00  4.41135E+01  1.476E-01  2.000E+01  2.000E+04 -3.525E-02
   1   16   11     1    11    1.0382E+05 -7.5618E+02   1.0457E+05  0.000E+00  0.000E+00  0.000E+00  4.36369E+01  1.483E-01  2.000E+01  2.000E+04 -3.781E-02
   1   16   12     1    12    1.0457E+05 -1.3703E+03   1.0594E+05  0.000E+00  0.000E+00  0.000E+00  4.31605E+01  1.492E-01  2.000E+01  2.000E+04 -6.851E-02
   1   15   13     1    13    1.0594E+05 -1.2305E+03   1.0717E+05  0.000E+00  0.000E+00  0.000E+00  4.26844E+01  1.503E-01  2.000E+01  2.000E+04 -6.153E-02
   1   14   14     1    14    1.0717E+05 -1.3611E+03   1.0853E+05  0.000E+00  0.000E+00  0.000E+00  4.22082E+01  1.514E-01  2.000E+01  2.000E+04 -6.805E-02
   1   13   15     1    15    1.0853E+05 -1.4168E+03   1.0995E+05  0.000E+00  0.000E+00  0.000E+00  4.17321E+01  1.525E-01  2.000E+01  2.000E+04 -7.084E-02
   1   12   16     1    16    1.0995E+05 -1.4314E+03   1.1138E+05  0.000E+00  0.000E+00  0.000E+00  4.12560E+01  1.537E-01  2.000E+01  2.000E+04 -7.157E-02
   1   12   17     1    17    1.1138E+05 -9.6012E+02   1.1234E+05  0.000E+00  0.000E+00  0.000E+00  4.07797E+01  1.547E-01  2.000E+01  2.000E+04 -4.801E-02
   1   12   18     1    18    1.1234E+05 -1.0284E+03   1.1337E+05  0.000E+00  0.000E+00  0.000E+00  4.03033E+01  1.555E-01  2.000E+01  2.000E+04 -5.142E-02
   1   12   19     1    19    1.1337E+05 -1.5234E+03   1.1489E+05  0.000E+00  0.000E+00  0.000E+00  3.98270E+01  1.566E-01  2.000E+01  2.000E+04 -7.617E-02
   1   13   20     1    20    1.1489E+05 -1.3507E+03   1.1625E+05  0.000E+00  0.000E+00  0.000E+00  3.93510E+01  1.578E-01  2.000E+01  2.000E+04 -6.754E-02
   1   14   21     1    21    1.1625E+05 -1.3074E+03   1.1755E+05  0.000E+00  0.000E+00  0.000E+00  3.88748E+01  1.589E-01  2.000E+01  2.000E+04 -6.537E-02
   1   14   22     1    22    1.1755E+05  4.9435E+03   1.1261E+05  0.000E+00  0.000E+00  0.000E+00  3.83960E+01  1.574E-01  2.000E+01  2.000E+04  2.472E-01
   1    9   30     2     1    5.0000E+04  7.2514E+02   4.9275E+04  0.000E+00  0.000E+00  0.000E+00  4.02404E+01  1.154E-01  2.000E+01  2.000E+04  3.626E-02
   1    9   29     2     2    4.9275E+04  3.3466E+02   4.8940E+04  0.000E+00  0.000E+00  0.000E+00  3.99896E+01  1.146E-01  2.000E+01  2.000E+04  1.673E-02
   1    9   28     2     3    4.8940E+04 -1.2064E+02   4.9061E+04  0.000E+00  0.000E+00  0.000E+00  3.97395E+01  1.145E-01  2.000E+01  2.000E+04 -6.032E-03
   1    9   27     2     4    4.9061E+04 -1.5441E+03   5.0605E+04  0.000E+00  0.000E+00  0.000E+00  3.94906E+01  1.156E-01  2.000E+01  2.000E+04 -7.720E-02
   1   10   26     2     5    5.0605E+04 -2.6254E+02   5.0867E+04  0.000E+00  0.000E+00  0.000E+00  3.92419E+01  1.169E-01  2.000E+01  2.000E+04 -1.313E-02
   1   11   25     2     6    5.0867E+04 -2.3655E+02   5.1104E+04  0.000E+00  0.000E+00  0.000E+00  3.89922E+01  1.172E-01  2.000E+01  2.000E+04 -1.183E-02
   1   12   24     2     7    5.1104E+04 -7.7470E+02   5.1879E+04  0.000E+00  0.000E+00  0.000E+00  3.87429E+01  1.179E-01  2.000E+01  2.000E+04 -3.874E-02
   1   13   23     2     8    5.1879E+04 -1.3270E+02   5.2011E+04  0.000E+00  0.000E+00  0.000E+00  3.84935E+01  1.185E-01  2.000E+01  2.000E+04 -6.635E-03
   1   14   22     2     9    5.2011E+04  1.8705E+03   5.0141E+04  0.000E+00  0.000E+00  0.000E+00  3.82424E+01  1.174E-01  2.000E+01  2.000E+04  9.352E-02
   1   14   22     3     1    1.6275E+05 -8.5993E+03   1.7135E+05  0.000E+00  0.000E+00  0.000E+00  3.77189E+01  1.633E-01  2.000E+01  2.000E+04 -4.300E-01
   1   15   23     3     2    1.7135E+05 -4.4145E+02   1.7179E+05  0.000E+00  0.000E+00  0.000E+00  3.68326E+01  1.659E-01  2.000E+01  2.000E+04 -2.207E-02
   1   15   24     3     3    1.7179E+05 -1.7903E+02   1.7197E+05  0.000E+00  0.000E+00  0.000E+00  3.59439E+01  1.661E-01  2.000E+01  2.000E+04 -8.951E-03
   1   15   25     3     4    1.7197E+05 -1.2891E+02   1.7210E+05  0.000E+00  0.000E+00  0.000E+00  3.50551E+01  1.662E-01  2.000E+01  2.000E+04 -6.445E-03
   1   15   26     3     5    1.7210E+05  1.6052E+02   1.7194E+05  0.000E+00  0.000E+00  0.000E+00  3.41662E+01  1.662E-01  2.000E+01  2.000E+04  8.026E-03
   1   16   27     3     6    1.7194E+05  4.9650E+02   1.7144E+05  0.000E+00  0.000E+00  0.000E+00  3.32771E+01  1.660E-01  2.000E+01  2.000E+04  2.483E-02
   1   17   28     3     7    1.7144E+05  3.9953E+03   1.6745E+05  0.000E+00  0.000E+00  0.000E+00  3.23869E+01  1.647E-01  2.000E+01  2.000E+04  1.998E-01
   1   18   29     3     8    1.6745E+05  2.5053E+03   1.6494E+05  0.000E+00  0.000E+00  0.000E+00  3.14961E+01  1.628E-01  2.000E+01  2.000E+04  1.253E-01
   1   18   30     3     9    1.6494E+05 -1.2834E+01   1.6495E+05  0.000E+00  0.000E+00  0.000E+00  3.06065E+01  1.621E-01  2.000E+01  2.000E+04 -6.417E-04



1
              HEAD IN LAYER   1 AT END OF TIME STEP   1 IN STRESS PERIOD    7
  ---------------------------------------------------------------------------

          1      2      3      4      5      6      7      8      9     10
         11     12     13     14     15     16     17     18     19     20
         21     22     23     24     25     26     27     28     29     30
 .........................................................................
   1  ****** ****** ****** ****** ****** ****** ****** ****** ****** ******
      ****** ****** ****** ****** ****** ****** ****** ****** ****** ******
      ****** ****** ****** ****** ****** ****** ****** ****** ****** ******
   2  ****** ****** ****** ****** ****** ****** ****** ****** ****** ******
      ****** ****** ****** ****** ****** ****** ****** ****** ****** ******
      ****** ****** ****** ****** ****** ****** ****** ****** ****** ******
   3  ****** ****** ****** ****** ****** ****** ****** ****** ****** ******
      ****** ****** ****** ****** ****** ****** ****** ****** ****** ******
      ****** ****** ****** ****** ****** ****** ****** ****** ****** ******
   4  ****** ****** ****** ****** ****** ****** ****** ****** ****** ******
      ****** ****** ****** ****** ****** ****** ****** ****** ****** ******
      ****** ****** ****** ****** ****** ****** ****** ****** ****** ******
   5  ****** ****** ****** ****** ****** ****** ****** ****** ****** ******
      ****** ****** ****** ****** ****** ****** ****** ****** ****** ******
      ****** ****** ****** ****** ****** ****** ****** ****** ****** ******
   6  ****** ****** ****** ****** ****** ****** ****** ****** ****** ******
      ****** ****** ****** ****** ****** ****** ****** ****** ****** ******
      ****** ****** ****** ****** ****** ****** ****** ****** ****** ******
   7  ****** ****** ****** ****** ****** ****** ****** ****** ****** ******
      ****** ****** ****** ****** ****** ****** ****** ****** ****** ******
      ****** ****** ****** ****** ****** ****** ****** ****** ****** ******
   8  ****** ****** ****** ****** ****** ****** ****** ****** ****** ******
      ****** ****** ****** ****** ****** ****** ****** ****** ****** ******
      ****** ****** ****** ****** ****** ****** ****** ****** ****** ******
   9  ****** ****** ****** ****** ****** ****** ****** ****** ****** ******
      ****** ****** ****** ****** ****** ****** ****** ****** ****** ******
      ****** ****** ****** ****** ****** ****** ****** ****** ****** ******
  10  ****** ****** ****** ****** ****** ****** ****** ****** ****** ******
      ****** ****** ****** ****** ****** ****** ****** ****** ****** ******
      ****** ****** ****** ****** ****** ****** ****** ****** ****** ******
  11  ****** ****** ****** ****** ****** ****** ****** ****** ****** ******
      ****** ****** ****** ****** ****** ****** ****** ****** ****** ******
      ****** ****** ****** ****** ****** ****** ****** ****** ****** ******
  12  ****** ****** ****** ****** ****** ****** ****** ****** ****** ******
      ****** ****** ****** ****** ****** ****** ****** ****** ****** ******
      ****** ****** ****** ****** ****** ****** ****** ****** ****** ******
  13  ****** ****** ****** ****** ****** ****** ****** ****** ****** ******
      ****** ****** ****** ****** ****** ****** ****** ****** ****** ******
      ****** ****** ****** ****** ****** ****** ****** ****** ****** ******
  14  ****** ****** ****** ****** ****** ****** ****** ****** ****** ******
      ****** ****** ****** ****** ****** ****** ****** ****** ****** ******
      ****** ****** ****** ****** ****** ****** ****** ****** ****** ******
  15  ****** ****** ****** ****** ****** ****** ****** ****** ****** ******
      ****** ****** ****** ****** ****** ****** ****** ****** ****** ******
      ****** ****** ****** ****** ****** ****** ****** ****** ****** ******
  16  ****** ****** ****** ****** ****** ****** ****** ****** ****** ******
      ****** ****** ****** ****** ****** ****** ****** ****** ****** ******
      ****** ****** ****** ****** ****** ****** ****** ****** ****** ******
  17  ****** ****** ****** ****** ****** ****** ****** ****** ****** ******
      ****** ****** ****** ****** ****** ****** ****** ****** ****** ******
      ****** ****** ****** ****** ****** ****** ****** ****** ****** ******
  18  ****** ****** ****** ****** ****** ****** ****** ****** ****** ******
      ****** ****** ****** ****** ****** ****** ****** ****** ****** ******
      ****** ****** ****** ****** ****** ****** ****** ****** ****** ******
  19  ****** ****** ****** ****** ****** ****** ****** ****** ****** ******
      ****** ****** ****** ****** ****** ****** ****** ****** ****** ******
      ****** ****** ****** ****** ****** ****** ****** ****** ****** ******
  20  ****** ****** ****** ****** ****** ****** ****** ****** ****** ******
      ****** ****** ****** ****** ****** ****** ****** ****** ****** ******
      ****** ****** ****** ****** ****** ****** ****** ****** ****** ******
  21  ****** ****** ****** ****** ****** ****** ****** ****** ****** ******
      ****** ****** ****** ****** ****** ****** ****** ****** ****** ******
      ****** ****** ****** ****** ****** ****** ****** ****** ****** ******
  22  ****** ****** ****** ****** ****** ****** ****** ****** ****** ******
      ****** ****** ****** ****** ****** ****** ****** ****** ****** ******
      ****** ****** ****** ****** ****** ****** ****** ****** ****** ******
  23  ****** ****** ****** ****** ****** ****** ****** ****** ****** ******
      ****** ****** ****** ****** ****** ****** ****** ****** ****** ******
      ****** ****** ****** ****** ****** ****** ****** ****** ****** ******
  24  ****** ****** ****** ****** ****** ****** ****** ****** ****** ******
      ****** ****** ****** ****** ****** ****** ****** ****** ****** ******
      ****** ****** ****** ****** ****** ****** ****** ****** ****** ******
  25  ****** ****** ****** ****** ****** ****** ****** ****** ****** ******
      ****** ****** ****** ****** ****** ****** ****** ****** ****** ******
      ****** ****** ****** ****** ****** ****** ****** ****** ****** ******

 HEAD WILL BE SAVED ON UNIT   51 AT END OF TIME STEP    1, STRESS PERIOD    7
1
  VOLUMETRIC BUDGET FOR ENTIRE MODEL AT END OF TIME STEP    1, STRESS PERIOD   7
  ------------------------------------------------------------------------------

     CUMULATIVE VOLUMES      L**3       RATES FOR THIS TIME STEP      L**3/T
     ------------------                 ------------------------

           IN:                                      IN:
           ---                                      ---
             STORAGE =    33680381.0655               STORAGE =       22515.0084
       CONSTANT HEAD =    16371250.6180         CONSTANT HEAD =       33658.1812
               WELLS =           0.0000                 WELLS =           0.0000
            RECHARGE =    15097200.0000              RECHARGE =           0.0000
      STREAM LEAKAGE =     7376421.1164        STREAM LEAKAGE =       16484.8780

            TOTAL IN =    72525252.7999              TOTAL IN =       72658.0676

          OUT:                                     OUT:
          ----                                     ----
             STORAGE =      779928.5757               STORAGE =           0.0000
       CONSTANT HEAD =           0.0000         CONSTANT HEAD =           0.0000
               WELLS =    26338806.9296                 WELLS =       41218.7902
            RECHARGE =           0.0000              RECHARGE =           0.0000
      STREAM LEAKAGE =    45406520.0024        STREAM LEAKAGE =       31439.2831

           TOTAL OUT =    72525255.5077             TOTAL OUT =       72658.0733

            IN - OUT =          -2.7078              IN - OUT =      -5.6734E-03

 PERCENT DISCREPANCY =          -0.00     PERCENT DISCREPANCY =          -0.00






         TIME SUMMARY AT END OF TIME STEP    1 IN STRESS PERIOD    7
                    SECONDS     MINUTES      HOURS       DAYS        YEARS
                    -----------------------------------------------------------
   TIME STEP LENGTH 7.86240E+06 1.31040E+05  2184.0      91.000     0.24914    
 STRESS PERIOD TIME 7.86240E+06 1.31040E+05  2184.0      91.000     0.24914    
         TOTAL TIME 5.52096E+07 9.20160E+05  15336.      639.00      1.7495    
1
1
                            STRESS PERIOD NO.    8, LENGTH =   91.00000    
                            -----------------------------------------------

                              NUMBER OF TIME STEPS =     1

                               MULTIPLIER FOR DELT =     1.500

                            INITIAL TIME STEP SIZE =   91.00000    

 WELL NO.  LAYER   ROW   COL   STRESS RATE         
 --------------------------------------------------
      1      1      8     16      -9735.    
      2      1     14     29     -0.1305E+05
      3      1     19     28      -9398.    
      4      1     18      3      -9037.    

      4 WELLS

                 RECHARGE =  1.000000E-03

 REUSING STREAM SEGMENT DATA FROM LAST STRESS PERIOD
 
 SOLVING FOR HEAD 


     6 CALLS TO PCG ROUTINE FOR TIME STEP   1 IN STRESS PERIOD    8
    22 TOTAL ITERATIONS

 OUTPUT CONTROL FOR STRESS PERIOD    8   TIME STEP    1
    SAVE BUDGET
    SAVE HEAD FOR ALL LAYERS
    PRINT HEAD FOR ALL LAYERS
 UBDSV2 SAVING "STREAMFLOW OUT  " ON UNIT  50 AT TIME STEP  1, STRESS PERIOD   8



 STREAM LISTING     PERIOD      8   STEP        1

 LAYER ROW COL. STREAM  RCH.  FLOW INTO     FLOW TO   FLOW OUT OF   OVRLND.     DIRECT     STREAM       STREAM     STREAM     STREAM   STREAMBED  STREAMBED
                SEG.NO.  NO.  STRM. RCH.    AQUIFER    STRM. RCH.    RUNOFF     PRECIP       ET          HEAD       DEPTH      WIDTH   CONDCTNC.   GRADIENT

   1   13    1     1     1    1.0000E+05 -9.8343E+02   1.0098E+05  0.000E+00  0.000E+00  0.000E+00  4.84064E+01  1.451E-01  2.000E+01  2.000E+04 -4.917E-02
   1   13    2     1     2    1.0098E+05 -1.9787E+03   1.0296E+05  0.000E+00  0.000E+00  0.000E+00  4.79304E+01  1.464E-01  2.000E+01  2.000E+04 -9.894E-02
   1   14    3     1     3    1.0296E+05 -1.9212E+02   1.0315E+05  0.000E+00  0.000E+00  0.000E+00  4.74541E+01  1.473E-01  2.000E+01  2.000E+04 -9.606E-03
   1   15    4     1     4    1.0315E+05 -8.6228E+00   1.0316E+05  0.000E+00  0.000E+00  0.000E+00  4.69769E+01  1.474E-01  2.000E+01  2.000E+04 -4.311E-04
   1   16    5     1     5    1.0316E+05  1.2242E+03   1.0194E+05  0.000E+00  0.000E+00  0.000E+00  4.64991E+01  1.469E-01  2.000E+01  2.000E+04  6.121E-02
   1   16    6     1     6    1.0194E+05 -1.5898E+02   1.0210E+05  0.000E+00  0.000E+00  0.000E+00  4.60214E+01  1.464E-01  2.000E+01  2.000E+04 -7.949E-03
   1   16    7     1     7    1.0210E+05 -4.7142E+02   1.0257E+05  0.000E+00  0.000E+00  0.000E+00  4.55444E+01  1.467E-01  2.000E+01  2.000E+04 -2.357E-02
   1   16    8     1     8    1.0257E+05 -6.4262E+02   1.0321E+05  0.000E+00  0.000E+00  0.000E+00  4.50676E+01  1.471E-01  2.000E+01  2.000E+04 -3.213E-02
   1   16    9     1     9    1.0321E+05 -7.4565E+02   1.0396E+05  0.000E+00  0.000E+00  0.000E+00  4.45909E+01  1.477E-01  2.000E+01  2.000E+04 -3.728E-02
   1   16   10     1    10    1.0396E+05 -8.0871E+02   1.0477E+05  0.000E+00  0.000E+00  0.000E+00  4.41143E+01  1.484E-01  2.000E+01  2.000E+04 -4.044E-02
   1   16   11     1    11    1.0477E+05 -8.6313E+02   1.0563E+05  0.000E+00  0.000E+00  0.000E+00  4.36378E+01  1.491E-01  2.000E+01  2.000E+04 -4.316E-02
   1   16   12     1    12    1.0563E+05 -1.5302E+03   1.0716E+05  0.000E+00  0.000E+00  0.000E+00  4.31615E+01  1.501E-01  2.000E+01  2.000E+04 -7.651E-02
   1   15   13     1    13    1.0716E+05 -1.3969E+03   1.0856E+05  0.000E+00  0.000E+00  0.000E+00  4.26855E+01  1.514E-01  2.000E+01  2.000E+04 -6.984E-02
   1   14   14     1    14    1.0856E+05 -1.5199E+03   1.1008E+05  0.000E+00  0.000E+00  0.000E+00  4.22094E+01  1.526E-01  2.000E+01  2.000E+04 -7.599E-02
   1   13   15     1    15    1.1008E+05 -1.5622E+03   1.1164E+05  0.000E+00  0.000E+00  0.000E+00  4.17334E+01  1.539E-01  2.000E+01  2.000E+04 -7.811E-02
   1   12   16     1    16    1.1164E+05 -1.5376E+03   1.1318E+05  0.000E+00  0.000E+00  0.000E+00  4.12574E+01  1.552E-01  2.000E+01  2.000E+04 -7.688E-02
   1   12   17     1    17    1.1318E+05 -1.0689E+03   1.1424E+05  0.000E+00  0.000E+00  0.000E+00  4.07812E+01  1.562E-01  2.000E+01  2.000E+04 -5.344E-02
   1   12   18     1    18    1.1424E+05 -1.1443E+03   1.1539E+05  0.000E+00  0.000E+00  0.000E+00  4.03049E+01  1.572E-01  2.000E+01  2.000E+04 -5.721E-02
   1   12   19     1    19    1.1539E+05 -1.6697E+03   1.1706E+05  0.000E+00  0.000E+00  0.000E+00  3.98288E+01  1.583E-01  2.000E+01  2.000E+04 -8.348E-02
   1   13   20     1    20    1.1706E+05 -1.5276E+03   1.1859E+05  0.000E+00  0.000E+00  0.000E+00  3.93528E+01  1.596E-01  2.000E+01  2.000E+04 -7.638E-02
   1   14   21     1    21    1.1859E+05 -1.4652E+03   1.2005E+05  0.000E+00  0.000E+00  0.000E+00  3.88767E+01  1.608E-01  2.000E+01  2.000E+04 -7.326E-02
   1   14   22     1    22    1.2005E+05  4.8956E+03   1.1516E+05  0.000E+00  0.000E+00  0.000E+00  3.83981E+01  1.594E-01  2.000E+01  2.000E+04  2.448E-01
   1    9   30     2     1    5.0000E+04  5.6252E+02   4.9437E+04  0.000E+00  0.000E+00  0.000E+00  4.02405E+01  1.155E-01  2.000E+01  2.000E+04  2.813E-02
   1    9   29     2     2    4.9437E+04  1.7489E+02   4.9263E+04  0.000E+00  0.000E+00  0.000E+00  3.99900E+01  1.150E-01  2.000E+01  2.000E+04  8.744E-03
   1    9   28     2     3    4.9263E+04 -2.7471E+02   4.9537E+04  0.000E+00  0.000E+00  0.000E+00  3.97400E+01  1.150E-01  2.000E+01  2.000E+04 -1.374E-02
   1    9   27     2     4    4.9537E+04 -1.7205E+03   5.1258E+04  0.000E+00  0.000E+00  0.000E+00  3.94914E+01  1.164E-01  2.000E+01  2.000E+04 -8.602E-02
   1   10   26     2     5    5.1258E+04 -4.6624E+02   5.1724E+04  0.000E+00  0.000E+00  0.000E+00  3.92429E+01  1.179E-01  2.000E+01  2.000E+04 -2.331E-02
   1   11   25     2     6    5.1724E+04 -4.3878E+02   5.2163E+04  0.000E+00  0.000E+00  0.000E+00  3.89935E+01  1.185E-01  2.000E+01  2.000E+04 -2.194E-02
   1   12   24     2     7    5.2163E+04 -9.5813E+02   5.3121E+04  0.000E+00  0.000E+00  0.000E+00  3.87445E+01  1.195E-01  2.000E+01  2.000E+04 -4.791E-02
   1   13   23     2     8    5.3121E+04 -2.0673E+02   5.3328E+04  0.000E+00  0.000E+00  0.000E+00  3.84953E+01  1.203E-01  2.000E+01  2.000E+04 -1.034E-02
   1   14   22     2     9    5.3328E+04  1.8181E+03   5.1510E+04  0.000E+00  0.000E+00  0.000E+00  3.82442E+01  1.192E-01  2.000E+01  2.000E+04  9.091E-02
   1   14   22     3     1    1.6667E+05 -8.6426E+03   1.7531E+05  0.000E+00  0.000E+00  0.000E+00  3.77212E+01  1.656E-01  2.000E+01  2.000E+04 -4.321E-01
   1   15   23     3     2    1.7531E+05 -5.0556E+02   1.7581E+05  0.000E+00  0.000E+00  0.000E+00  3.68349E+01  1.683E-01  2.000E+01  2.000E+04 -2.528E-02
   1   15   24     3     3    1.7581E+05 -2.3946E+02   1.7605E+05  0.000E+00  0.000E+00  0.000E+00  3.59462E+01  1.685E-01  2.000E+01  2.000E+04 -1.197E-02
   1   15   25     3     4    1.7605E+05 -1.9105E+02   1.7624E+05  0.000E+00  0.000E+00  0.000E+00  3.50575E+01  1.686E-01  2.000E+01  2.000E+04 -9.553E-03
   1   15   26     3     5    1.7624E+05  8.5940E+01   1.7616E+05  0.000E+00  0.000E+00  0.000E+00  3.41686E+01  1.686E-01  2.000E+01  2.000E+04  4.297E-03
   1   16   27     3     6    1.7616E+05  4.1479E+02   1.7574E+05  0.000E+00  0.000E+00  0.000E+00  3.32796E+01  1.685E-01  2.000E+01  2.000E+04  2.074E-02
   1   17   28     3     7    1.7574E+05  3.7920E+03   1.7195E+05  0.000E+00  0.000E+00  0.000E+00  3.23895E+01  1.673E-01  2.000E+01  2.000E+04  1.896E-01
   1   18   29     3     8    1.7195E+05  2.3406E+03   1.6961E+05  0.000E+00  0.000E+00  0.000E+00  3.14988E+01  1.655E-01  2.000E+01  2.000E+04  1.170E-01
   1   18   30     3     9    1.6961E+05 -1.5896E+02   1.6977E+05  0.000E+00  0.000E+00  0.000E+00  3.06093E+01  1.649E-01  2.000E+01  2.000E+04 -7.948E-03



1
              HEAD IN LAYER   1 AT END OF TIME STEP   1 IN STRESS PERIOD    8
  ---------------------------------------------------------------------------

          1      2      3      4      5      6      7      8      9     10
         11     12     13     14     15     16     17     18     19     20
         21     22     23     24     25     26     27     28     29     30
 .........................................................................
   1  ****** ****** ****** ****** ****** ****** ****** ****** ****** ******
      ****** ****** ****** ****** ****** ****** ****** ****** ****** ******
      ****** ****** ****** ****** ****** ****** ****** ****** ****** ******
   2  ****** ****** ****** ****** ****** ****** ****** ****** ****** ******
      ****** ****** ****** ****** ****** ****** ****** ****** ****** ******
      ****** ****** ****** ****** ****** ****** ****** ****** ****** ******
   3  ****** ****** ****** ****** ****** ****** ****** ****** ****** ******
      ****** ****** ****** ****** ****** ****** ****** ****** ****** ******
      ****** ****** ****** ****** ****** ****** ****** ****** ****** ******
   4  ****** ****** ****** ****** ****** ****** ****** ****** ****** ******
      ****** ****** ****** ****** ****** ****** ****** ****** ****** ******
      ****** ****** ****** ****** ****** ****** ****** ****** ****** ******
   5  ****** ****** ****** ****** ****** ****** ****** ****** ****** ******
      ****** ****** ****** ****** ****** ****** ****** ****** ****** ******
      ****** ****** ****** ****** ****** ****** ****** ****** ****** ******
   6  ****** ****** ****** ****** ****** ****** ****** ****** ****** ******
      ****** ****** ****** ****** ****** ****** ****** ****** ****** ******
      ****** ****** ****** ****** ****** ****** ****** ****** ****** ******
   7  ****** ****** ****** ****** ****** ****** ****** ****** ****** ******
      ****** ****** ****** ****** ****** ****** ****** ****** ****** ******
      ****** ****** ****** ****** ****** ****** ****** ****** ****** ******
   8  ****** ****** ****** ****** ****** ****** ****** ****** ****** ******
      ****** ****** ****** ****** ****** ****** ****** ****** ****** ******
      ****** ****** ****** ****** ****** ****** ****** ****** ****** ******
   9  ****** ****** ****** ****** ****** ****** ****** ****** ****** ******
      ****** ****** ****** ****** ****** ****** ****** ****** ****** ******
      ****** ****** ****** ****** ****** ****** ****** ****** ****** ******
  10  ****** ****** ****** ****** ****** ****** ****** ****** ****** ******
      ****** ****** ****** ****** ****** ****** ****** ****** ****** ******
      ****** ****** ****** ****** ****** ****** ****** ****** ****** ******
  11  ****** ****** ****** ****** ****** ****** ****** ****** ****** ******
      ****** ****** ****** ****** ****** ****** ****** ****** ****** ******
      ****** ****** ****** ****** ****** ****** ****** ****** ****** ******
  12  ****** ****** ****** ****** ****** ****** ****** ****** ****** ******
      ****** ****** ****** ****** ****** ****** ****** ****** ****** ******
      ****** ****** ****** ****** ****** ****** ****** ****** ****** ******
  13  ****** ****** ****** ****** ****** ****** ****** ****** ****** ******
      ****** ****** ****** ****** ****** ****** ****** ****** ****** ******
      ****** ****** ****** ****** ****** ****** ****** ****** ****** ******
  14  ****** ****** ****** ****** ****** ****** ****** ****** ****** ******
      ****** ****** ****** ****** ****** ****** ****** ****** ****** ******
      ****** ****** ****** ****** ****** ****** ****** ****** ****** ******
  15  ****** ****** ****** ****** ****** ****** ****** ****** ****** ******
      ****** ****** ****** ****** ****** ****** ****** ****** ****** ******
      ****** ****** ****** ****** ****** ****** ****** ****** ****** ******
  16  ****** ****** ****** ****** ****** ****** ****** ****** ****** ******
      ****** ****** ****** ****** ****** ****** ****** ****** ****** ******
      ****** ****** ****** ****** ****** ****** ****** ****** ****** ******
  17  ****** ****** ****** ****** ****** ****** ****** ****** ****** ******
      ****** ****** ****** ****** ****** ****** ****** ****** ****** ******
      ****** ****** ****** ****** ****** ****** ****** ****** ****** ******
  18  ****** ****** ****** ****** ****** ****** ****** ****** ****** ******
      ****** ****** ****** ****** ****** ****** ****** ****** ****** ******
      ****** ****** ****** ****** ****** ****** ****** ****** ****** ******
  19  ****** ****** ****** ****** ****** ****** ****** ****** ****** ******
      ****** ****** ****** ****** ****** ****** ****** ****** ****** ******
      ****** ****** ****** ****** ****** ****** ****** ****** ****** ******
  20  ****** ****** ****** ****** ****** ****** ****** ****** ****** ******
      ****** ****** ****** ****** ****** ****** ****** ****** ****** ******
      ****** ****** ****** ****** ****** ****** ****** ****** ****** ******
  21  ****** ****** ****** ****** ****** ****** ****** ****** ****** ******
      ****** ****** ****** ****** ****** ****** ****** ****** ****** ******
      ****** ****** ****** ****** ****** ****** ****** ****** ****** ******
  22  ****** ****** ****** ****** ****** ****** ****** ****** ****** ******
      ****** ****** ****** ****** ****** ****** ****** ****** ****** ******
      ****** ****** ****** ****** ****** ****** ****** ****** ****** ******
  23  ****** ****** ****** ****** ****** ****** ****** ****** ****** ******
      ****** ****** ****** ****** ****** ****** ****** ****** ****** ******
      ****** ****** ****** ****** ****** ****** ****** ****** ****** ******
  24  ****** ****** ****** ****** ****** ****** ****** ****** ****** ******
      ****** ****** ****** ****** ****** ****** ****** ****** ****** ******
      ****** ****** ****** ****** ****** ****** ****** ****** ****** ******
  25  ****** ****** ****** ****** ****** ****** ****** ****** ****** ******
      ****** ****** ****** ****** ****** ****** ****** ****** ****** ******
      ****** ****** ****** ****** ****** ****** ****** ****** ****** ******

 HEAD WILL BE SAVED ON UNIT   51 AT END OF TIME STEP    1, STRESS PERIOD    8
1
  VOLUMETRIC BUDGET FOR ENTIRE MODEL AT END OF TIME STEP    1, STRESS PERIOD   8
  ------------------------------------------------------------------------------

     CUMULATIVE VOLUMES      L**3       RATES FOR THIS TIME STEP      L**3/T
     ------------------                 ------------------------

           IN:                                      IN:
           ---                                      ---
             STORAGE =    33821403.3160               STORAGE =        1549.6951
       CONSTANT HEAD =    19408490.9305         CONSTANT HEAD =       33376.2672
               WELLS =           0.0000                 WELLS =           0.0000
            RECHARGE =    17608800.0000              RECHARGE =       27600.0000
      STREAM LEAKAGE =     8769508.5523        STREAM LEAKAGE =       15308.6531

            TOTAL IN =    79608202.7988              TOTAL IN =       77834.6154

          OUT:                                     OUT:
          ----                                     ----
             STORAGE =      919832.4316               STORAGE =        1537.4050
       CONSTANT HEAD =           0.0000         CONSTANT HEAD =           0.0000
               WELLS =    30089716.8367                 WELLS =       41218.7902
            RECHARGE =           0.0000              RECHARGE =           0.0000
      STREAM LEAKAGE =    48598655.4920        STREAM LEAKAGE =       35078.4120

           TOTAL OUT =    79608204.7602             TOTAL OUT =       77834.6072

            IN - OUT =          -1.9614              IN - OUT =       8.2015E-03

 PERCENT DISCREPANCY =          -0.00     PERCENT DISCREPANCY =           0.00






         TIME SUMMARY AT END OF TIME STEP    1 IN STRESS PERIOD    8
                    SECONDS     MINUTES      HOURS       DAYS        YEARS
                    -----------------------------------------------------------
   TIME STEP LENGTH 7.86240E+06 1.31040E+05  2184.0      91.000     0.24914    
 STRESS PERIOD TIME 7.86240E+06 1.31040E+05  2184.0      91.000     0.24914    
         TOTAL TIME 6.30720E+07 1.05120E+06  17520.      730.00      1.9986    
1
1
                            STRESS PERIOD NO.    9, LENGTH =   92.00000    
                            -----------------------------------------------

                              NUMBER OF TIME STEPS =     1

                               MULTIPLIER FOR DELT =     1.500

                            INITIAL TIME STEP SIZE =   92.00000    

 WELL NO.  LAYER   ROW   COL   STRESS RATE         
 --------------------------------------------------
      1      1      8     16      -9735.    
      2      1     14     29     -0.1305E+05
      3      1     19     28      -9398.    
      4      1     18      3      -9037.    

      4 WELLS

                 RECHARGE =  5.000000E-04

 REUSING STREAM SEGMENT DATA FROM LAST STRESS PERIOD
 
 SOLVING FOR HEAD 


     6 CALLS TO PCG ROUTINE FOR TIME STEP   1 IN STRESS PERIOD    9
    23 TOTAL ITERATIONS

 OUTPUT CONTROL FOR STRESS PERIOD    9   TIME STEP    1
    SAVE BUDGET
    SAVE HEAD FOR ALL LAYERS
    PRINT HEAD FOR ALL LAYERS
 UBDSV2 SAVING "STREAMFLOW OUT  " ON UNIT  50 AT TIME STEP  1, STRESS PERIOD   9



 STREAM LISTING     PERIOD      9   STEP        1

 LAYER ROW COL. STREAM  RCH.  FLOW INTO     FLOW TO   FLOW OUT OF   OVRLND.     DIRECT     STREAM       STREAM     STREAM     STREAM   STREAMBED  STREAMBED
                SEG.NO.  NO.  STRM. RCH.    AQUIFER    STRM. RCH.    RUNOFF     PRECIP       ET          HEAD       DEPTH      WIDTH   CONDCTNC.   GRADIENT

   1   13    1     1     1    1.0000E+05 -7.6654E+02   1.0077E+05  0.000E+00  0.000E+00  0.000E+00  4.84063E+01  1.450E-01  2.000E+01  2.000E+04 -3.833E-02
   1   13    2     1     2    1.0077E+05 -1.7331E+03   1.0250E+05  0.000E+00  0.000E+00  0.000E+00  4.79302E+01  1.461E-01  2.000E+01  2.000E+04 -8.665E-02
   1   14    3     1     3    1.0250E+05 -1.2078E+02   1.0262E+05  0.000E+00  0.000E+00  0.000E+00  4.74537E+01  1.469E-01  2.000E+01  2.000E+04 -6.039E-03
   1   15    4     1     4    1.0262E+05  6.3729E+01   1.0256E+05  0.000E+00  0.000E+00  0.000E+00  4.69764E+01  1.469E-01  2.000E+01  2.000E+04  3.186E-03
   1   16    5     1     5    1.0256E+05  1.4184E+03   1.0114E+05  0.000E+00  0.000E+00  0.000E+00  4.64985E+01  1.462E-01  2.000E+01  2.000E+04  7.092E-02
   1   16    6     1     6    1.0114E+05 -3.8068E+01   1.0118E+05  0.000E+00  0.000E+00  0.000E+00  4.60207E+01  1.457E-01  2.000E+01  2.000E+04 -1.903E-03
   1   16    7     1     7    1.0118E+05 -3.5432E+02   1.0153E+05  0.000E+00  0.000E+00  0.000E+00  4.55436E+01  1.458E-01  2.000E+01  2.000E+04 -1.772E-02
   1   16    8     1     8    1.0153E+05 -5.2713E+02   1.0206E+05  0.000E+00  0.000E+00  0.000E+00  4.50667E+01  1.462E-01  2.000E+01  2.000E+04 -2.636E-02
   1   16    9     1     9    1.0206E+05 -6.3187E+02   1.0269E+05  0.000E+00  0.000E+00  0.000E+00  4.45899E+01  1.467E-01  2.000E+01  2.000E+04 -3.159E-02
   1   16   10     1    10    1.0269E+05 -6.9707E+02   1.0339E+05  0.000E+00  0.000E+00  0.000E+00  4.41132E+01  1.473E-01  2.000E+01  2.000E+04 -3.485E-02
   1   16   11     1    11    1.0339E+05 -7.5262E+02   1.0414E+05  0.000E+00  0.000E+00  0.000E+00  4.36365E+01  1.479E-01  2.000E+01  2.000E+04 -3.763E-02
   1   16   12     1    12    1.0414E+05 -1.3411E+03   1.0548E+05  0.000E+00  0.000E+00  0.000E+00  4.31602E+01  1.488E-01  2.000E+01  2.000E+04 -6.706E-02
   1   15   13     1    13    1.0548E+05 -1.1863E+03   1.0667E+05  0.000E+00  0.000E+00  0.000E+00  4.26840E+01  1.499E-01  2.000E+01  2.000E+04 -5.931E-02
   1   14   14     1    14    1.0667E+05 -1.2956E+03   1.0796E+05  0.000E+00  0.000E+00  0.000E+00  4.22077E+01  1.509E-01  2.000E+01  2.000E+04 -6.478E-02
   1   13   15     1    15    1.0796E+05 -1.3318E+03   1.0929E+05  0.000E+00  0.000E+00  0.000E+00  4.17316E+01  1.520E-01  2.000E+01  2.000E+04 -6.659E-02
   1   12   16     1    16    1.0929E+05 -1.2986E+03   1.1059E+05  0.000E+00  0.000E+00  0.000E+00  4.12554E+01  1.531E-01  2.000E+01  2.000E+04 -6.493E-02
   1   12   17     1    17    1.1059E+05 -9.0509E+02   1.1150E+05  0.000E+00  0.000E+00  0.000E+00  4.07790E+01  1.540E-01  2.000E+01  2.000E+04 -4.525E-02
   1   12   18     1    18    1.1150E+05 -9.8817E+02   1.1249E+05  0.000E+00  0.000E+00  0.000E+00  4.03026E+01  1.548E-01  2.000E+01  2.000E+04 -4.941E-02
   1   12   19     1    19    1.1249E+05 -1.4818E+03   1.1397E+05  0.000E+00  0.000E+00  0.000E+00  3.98263E+01  1.558E-01  2.000E+01  2.000E+04 -7.409E-02
   1   13   20     1    20    1.1397E+05 -1.3537E+03   1.1532E+05  0.000E+00  0.000E+00  0.000E+00  3.93502E+01  1.570E-01  2.000E+01  2.000E+04 -6.769E-02
   1   14   21     1    21    1.1532E+05 -1.2935E+03   1.1662E+05  0.000E+00  0.000E+00  0.000E+00  3.88740E+01  1.581E-01  2.000E+01  2.000E+04 -6.468E-02
   1   14   22     1    22    1.1662E+05  4.9338E+03   1.1168E+05  0.000E+00  0.000E+00  0.000E+00  3.83952E+01  1.566E-01  2.000E+01  2.000E+04  2.467E-01
   1    9   30     2     1    5.0000E+04  6.8605E+02   4.9314E+04  0.000E+00  0.000E+00  0.000E+00  4.02404E+01  1.154E-01  2.000E+01  2.000E+04  3.430E-02
   1    9   29     2     2    4.9314E+04  2.9866E+02   4.9015E+04  0.000E+00  0.000E+00  0.000E+00  3.99897E+01  1.147E-01  2.000E+01  2.000E+04  1.493E-02
   1    9   28     2     3    4.9015E+04 -1.4899E+02   4.9164E+04  0.000E+00  0.000E+00  0.000E+00  3.97396E+01  1.146E-01  2.000E+01  2.000E+04 -7.450E-03
   1    9   27     2     4    4.9164E+04 -1.5433E+03   5.0708E+04  0.000E+00  0.000E+00  0.000E+00  3.94908E+01  1.158E-01  2.000E+01  2.000E+04 -7.717E-02
   1   10   26     2     5    5.0708E+04 -2.9206E+02   5.1000E+04  0.000E+00  0.000E+00  0.000E+00  3.92420E+01  1.170E-01  2.000E+01  2.000E+04 -1.460E-02
   1   11   25     2     6    5.1000E+04 -2.7210E+02   5.1272E+04  0.000E+00  0.000E+00  0.000E+00  3.89924E+01  1.174E-01  2.000E+01  2.000E+04 -1.361E-02
   1   12   24     2     7    5.1272E+04 -8.0484E+02   5.2077E+04  0.000E+00  0.000E+00  0.000E+00  3.87432E+01  1.182E-01  2.000E+01  2.000E+04 -4.024E-02
   1   13   23     2     8    5.2077E+04 -1.5955E+02   5.2236E+04  0.000E+00  0.000E+00  0.000E+00  3.84938E+01  1.188E-01  2.000E+01  2.000E+04 -7.977E-03
   1   14   22     2     9    5.2236E+04  1.8821E+03   5.0354E+04  0.000E+00  0.000E+00  0.000E+00  3.82427E+01  1.177E-01  2.000E+01  2.000E+04  9.410E-02
   1   14   22     3     1    1.6204E+05 -8.6022E+03   1.7064E+05  0.000E+00  0.000E+00  0.000E+00  3.77184E+01  1.629E-01  2.000E+01  2.000E+04 -4.301E-01
   1   15   23     3     2    1.7064E+05 -4.5301E+02   1.7109E+05  0.000E+00  0.000E+00  0.000E+00  3.68322E+01  1.655E-01  2.000E+01  2.000E+04 -2.265E-02
   1   15   24     3     3    1.7109E+05 -1.9646E+02   1.7129E+05  0.000E+00  0.000E+00  0.000E+00  3.59435E+01  1.657E-01  2.000E+01  2.000E+04 -9.823E-03
   1   15   25     3     4    1.7129E+05 -1.4779E+02   1.7143E+05  0.000E+00  0.000E+00  0.000E+00  3.50547E+01  1.658E-01  2.000E+01  2.000E+04 -7.390E-03
   1   15   26     3     5    1.7143E+05  1.3353E+02   1.7130E+05  0.000E+00  0.000E+00  0.000E+00  3.41658E+01  1.658E-01  2.000E+01  2.000E+04  6.677E-03
   1   16   27     3     6    1.7130E+05  4.7079E+02   1.7083E+05  0.000E+00  0.000E+00  0.000E+00  3.32768E+01  1.657E-01  2.000E+01  2.000E+04  2.354E-02
   1   17   28     3     7    1.7083E+05  3.9455E+03   1.6688E+05  0.000E+00  0.000E+00  0.000E+00  3.23866E+01  1.644E-01  2.000E+01  2.000E+04  1.973E-01
   1   18   29     3     8    1.6688E+05  2.5165E+03   1.6437E+05  0.000E+00  0.000E+00  0.000E+00  3.14958E+01  1.625E-01  2.000E+01  2.000E+04  1.258E-01
   1   18   30     3     9    1.6437E+05 -2.6807E+01   1.6440E+05  0.000E+00  0.000E+00  0.000E+00  3.06062E+01  1.617E-01  2.000E+01  2.000E+04 -1.340E-03



1
              HEAD IN LAYER   1 AT END OF TIME STEP   1 IN STRESS PERIOD    9
  ---------------------------------------------------------------------------

          1      2      3      4      5      6      7      8      9     10
         11     12     13     14     15     16     17     18     19     20
         21     22     23     24     25     26     27     28     29     30
 .........................................................................
   1  ****** ****** ****** ****** ****** ****** ****** ****** ****** ******
      ****** ****** ****** ****** ****** ****** ****** ****** ****** ******
      ****** ****** ****** ****** ****** ****** ****** ****** ****** ******
   2  ****** ****** ****** ****** ****** ****** ****** ****** ****** ******
      ****** ****** ****** ****** ****** ****** ****** ****** ****** ******
      ****** ****** ****** ****** ****** ****** ****** ****** ****** ******
   3  ****** ****** ****** ****** ****** ****** ****** ****** ****** ******
      ****** ****** ****** ****** ****** ****** ****** ****** ****** ******
      ****** ****** ****** ****** ****** ****** ****** ****** ****** ******
   4  ****** ****** ****** ****** ****** ****** ****** ****** ****** ******
      ****** ****** ****** ****** ****** ****** ****** ****** ****** ******
      ****** ****** ****** ****** ****** ****** ****** ****** ****** ******
   5  ****** ****** ****** ****** ****** ****** ****** ****** ****** ******
      ****** ****** ****** ****** ****** ****** ****** ****** ****** ******
      ****** ****** ****** ****** ****** ****** ****** ****** ****** ******
   6  ****** ****** ****** ****** ****** ****** ****** ****** ****** ******
      ****** ****** ****** ****** ****** ****** ****** ****** ****** ******
      ****** ****** ****** ****** ****** ****** ****** ****** ****** ******
   7  ****** ****** ****** ****** ****** ****** ****** ****** ****** ******
      ****** ****** ****** ****** ****** ****** ****** ****** ****** ******
      ****** ****** ****** ****** ****** ****** ****** ****** ****** ******
   8  ****** ****** ****** ****** ****** ****** ****** ****** ****** ******
      ****** ****** ****** ****** ****** ****** ****** ****** ****** ******
      ****** ****** ****** ****** ****** ****** ****** ****** ****** ******
   9  ****** ****** ****** ****** ****** ****** ****** ****** ****** ******
      ****** ****** ****** ****** ****** ****** ****** ****** ****** ******
      ****** ****** ****** ****** ****** ****** ****** ****** ****** ******
  10  ****** ****** ****** ****** ****** ****** ****** ****** ****** ******
      ****** ****** ****** ****** ****** ****** ****** ****** ****** ******
      ****** ****** ****** ****** ****** ****** ****** ****** ****** ******
  11  ****** ****** ****** ****** ****** ****** ****** ****** ****** ******
      ****** ****** ****** ****** ****** ****** ****** ****** ****** ******
      ****** ****** ****** ****** ****** ****** ****** ****** ****** ******
  12  ****** ****** ****** ****** ****** ****** ****** ****** ****** ******
      ****** ****** ****** ****** ****** ****** ****** ****** ****** ******
      ****** ****** ****** ****** ****** ****** ****** ****** ****** ******
  13  ****** ****** ****** ****** ****** ****** ****** ****** ****** ******
      ****** ****** ****** ****** ****** ****** ****** ****** ****** ******
      ****** ****** ****** ****** ****** ****** ****** ****** ****** ******
  14  ****** ****** ****** ****** ****** ****** ****** ****** ****** ******
      ****** ****** ****** ****** ****** ****** ****** ****** ****** ******
      ****** ****** ****** ****** ****** ****** ****** ****** ****** ******
  15  ****** ****** ****** ****** ****** ****** ****** ****** ****** ******
      ****** ****** ****** ****** ****** ****** ****** ****** ****** ******
      ****** ****** ****** ****** ****** ****** ****** ****** ****** ******
  16  ****** ****** ****** ****** ****** ****** ****** ****** ****** ******
      ****** ****** ****** ****** ****** ****** ****** ****** ****** ******
      ****** ****** ****** ****** ****** ****** ****** ****** ****** ******
  17  ****** ****** ****** ****** ****** ****** ****** ****** ****** ******
      ****** ****** ****** ****** ****** ****** ****** ****** ****** ******
      ****** ****** ****** ****** ****** ****** ****** ****** ****** ******
  18  ****** ****** ****** ****** ****** ****** ****** ****** ****** ******
      ****** ****** ****** ****** ****** ****** ****** ****** ****** ******
      ****** ****** ****** ****** ****** ****** ****** ****** ****** ******
  19  ****** ****** ****** ****** ****** ****** ****** ****** ****** ******
      ****** ****** ****** ****** ****** ****** ****** ****** ****** ******
      ****** ****** ****** ****** ****** ****** ****** ****** ****** ******
  20  ****** ****** ****** ****** ****** ****** ****** ****** ****** ******
      ****** ****** ****** ****** ****** ****** ****** ****** ****** ******
      ****** ****** ****** ****** ****** ****** ****** ****** ****** ******
  21  ****** ****** ****** ****** ****** ****** ****** ****** ****** ******
      ****** ****** ****** ****** ****** ****** ****** ****** ****** ******
      ****** ****** ****** ****** ****** ****** ****** ****** ****** ******
  22  ****** ****** ****** ****** ****** ****** ****** ****** ****** ******
      ****** ****** ****** ****** ****** ****** ****** ****** ****** ******
      ****** ****** ****** ****** ****** ****** ****** ****** ****** ******
  23  ****** ****** ****** ****** ****** ****** ****** ****** ****** ******
      ****** ****** ****** ****** ****** ****** ****** ****** ****** ******
      ****** ****** ****** ****** ****** ****** ****** ****** ****** ******
  24  ****** ****** ****** ****** ****** ****** ****** ****** ****** ******
      ****** ****** ****** ****** ****** ****** ****** ****** ****** ******
      ****** ****** ****** ****** ****** ****** ****** ****** ****** ******
  25  ****** ****** ****** ****** ****** ****** ****** ****** ****** ******
      ****** ****** ****** ****** ****** ****** ****** ****** ****** ******
      ****** ****** ****** ****** ****** ****** ****** ****** ****** ******

 HEAD WILL BE SAVED ON UNIT   51 AT END OF TIME STEP    1, STRESS PERIOD    9
1
  VOLUMETRIC BUDGET FOR ENTIRE MODEL AT END OF TIME STEP    1, STRESS PERIOD   9
  ------------------------------------------------------------------------------

     CUMULATIVE VOLUMES      L**3       RATES FOR THIS TIME STEP      L**3/T
     ------------------                 ------------------------

           IN:                                      IN:
           ---                                      ---
             STORAGE =    34489643.3952               STORAGE =        7263.4791
       CONSTANT HEAD =    22587136.0246         CONSTANT HEAD =       34550.4902
               WELLS =           0.0000                 WELLS =           0.0000
            RECHARGE =    18878400.0000              RECHARGE =       13800.0000
      STREAM LEAKAGE =    10273619.1870        STREAM LEAKAGE =       16349.0286

            TOTAL IN =    86228798.6068              TOTAL IN =       71962.9979

          OUT:                                     OUT:
          ----                                     ----
             STORAGE =      919832.4316               STORAGE =           0.0000
       CONSTANT HEAD =           0.0000         CONSTANT HEAD =           0.0000
               WELLS =    33881845.5339                 WELLS =       41218.7902
            RECHARGE =           0.0000              RECHARGE =           0.0000
      STREAM LEAKAGE =    51427122.6763        STREAM LEAKAGE =       30744.2085

           TOTAL OUT =    86228800.6418             TOTAL OUT =       71962.9987

            IN - OUT =          -2.0350              IN - OUT =      -7.9941E-04

 PERCENT DISCREPANCY =          -0.00     PERCENT DISCREPANCY =          -0.00






         TIME SUMMARY AT END OF TIME STEP    1 IN STRESS PERIOD    9
                    SECONDS     MINUTES      HOURS       DAYS        YEARS
                    -----------------------------------------------------------
   TIME STEP LENGTH 7.94880E+06 1.32480E+05  2208.0      92.000     0.25188    
 STRESS PERIOD TIME 7.94880E+06 1.32480E+05  2208.0      92.000     0.25188    
         TOTAL TIME 7.10208E+07 1.18368E+06  19728.      822.00      2.2505    
1
1
                            STRESS PERIOD NO.   10, LENGTH =   91.00000    
                            -----------------------------------------------

                              NUMBER OF TIME STEPS =     1

                               MULTIPLIER FOR DELT =     1.500

                            INITIAL TIME STEP SIZE =   91.00000    

 WELL NO.  LAYER   ROW   COL   STRESS RATE         
 --------------------------------------------------
      1      1      8     16      -9735.    
      2      1     14     29     -0.1305E+05
      3      1     19     28      -9398.    
      4      1     18      3      -9037.    

      4 WELLS

                 RECHARGE =  2.000000E-03

 REUSING STREAM SEGMENT DATA FROM LAST STRESS PERIOD
 
 SOLVING FOR HEAD 


     7 CALLS TO PCG ROUTINE FOR TIME STEP   1 IN STRESS PERIOD   10
    26 TOTAL ITERATIONS

 OUTPUT CONTROL FOR STRESS PERIOD   10   TIME STEP    1
    SAVE BUDGET
    SAVE HEAD FOR ALL LAYERS
    PRINT HEAD FOR ALL LAYERS
 UBDSV2 SAVING "STREAMFLOW OUT  " ON UNIT  50 AT TIME STEP  1, STRESS PERIOD  10



 STREAM LISTING     PERIOD     10   STEP        1

 LAYER ROW COL. STREAM  RCH.  FLOW INTO     FLOW TO   FLOW OUT OF   OVRLND.     DIRECT     STREAM       STREAM     STREAM     STREAM   STREAMBED  STREAMBED
                SEG.NO.  NO.  STRM. RCH.    AQUIFER    STRM. RCH.    RUNOFF     PRECIP       ET          HEAD       DEPTH      WIDTH   CONDCTNC.   GRADIENT

   1   13    1     1     1    1.0000E+05 -1.2174E+03   1.0122E+05  0.000E+00  0.000E+00  0.000E+00  4.84065E+01  1.452E-01  2.000E+01  2.000E+04 -6.087E-02
   1   13    2     1     2    1.0122E+05 -2.2326E+03   1.0345E+05  0.000E+00  0.000E+00  0.000E+00  4.79308E+01  1.467E-01  2.000E+01  2.000E+04 -1.116E-01
   1   14    3     1     3    1.0345E+05 -3.0696E+02   1.0376E+05  0.000E+00  0.000E+00  0.000E+00  4.74546E+01  1.478E-01  2.000E+01  2.000E+04 -1.535E-02
   1   15    4     1     4    1.0376E+05 -1.3538E+02   1.0389E+05  0.000E+00  0.000E+00  0.000E+00  4.69775E+01  1.479E-01  2.000E+01  2.000E+04 -6.769E-03
   1   16    5     1     5    1.0389E+05  8.0022E+02   1.0309E+05  0.000E+00  0.000E+00  0.000E+00  4.64999E+01  1.477E-01  2.000E+01  2.000E+04  4.001E-02
   1   16    6     1     6    1.0309E+05 -3.9978E+02   1.0349E+05  0.000E+00  0.000E+00  0.000E+00  4.60225E+01  1.475E-01  2.000E+01  2.000E+04 -1.999E-02
   1   16    7     1     7    1.0349E+05 -6.9827E+02   1.0419E+05  0.000E+00  0.000E+00  0.000E+00  4.55457E+01  1.480E-01  2.000E+01  2.000E+04 -3.491E-02
   1   16    8     1     8    1.0419E+05 -8.6567E+02   1.0506E+05  0.000E+00  0.000E+00  0.000E+00  4.50691E+01  1.486E-01  2.000E+01  2.000E+04 -4.328E-02
   1   16    9     1     9    1.0506E+05 -9.6894E+02   1.0602E+05  0.000E+00  0.000E+00  0.000E+00  4.45926E+01  1.494E-01  2.000E+01  2.000E+04 -4.845E-02
   1   16   10     1    10    1.0602E+05 -1.0344E+03   1.0706E+05  0.000E+00  0.000E+00  0.000E+00  4.41162E+01  1.503E-01  2.000E+01  2.000E+04 -5.172E-02
   1   16   11     1    11    1.0706E+05 -1.0935E+03   1.0815E+05  0.000E+00  0.000E+00  0.000E+00  4.36398E+01  1.512E-01  2.000E+01  2.000E+04 -5.467E-02
   1   16   12     1    12    1.0815E+05 -1.9101E+03   1.1006E+05  0.000E+00  0.000E+00  0.000E+00  4.31638E+01  1.524E-01  2.000E+01  2.000E+04 -9.551E-02
   1   15   13     1    13    1.1006E+05 -1.7721E+03   1.1183E+05  0.000E+00  0.000E+00  0.000E+00  4.26880E+01  1.540E-01  2.000E+01  2.000E+04 -8.860E-02
   1   14   14     1    14    1.1183E+05 -1.8884E+03   1.1372E+05  0.000E+00  0.000E+00  0.000E+00  4.22123E+01  1.555E-01  2.000E+01  2.000E+04 -9.442E-02
   1   13   15     1    15    1.1372E+05 -1.9145E+03   1.1564E+05  0.000E+00  0.000E+00  0.000E+00  4.17366E+01  1.570E-01  2.000E+01  2.000E+04 -9.572E-02
   1   12   16     1    16    1.1564E+05 -1.8596E+03   1.1750E+05  0.000E+00  0.000E+00  0.000E+00  4.12609E+01  1.586E-01  2.000E+01  2.000E+04 -9.298E-02
   1   12   17     1    17    1.1750E+05 -1.3301E+03   1.1883E+05  0.000E+00  0.000E+00  0.000E+00  4.07849E+01  1.599E-01  2.000E+01  2.000E+04 -6.651E-02
   1   12   18     1    18    1.1883E+05 -1.4092E+03   1.2024E+05  0.000E+00  0.000E+00  0.000E+00  4.03087E+01  1.610E-01  2.000E+01  2.000E+04 -7.046E-02
   1   12   19     1    19    1.2024E+05 -1.9999E+03   1.2224E+05  0.000E+00  0.000E+00  0.000E+00  3.98328E+01  1.624E-01  2.000E+01  2.000E+04 -1.000E-01
   1   13   20     1    20    1.2224E+05 -1.8748E+03   1.2411E+05  0.000E+00  0.000E+00  0.000E+00  3.93571E+01  1.639E-01  2.000E+01  2.000E+04 -9.374E-02
   1   14   21     1    21    1.2411E+05 -1.8185E+03   1.2593E+05  0.000E+00  0.000E+00  0.000E+00  3.88813E+01  1.654E-01  2.000E+01  2.000E+04 -9.092E-02
   1   14   22     1    22    1.2593E+05  4.8066E+03   1.2112E+05  0.000E+00  0.000E+00  0.000E+00  3.84028E+01  1.642E-01  2.000E+01  2.000E+04  2.403E-01
   1    9   30     2     1    5.0000E+04  2.7190E+02   4.9728E+04  0.000E+00  0.000E+00  0.000E+00  4.02407E+01  1.157E-01  2.000E+01  2.000E+04  1.359E-02
   1    9   29     2     2    4.9728E+04 -1.1319E+02   4.9841E+04  0.000E+00  0.000E+00  0.000E+00  3.99906E+01  1.156E-01  2.000E+01  2.000E+04 -5.660E-03
   1    9   28     2     3    4.9841E+04 -5.5999E+02   5.0401E+04  0.000E+00  0.000E+00  0.000E+00  3.97410E+01  1.160E-01  2.000E+01  2.000E+04 -2.800E-02
   1    9   27     2     4    5.0401E+04 -2.0960E+03   5.2497E+04  0.000E+00  0.000E+00  0.000E+00  3.94929E+01  1.179E-01  2.000E+01  2.000E+04 -1.048E-01
   1   10   26     2     5    5.2497E+04 -8.4476E+02   5.3342E+04  0.000E+00  0.000E+00  0.000E+00  3.92449E+01  1.199E-01  2.000E+01  2.000E+04 -4.224E-02
   1   11   25     2     6    5.3342E+04 -8.0028E+02   5.4142E+04  0.000E+00  0.000E+00  0.000E+00  3.89960E+01  1.210E-01  2.000E+01  2.000E+04 -4.001E-02
   1   12   24     2     7    5.4142E+04 -1.2828E+03   5.5425E+04  0.000E+00  0.000E+00  0.000E+00  3.87474E+01  1.224E-01  2.000E+01  2.000E+04 -6.414E-02
   1   13   23     2     8    5.5425E+04 -3.0820E+02   5.5733E+04  0.000E+00  0.000E+00  0.000E+00  3.84985E+01  1.235E-01  2.000E+01  2.000E+04 -1.541E-02
   1   14   22     2     9    5.5733E+04  1.7004E+03   5.4033E+04  0.000E+00  0.000E+00  0.000E+00  3.82475E+01  1.225E-01  2.000E+01  2.000E+04  8.502E-02
   1   14   22     3     1    1.7516E+05 -8.7287E+03   1.8388E+05  0.000E+00  0.000E+00  0.000E+00  3.77261E+01  1.705E-01  2.000E+01  2.000E+04 -4.364E-01
   1   15   23     3     2    1.8388E+05 -6.1555E+02   1.8450E+05  0.000E+00  0.000E+00  0.000E+00  3.68398E+01  1.732E-01  2.000E+01  2.000E+04 -3.078E-02
   1   15   24     3     3    1.8450E+05 -3.3364E+02   1.8483E+05  0.000E+00  0.000E+00  0.000E+00  3.59512E+01  1.734E-01  2.000E+01  2.000E+04 -1.668E-02
   1   15   25     3     4    1.8483E+05 -2.8838E+02   1.8512E+05  0.000E+00  0.000E+00  0.000E+00  3.50625E+01  1.736E-01  2.000E+01  2.000E+04 -1.442E-02
   1   15   26     3     5    1.8512E+05 -2.8714E+01   1.8515E+05  0.000E+00  0.000E+00  0.000E+00  3.41737E+01  1.737E-01  2.000E+01  2.000E+04 -1.436E-03
   1   16   27     3     6    1.8515E+05  2.8492E+02   1.8487E+05  0.000E+00  0.000E+00  0.000E+00  3.32847E+01  1.736E-01  2.000E+01  2.000E+04  1.425E-02
   1   17   28     3     7    1.8487E+05  3.4248E+03   1.8144E+05  0.000E+00  0.000E+00  0.000E+00  3.23948E+01  1.726E-01  2.000E+01  2.000E+04  1.712E-01
   1   18   29     3     8    1.8144E+05  1.9652E+03   1.7948E+05  0.000E+00  0.000E+00  0.000E+00  3.15044E+01  1.711E-01  2.000E+01  2.000E+04  9.826E-02
   1   18   30     3     9    1.7948E+05 -4.5206E+02   1.7993E+05  0.000E+00  0.000E+00  0.000E+00  3.06151E+01  1.706E-01  2.000E+01  2.000E+04 -2.260E-02



1
              HEAD IN LAYER   1 AT END OF TIME STEP   1 IN STRESS PERIOD   10
  ---------------------------------------------------------------------------

          1      2      3      4      5      6      7      8      9     10
         11     12     13     14     15     16     17     18     19     20
         21     22     23     24     25     26     27     28     29     30
 .........................................................................
   1  ****** ****** ****** ****** ****** ****** ****** ****** ****** ******
      ****** ****** ****** ****** ****** ****** ****** ****** ****** ******
      ****** ****** ****** ****** ****** ****** ****** ****** ****** ******
   2  ****** ****** ****** ****** ****** ****** ****** ****** ****** ******
      ****** ****** ****** ****** ****** ****** ****** ****** ****** ******
      ****** ****** ****** ****** ****** ****** ****** ****** ****** ******
   3  ****** ****** ****** ****** ****** ****** ****** ****** ****** ******
      ****** ****** ****** ****** ****** ****** ****** ****** ****** ******
      ****** ****** ****** ****** ****** ****** ****** ****** ****** ******
   4  ****** ****** ****** ****** ****** ****** ****** ****** ****** ******
      ****** ****** ****** ****** ****** ****** ****** ****** ****** ******
      ****** ****** ****** ****** ****** ****** ****** ****** ****** ******
   5  ****** ****** ****** ****** ****** ****** ****** ****** ****** ******
      ****** ****** ****** ****** ****** ****** ****** ****** ****** ******
      ****** ****** ****** ****** ****** ****** ****** ****** ****** ******
   6  ****** ****** ****** ****** ****** ****** ****** ****** ****** ******
      ****** ****** ****** ****** ****** ****** ****** ****** ****** ******
      ****** ****** ****** ****** ****** ****** ****** ****** ****** ******
   7  ****** ****** ****** ****** ****** ****** ****** ****** ****** ******
      ****** ****** ****** ****** ****** ****** ****** ****** ****** ******
      ****** ****** ****** ****** ****** ****** ****** ****** ****** ******
   8  ****** ****** ****** ****** ****** ****** ****** ****** ****** ******
      ****** ****** ****** ****** ****** ****** ****** ****** ****** ******
      ****** ****** ****** ****** ****** ****** ****** ****** ****** ******
   9  ****** ****** ****** ****** ****** ****** ****** ****** ****** ******
      ****** ****** ****** ****** ****** ****** ****** ****** ****** ******
      ****** ****** ****** ****** ****** ****** ****** ****** ****** ******
  10  ****** ****** ****** ****** ****** ****** ****** ****** ****** ******
      ****** ****** ****** ****** ****** ****** ****** ****** ****** ******
      ****** ****** ****** ****** ****** ****** ****** ****** ****** ******
  11  ****** ****** ****** ****** ****** ****** ****** ****** ****** ******
      ****** ****** ****** ****** ****** ****** ****** ****** ****** ******
      ****** ****** ****** ****** ****** ****** ****** ****** ****** ******
  12  ****** ****** ****** ****** ****** ****** ****** ****** ****** ******
      ****** ****** ****** ****** ****** ****** ****** ****** ****** ******
      ****** ****** ****** ****** ****** ****** ****** ****** ****** ******
  13  ****** ****** ****** ****** ****** ****** ****** ****** ****** ******
      ****** ****** ****** ****** ****** ****** ****** ****** ****** ******
      ****** ****** ****** ****** ****** ****** ****** ****** ****** ******
  14  ****** ****** ****** ****** ****** ****** ****** ****** ****** ******
      ****** ****** ****** ****** ****** ****** ****** ****** ****** ******
      ****** ****** ****** ****** ****** ****** ****** ****** ****** ******
  15  ****** ****** ****** ****** ****** ****** ****** ****** ****** ******
      ****** ****** ****** ****** ****** ****** ****** ****** ****** ******
      ****** ****** ****** ****** ****** ****** ****** ****** ****** ******
  16  ****** ****** ****** ****** ****** ****** ****** ****** ****** ******
      ****** ****** ****** ****** ****** ****** ****** ****** ****** ******
      ****** ****** ****** ****** ****** ****** ****** ****** ****** ******
  17  ****** ****** ****** ****** ****** ****** ****** ****** ****** ******
      ****** ****** ****** ****** ****** ****** ****** ****** ****** ******
      ****** ****** ****** ****** ****** ****** ****** ****** ****** ******
  18  ****** ****** ****** ****** ****** ****** ****** ****** ****** ******
      ****** ****** ****** ****** ****** ****** ****** ****** ****** ******
      ****** ****** ****** ****** ****** ****** ****** ****** ****** ******
  19  ****** ****** ****** ****** ****** ****** ****** ****** ****** ******
      ****** ****** ****** ****** ****** ****** ****** ****** ****** ******
      ****** ****** ****** ****** ****** ****** ****** ****** ****** ******
  20  ****** ****** ****** ****** ****** ****** ****** ****** ****** ******
      ****** ****** ****** ****** ****** ****** ****** ****** ****** ******
      ****** ****** ****** ****** ****** ****** ****** ****** ****** ******
  21  ****** ****** ****** ****** ****** ****** ****** ****** ****** ******
      ****** ****** ****** ****** ****** ****** ****** ****** ****** ******
      ****** ****** ****** ****** ****** ****** ****** ****** ****** ******
  22  ****** ****** ****** ****** ****** ****** ****** ****** ****** ******
      ****** ****** ****** ****** ****** ****** ****** ****** ****** ******
      ****** ****** ****** ****** ****** ****** ****** ****** ****** ******
  23  ****** ****** ****** ****** ****** ****** ****** ****** ****** ******
      ****** ****** ****** ****** ****** ****** ****** ****** ****** ******
      ****** ****** ****** ****** ****** ****** ****** ****** ****** ******
  24  ****** ****** ****** ****** ****** ****** ****** ****** ****** ******
      ****** ****** ****** ****** ****** ****** ****** ****** ****** ******
      ****** ****** ****** ****** ****** ****** ****** ****** ****** ******
  25  ****** ****** ****** ****** ****** ****** ****** ****** ****** ******
      ****** ****** ****** ****** ****** ****** ****** ****** ****** ******
      ****** ****** ****** ****** ****** ****** ****** ****** ****** ******

 HEAD WILL BE SAVED ON UNIT   51 AT END OF TIME STEP    1, STRESS PERIOD   10
1
  VOLUMETRIC BUDGET FOR ENTIRE MODEL AT END OF TIME STEP    1, STRESS PERIOD  10
  ------------------------------------------------------------------------------

     CUMULATIVE VOLUMES      L**3       RATES FOR THIS TIME STEP      L**3/T
     ------------------                 ------------------------

           IN:                                      IN:
           ---                                      ---
             STORAGE =    34489643.3952               STORAGE =           0.0000
       CONSTANT HEAD =    25462904.7354         CONSTANT HEAD =       31601.8540
               WELLS =           0.0000                 WELLS =           0.0000
            RECHARGE =    23901600.0000              RECHARGE =       55200.0000
      STREAM LEAKAGE =    11479740.5449        STREAM LEAKAGE =       13254.0809

            TOTAL IN =    95333888.6756              TOTAL IN =      100055.9348

          OUT:                                     OUT:
          ----                                     ----
             STORAGE =     2344433.2206               STORAGE =       15654.9537
       CONSTANT HEAD =           0.0000         CONSTANT HEAD =           0.0000
               WELLS =    37632755.4409                 WELLS =       41218.7902
            RECHARGE =           0.0000              RECHARGE =           0.0000
      STREAM LEAKAGE =    55356701.6997        STREAM LEAKAGE =       43182.1871

           TOTAL OUT =    95333890.3613             TOTAL OUT =      100055.9310

            IN - OUT =          -1.6857              IN - OUT =       3.8386E-03

 PERCENT DISCREPANCY =          -0.00     PERCENT DISCREPANCY =           0.00






         TIME SUMMARY AT END OF TIME STEP    1 IN STRESS PERIOD   10
                    SECONDS     MINUTES      HOURS       DAYS        YEARS
                    -----------------------------------------------------------
   TIME STEP LENGTH 7.86240E+06 1.31040E+05  2184.0      91.000     0.24914    
 STRESS PERIOD TIME 7.86240E+06 1.31040E+05  2184.0      91.000     0.24914    
         TOTAL TIME 7.88832E+07 1.31472E+06  21912.      913.00      2.4997    
1
1
                            STRESS PERIOD NO.   11, LENGTH =   91.00000    
                            -----------------------------------------------

                              NUMBER OF TIME STEPS =     1

                               MULTIPLIER FOR DELT =     1.500

                            INITIAL TIME STEP SIZE =   91.00000    

 WELL NO.  LAYER   ROW   COL   STRESS RATE         
 --------------------------------------------------
      1      1      8     16      -9735.    
      2      1     14     29     -0.1305E+05
      3      1     19     28      -9398.    
      4      1     18      3      -9037.    

      4 WELLS

                 RECHARGE =   0.00000    

 REUSING STREAM SEGMENT DATA FROM LAST STRESS PERIOD
 
 SOLVING FOR HEAD 


     7 CALLS TO PCG ROUTINE FOR TIME STEP   1 IN STRESS PERIOD   11
    26 TOTAL ITERATIONS

 OUTPUT CONTROL FOR STRESS PERIOD   11   TIME STEP    1
    SAVE BUDGET
    SAVE HEAD FOR ALL LAYERS
    PRINT HEAD FOR ALL LAYERS
 UBDSV2 SAVING "STREAMFLOW OUT  " ON UNIT  50 AT TIME STEP  1, STRESS PERIOD  11



 STREAM LISTING     PERIOD     11   STEP        1

 LAYER ROW COL. STREAM  RCH.  FLOW INTO     FLOW TO   FLOW OUT OF   OVRLND.     DIRECT     STREAM       STREAM     STREAM     STREAM   STREAMBED  STREAMBED
                SEG.NO.  NO.  STRM. RCH.    AQUIFER    STRM. RCH.    RUNOFF     PRECIP       ET          HEAD       DEPTH      WIDTH   CONDCTNC.   GRADIENT

   1   13    1     1     1    1.0000E+05 -6.4850E+02   1.0065E+05  0.000E+00  0.000E+00  0.000E+00  4.84063E+01  1.449E-01  2.000E+01  2.000E+04 -3.242E-02
   1   13    2     1     2    1.0065E+05 -1.5991E+03   1.0225E+05  0.000E+00  0.000E+00  0.000E+00  4.79300E+01  1.459E-01  2.000E+01  2.000E+04 -7.996E-02
   1   14    3     1     3    1.0225E+05 -7.5843E+01   1.0232E+05  0.000E+00  0.000E+00  0.000E+00  4.74534E+01  1.466E-01  2.000E+01  2.000E+04 -3.792E-03
   1   15    4     1     4    1.0232E+05  1.0672E+02   1.0222E+05  0.000E+00  0.000E+00  0.000E+00  4.69762E+01  1.466E-01  2.000E+01  2.000E+04  5.336E-03
   1   16    5     1     5    1.0222E+05  1.4884E+03   1.0073E+05  0.000E+00  0.000E+00  0.000E+00  4.64982E+01  1.459E-01  2.000E+01  2.000E+04  7.442E-02
   1   16    6     1     6    1.0073E+05  1.4764E+01   1.0071E+05  0.000E+00  0.000E+00  0.000E+00  4.60203E+01  1.453E-01  2.000E+01  2.000E+04  7.382E-04
   1   16    7     1     7    1.0071E+05 -3.0134E+02   1.0101E+05  0.000E+00  0.000E+00  0.000E+00  4.55431E+01  1.454E-01  2.000E+01  2.000E+04 -1.507E-02
   1   16    8     1     8    1.0101E+05 -4.7427E+02   1.0149E+05  0.000E+00  0.000E+00  0.000E+00  4.50662E+01  1.457E-01  2.000E+01  2.000E+04 -2.371E-02
   1   16    9     1     9    1.0149E+05 -5.7980E+02   1.0207E+05  0.000E+00  0.000E+00  0.000E+00  4.45894E+01  1.462E-01  2.000E+01  2.000E+04 -2.899E-02
   1   16   10     1    10    1.0207E+05 -6.4636E+02   1.0272E+05  0.000E+00  0.000E+00  0.000E+00  4.41126E+01  1.467E-01  2.000E+01  2.000E+04 -3.232E-02
   1   16   11     1    11    1.0272E+05 -7.0369E+02   1.0342E+05  0.000E+00  0.000E+00  0.000E+00  4.36359E+01  1.473E-01  2.000E+01  2.000E+04 -3.518E-02
   1   16   12     1    12    1.0342E+05 -1.2643E+03   1.0468E+05  0.000E+00  0.000E+00  0.000E+00  4.31595E+01  1.481E-01  2.000E+01  2.000E+04 -6.321E-02
   1   15   13     1    13    1.0468E+05 -1.0832E+03   1.0577E+05  0.000E+00  0.000E+00  0.000E+00  4.26832E+01  1.491E-01  2.000E+01  2.000E+04 -5.416E-02
   1   14   14     1    14    1.0577E+05 -1.1816E+03   1.0695E+05  0.000E+00  0.000E+00  0.000E+00  4.22069E+01  1.501E-01  2.000E+01  2.000E+04 -5.908E-02
   1   13   15     1    15    1.0695E+05 -1.2132E+03   1.0816E+05  0.000E+00  0.000E+00  0.000E+00  4.17307E+01  1.511E-01  2.000E+01  2.000E+04 -6.066E-02
   1   12   16     1    16    1.0816E+05 -1.1816E+03   1.0934E+05  0.000E+00  0.000E+00  0.000E+00  4.12544E+01  1.521E-01  2.000E+01  2.000E+04 -5.908E-02
   1   12   17     1    17    1.0934E+05 -8.2310E+02   1.1017E+05  0.000E+00  0.000E+00  0.000E+00  4.07780E+01  1.530E-01  2.000E+01  2.000E+04 -4.115E-02
   1   12   18     1    18    1.1017E+05 -9.0988E+02   1.1108E+05  0.000E+00  0.000E+00  0.000E+00  4.03014E+01  1.537E-01  2.000E+01  2.000E+04 -4.549E-02
   1   12   19     1    19    1.1108E+05 -1.3870E+03   1.1246E+05  0.000E+00  0.000E+00  0.000E+00  3.98251E+01  1.546E-01  2.000E+01  2.000E+04 -6.935E-02
   1   13   20     1    20    1.1246E+05 -1.2624E+03   1.1373E+05  0.000E+00  0.000E+00  0.000E+00  3.93489E+01  1.557E-01  2.000E+01  2.000E+04 -6.312E-02
   1   14   21     1    21    1.1373E+05 -1.2216E+03   1.1495E+05  0.000E+00  0.000E+00  0.000E+00  3.88727E+01  1.568E-01  2.000E+01  2.000E+04 -6.108E-02
   1   14   22     1    22    1.1495E+05  4.9533E+03   1.0999E+05  0.000E+00  0.000E+00  0.000E+00  3.83939E+01  1.552E-01  2.000E+01  2.000E+04  2.477E-01
   1    9   30     2     1    5.0000E+04  7.5999E+02   4.9240E+04  0.000E+00  0.000E+00  0.000E+00  4.02403E+01  1.153E-01  2.000E+01  2.000E+04  3.800E-02
   1    9   29     2     2    4.9240E+04  3.7185E+02   4.8868E+04  0.000E+00  0.000E+00  0.000E+00  3.99895E+01  1.145E-01  2.000E+01  2.000E+04  1.859E-02
   1    9   28     2     3    4.8868E+04 -7.7143E+01   4.8945E+04  0.000E+00  0.000E+00  0.000E+00  3.97393E+01  1.143E-01  2.000E+01  2.000E+04 -3.857E-03
   1    9   27     2     4    4.8945E+04 -1.4562E+03   5.0401E+04  0.000E+00  0.000E+00  0.000E+00  3.94904E+01  1.154E-01  2.000E+01  2.000E+04 -7.281E-02
   1   10   26     2     5    5.0401E+04 -1.9052E+02   5.0592E+04  0.000E+00  0.000E+00  0.000E+00  3.92416E+01  1.166E-01  2.000E+01  2.000E+04 -9.526E-03
   1   11   25     2     6    5.0592E+04 -1.6986E+02   5.0762E+04  0.000E+00  0.000E+00  0.000E+00  3.89918E+01  1.168E-01  2.000E+01  2.000E+04 -8.493E-03
   1   12   24     2     7    5.0762E+04 -7.0942E+02   5.1471E+04  0.000E+00  0.000E+00  0.000E+00  3.87424E+01  1.174E-01  2.000E+01  2.000E+04 -3.547E-02
   1   13   23     2     8    5.1471E+04 -1.2233E+02   5.1594E+04  0.000E+00  0.000E+00  0.000E+00  3.84930E+01  1.180E-01  2.000E+01  2.000E+04 -6.117E-03
   1   14   22     2     9    5.1594E+04  1.9112E+03   4.9682E+04  0.000E+00  0.000E+00  0.000E+00  3.82418E+01  1.168E-01  2.000E+01  2.000E+04  9.556E-02
   1   14   22     3     1    1.5968E+05 -8.5828E+03   1.6826E+05  0.000E+00  0.000E+00  0.000E+00  3.77170E+01  1.615E-01  2.000E+01  2.000E+04 -4.291E-01
   1   15   23     3     2    1.6826E+05 -4.2352E+02   1.6868E+05  0.000E+00  0.000E+00  0.000E+00  3.68308E+01  1.641E-01  2.000E+01  2.000E+04 -2.118E-02
   1   15   24     3     3    1.6868E+05 -1.6852E+02   1.6885E+05  0.000E+00  0.000E+00  0.000E+00  3.59421E+01  1.643E-01  2.000E+01  2.000E+04 -8.426E-03
   1   15   25     3     4    1.6885E+05 -1.1944E+02   1.6897E+05  0.000E+00  0.000E+00  0.000E+00  3.50533E+01  1.644E-01  2.000E+01  2.000E+04 -5.972E-03
   1   15   26     3     5    1.6897E+05  1.6697E+02   1.6880E+05  0.000E+00  0.000E+00  0.000E+00  3.41644E+01  1.644E-01  2.000E+01  2.000E+04  8.348E-03
   1   16   27     3     6    1.6880E+05  5.0792E+02   1.6830E+05  0.000E+00  0.000E+00  0.000E+00  3.32753E+01  1.642E-01  2.000E+01  2.000E+04  2.540E-02
   1   17   28     3     7    1.6830E+05  4.0345E+03   1.6426E+05  0.000E+00  0.000E+00  0.000E+00  3.23851E+01  1.629E-01  2.000E+01  2.000E+04  2.017E-01
   1   18   29     3     8    1.6426E+05  2.5869E+03   1.6167E+05  0.000E+00  0.000E+00  0.000E+00  3.14942E+01  1.609E-01  2.000E+01  2.000E+04  1.293E-01
   1   18   30     3     9    1.6167E+05  3.6897E+01   1.6164E+05  0.000E+00  0.000E+00  0.000E+00  3.06046E+01  1.601E-01  2.000E+01  2.000E+04  1.845E-03



1
              HEAD IN LAYER   1 AT END OF TIME STEP   1 IN STRESS PERIOD   11
  ---------------------------------------------------------------------------

          1      2      3      4      5      6      7      8      9     10
         11     12     13     14     15     16     17     18     19     20
         21     22     23     24     25     26     27     28     29     30
 .........................................................................
   1  ****** ****** ****** ****** ****** ****** ****** ****** ****** ******
      ****** ****** ****** ****** ****** ****** ****** ****** ****** ******
      ****** ****** ****** ****** ****** ****** ****** ****** ****** ******
   2  ****** ****** ****** ****** ****** ****** ****** ****** ****** ******
      ****** ****** ****** ****** ****** ****** ****** ****** ****** ******
      ****** ****** ****** ****** ****** ****** ****** ****** ****** ******
   3  ****** ****** ****** ****** ****** ****** ****** ****** ****** ******
      ****** ****** ****** ****** ****** ****** ****** ****** ****** ******
      ****** ****** ****** ****** ****** ****** ****** ****** ****** ******
   4  ****** ****** ****** ****** ****** ****** ****** ****** ****** ******
      ****** ****** ****** ****** ****** ****** ****** ****** ****** ******
      ****** ****** ****** ****** ****** ****** ****** ****** ****** ******
   5  ****** ****** ****** ****** ****** ****** ****** ****** ****** ******
      ****** ****** ****** ****** ****** ****** ****** ****** ****** ******
      ****** ****** ****** ****** ****** ****** ****** ****** ****** ******
   6  ****** ****** ****** ****** ****** ****** ****** ****** ****** ******
      ****** ****** ****** ****** ****** ****** ****** ****** ****** ******
      ****** ****** ****** ****** ****** ****** ****** ****** ****** ******
   7  ****** ****** ****** ****** ****** ****** ****** ****** ****** ******
      ****** ****** ****** ****** ****** ****** ****** ****** ****** ******
      ****** ****** ****** ****** ****** ****** ****** ****** ****** ******
   8  ****** ****** ****** ****** ****** ****** ****** ****** ****** ******
      ****** ****** ****** ****** ****** ****** ****** ****** ****** ******
      ****** ****** ****** ****** ****** ****** ****** ****** ****** ******
   9  ****** ****** ****** ****** ****** ****** ****** ****** ****** ******
      ****** ****** ****** ****** ****** ****** ****** ****** ****** ******
      ****** ****** ****** ****** ****** ****** ****** ****** ****** ******
  10  ****** ****** ****** ****** ****** ****** ****** ****** ****** ******
      ****** ****** ****** ****** ****** ****** ****** ****** ****** ******
      ****** ****** ****** ****** ****** ****** ****** ****** ****** ******
  11  ****** ****** ****** ****** ****** ****** ****** ****** ****** ******
      ****** ****** ****** ****** ****** ****** ****** ****** ****** ******
      ****** ****** ****** ****** ****** ****** ****** ****** ****** ******
  12  ****** ****** ****** ****** ****** ****** ****** ****** ****** ******
      ****** ****** ****** ****** ****** ****** ****** ****** ****** ******
      ****** ****** ****** ****** ****** ****** ****** ****** ****** ******
  13  ****** ****** ****** ****** ****** ****** ****** ****** ****** ******
      ****** ****** ****** ****** ****** ****** ****** ****** ****** ******
      ****** ****** ****** ****** ****** ****** ****** ****** ****** ******
  14  ****** ****** ****** ****** ****** ****** ****** ****** ****** ******
      ****** ****** ****** ****** ****** ****** ****** ****** ****** ******
      ****** ****** ****** ****** ****** ****** ****** ****** ****** ******
  15  ****** ****** ****** ****** ****** ****** ****** ****** ****** ******
      ****** ****** ****** ****** ****** ****** ****** ****** ****** ******
      ****** ****** ****** ****** ****** ****** ****** ****** ****** ******
  16  ****** ****** ****** ****** ****** ****** ****** ****** ****** ******
      ****** ****** ****** ****** ****** ****** ****** ****** ****** ******
      ****** ****** ****** ****** ****** ****** ****** ****** ****** ******
  17  ****** ****** ****** ****** ****** ****** ****** ****** ****** ******
      ****** ****** ****** ****** ****** ****** ****** ****** ****** ******
      ****** ****** ****** ****** ****** ****** ****** ****** ****** ******
  18  ****** ****** ****** ****** ****** ****** ****** ****** ****** ******
      ****** ****** ****** ****** ****** ****** ****** ****** ****** ******
      ****** ****** ****** ****** ****** ****** ****** ****** ****** ******
  19  ****** ****** ****** ****** ****** ****** ****** ****** ****** ******
      ****** ****** ****** ****** ****** ****** ****** ****** ****** ******
      ****** ****** ****** ****** ****** ****** ****** ****** ****** ******
  20  ****** ****** ****** ****** ****** ****** ****** ****** ****** ******
      ****** ****** ****** ****** ****** ****** ****** ****** ****** ******
      ****** ****** ****** ****** ****** ****** ****** ****** ****** ******
  21  ****** ****** ****** ****** ****** ****** ****** ****** ****** ******
      ****** ****** ****** ****** ****** ****** ****** ****** ****** ******
      ****** ****** ****** ****** ****** ****** ****** ****** ****** ******
  22  ****** ****** ****** ****** ****** ****** ****** ****** ****** ******
      ****** ****** ****** ****** ****** ****** ****** ****** ****** ******
      ****** ****** ****** ****** ****** ****** ****** ****** ****** ******
  23  ****** ****** ****** ****** ****** ****** ****** ****** ****** ******
      ****** ****** ****** ****** ****** ****** ****** ****** ****** ******
      ****** ****** ****** ****** ****** ****** ****** ****** ****** ******
  24  ****** ****** ****** ****** ****** ****** ****** ****** ****** ******
      ****** ****** ****** ****** ****** ****** ****** ****** ****** ******
      ****** ****** ****** ****** ****** ****** ****** ****** ****** ******
  25  ****** ****** ****** ****** ****** ****** ****** ****** ****** ******
      ****** ****** ****** ****** ****** ****** ****** ****** ****** ******
      ****** ****** ****** ****** ****** ****** ****** ****** ****** ******

 HEAD WILL BE SAVED ON UNIT   51 AT END OF TIME STEP    1, STRESS PERIOD   11
1
  VOLUMETRIC BUDGET FOR ENTIRE MODEL AT END OF TIME STEP    1, STRESS PERIOD  11
  ------------------------------------------------------------------------------

     CUMULATIVE VOLUMES      L**3       RATES FOR THIS TIME STEP      L**3/T
     ------------------                 ------------------------

           IN:                                      IN:
           ---                                      ---
             STORAGE =    36124479.6672               STORAGE =       17965.2338
       CONSTANT HEAD =    28637943.7424         CONSTANT HEAD =       34890.5385
               WELLS =           0.0000                 WELLS =           0.0000
            RECHARGE =    23901600.0000              RECHARGE =           0.0000
      STREAM LEAKAGE =    13021237.5575        STREAM LEAKAGE =       16939.5276

            TOTAL IN =   101685260.9671              TOTAL IN =       69795.2999

          OUT:                                     OUT:
          ----                                     ----
             STORAGE =     2344433.2206               STORAGE =           0.0000
       CONSTANT HEAD =           0.0000         CONSTANT HEAD =           0.0000
               WELLS =    41383665.3479                 WELLS =       41218.7902
            RECHARGE =           0.0000              RECHARGE =           0.0000
      STREAM LEAKAGE =    57957164.5414        STREAM LEAKAGE =       28576.5147

           TOTAL OUT =   101685263.1100             TOTAL OUT =       69795.3049

            IN - OUT =          -2.1429              IN - OUT =      -5.0244E-03

 PERCENT DISCREPANCY =          -0.00     PERCENT DISCREPANCY =          -0.00






         TIME SUMMARY AT END OF TIME STEP    1 IN STRESS PERIOD   11
                    SECONDS     MINUTES      HOURS       DAYS        YEARS
                    -----------------------------------------------------------
   TIME STEP LENGTH 7.86240E+06 1.31040E+05  2184.0      91.000     0.24914    
 STRESS PERIOD TIME 7.86240E+06 1.31040E+05  2184.0      91.000     0.24914    
         TOTAL TIME 8.67456E+07 1.44576E+06  24096.      1004.0      2.7488    
1
1
                            STRESS PERIOD NO.   12, LENGTH =   91.00000    
                            -----------------------------------------------

                              NUMBER OF TIME STEPS =     1

                               MULTIPLIER FOR DELT =     1.500

                            INITIAL TIME STEP SIZE =   91.00000    

 WELL NO.  LAYER   ROW   COL   STRESS RATE         
 --------------------------------------------------
      1      1      8     16      -9735.    
      2      1     14     29     -0.1305E+05
      3      1     19     28      -9398.    
      4      1     18      3      -9037.    

      4 WELLS

                 RECHARGE =  1.000000E-03

 REUSING STREAM SEGMENT DATA FROM LAST STRESS PERIOD
 
 SOLVING FOR HEAD 


     7 CALLS TO PCG ROUTINE FOR TIME STEP   1 IN STRESS PERIOD   12
    24 TOTAL ITERATIONS

 OUTPUT CONTROL FOR STRESS PERIOD   12   TIME STEP    1
    SAVE BUDGET
    SAVE HEAD FOR ALL LAYERS
    PRINT HEAD FOR ALL LAYERS
 UBDSV2 SAVING "STREAMFLOW OUT  " ON UNIT  50 AT TIME STEP  1, STRESS PERIOD  12



 STREAM LISTING     PERIOD     12   STEP        1

 LAYER ROW COL. STREAM  RCH.  FLOW INTO     FLOW TO   FLOW OUT OF   OVRLND.     DIRECT     STREAM       STREAM     STREAM     STREAM   STREAMBED  STREAMBED
                SEG.NO.  NO.  STRM. RCH.    AQUIFER    STRM. RCH.    RUNOFF     PRECIP       ET          HEAD       DEPTH      WIDTH   CONDCTNC.   GRADIENT

   1   13    1     1     1    1.0000E+05 -7.9194E+02   1.0079E+05  0.000E+00  0.000E+00  0.000E+00  4.84064E+01  1.450E-01  2.000E+01  2.000E+04 -3.960E-02
   1   13    2     1     2    1.0079E+05 -1.7533E+03   1.0255E+05  0.000E+00  0.000E+00  0.000E+00  4.79302E+01  1.461E-01  2.000E+01  2.000E+04 -8.766E-02
   1   14    3     1     3    1.0255E+05 -1.5424E+02   1.0270E+05  0.000E+00  0.000E+00  0.000E+00  4.74537E+01  1.469E-01  2.000E+01  2.000E+04 -7.712E-03
   1   15    4     1     4    1.0270E+05  2.4499E+01   1.0267E+05  0.000E+00  0.000E+00  0.000E+00  4.69765E+01  1.470E-01  2.000E+01  2.000E+04  1.225E-03
   1   16    5     1     5    1.0267E+05  1.2789E+03   1.0140E+05  0.000E+00  0.000E+00  0.000E+00  4.64987E+01  1.464E-01  2.000E+01  2.000E+04  6.394E-02
   1   16    6     1     6    1.0140E+05 -1.1552E+02   1.0151E+05  0.000E+00  0.000E+00  0.000E+00  4.60209E+01  1.459E-01  2.000E+01  2.000E+04 -5.776E-03
   1   16    7     1     7    1.0151E+05 -4.2654E+02   1.0194E+05  0.000E+00  0.000E+00  0.000E+00  4.55439E+01  1.461E-01  2.000E+01  2.000E+04 -2.133E-02
   1   16    8     1     8    1.0194E+05 -5.9844E+02   1.0254E+05  0.000E+00  0.000E+00  0.000E+00  4.50670E+01  1.466E-01  2.000E+01  2.000E+04 -2.992E-02
   1   16    9     1     9    1.0254E+05 -7.0441E+02   1.0324E+05  0.000E+00  0.000E+00  0.000E+00  4.45903E+01  1.471E-01  2.000E+01  2.000E+04 -3.522E-02
   1   16   10     1    10    1.0324E+05 -7.7232E+02   1.0401E+05  0.000E+00  0.000E+00  0.000E+00  4.41137E+01  1.478E-01  2.000E+01  2.000E+04 -3.862E-02
   1   16   11     1    11    1.0401E+05 -8.3190E+02   1.0485E+05  0.000E+00  0.000E+00  0.000E+00  4.36371E+01  1.485E-01  2.000E+01  2.000E+04 -4.159E-02
   1   16   12     1    12    1.0485E+05 -1.4658E+03   1.0631E+05  0.000E+00  0.000E+00  0.000E+00  4.31608E+01  1.494E-01  2.000E+01  2.000E+04 -7.329E-02
   1   15   13     1    13    1.0631E+05 -1.2998E+03   1.0761E+05  0.000E+00  0.000E+00  0.000E+00  4.26847E+01  1.506E-01  2.000E+01  2.000E+04 -6.499E-02
   1   14   14     1    14    1.0761E+05 -1.3988E+03   1.0901E+05  0.000E+00  0.000E+00  0.000E+00  4.22086E+01  1.517E-01  2.000E+01  2.000E+04 -6.994E-02
   1   13   15     1    15    1.0901E+05 -1.4230E+03   1.1043E+05  0.000E+00  0.000E+00  0.000E+00  4.17325E+01  1.529E-01  2.000E+01  2.000E+04 -7.115E-02
   1   12   16     1    16    1.1043E+05 -1.3649E+03   1.1180E+05  0.000E+00  0.000E+00  0.000E+00  4.12564E+01  1.541E-01  2.000E+01  2.000E+04 -6.824E-02
   1   12   17     1    17    1.1180E+05 -9.7646E+02   1.1277E+05  0.000E+00  0.000E+00  0.000E+00  4.07801E+01  1.551E-01  2.000E+01  2.000E+04 -4.882E-02
   1   12   18     1    18    1.1277E+05 -1.0654E+03   1.1384E+05  0.000E+00  0.000E+00  0.000E+00  4.03036E+01  1.559E-01  2.000E+01  2.000E+04 -5.327E-02
   1   12   19     1    19    1.1384E+05 -1.5794E+03   1.1542E+05  0.000E+00  0.000E+00  0.000E+00  3.98275E+01  1.570E-01  2.000E+01  2.000E+04 -7.897E-02
   1   13   20     1    20    1.1542E+05 -1.4728E+03   1.1689E+05  0.000E+00  0.000E+00  0.000E+00  3.93514E+01  1.583E-01  2.000E+01  2.000E+04 -7.364E-02
   1   14   21     1    21    1.1689E+05 -1.4157E+03   1.1831E+05  0.000E+00  0.000E+00  0.000E+00  3.88753E+01  1.594E-01  2.000E+01  2.000E+04 -7.078E-02
   1   14   22     1    22    1.1831E+05  4.9002E+03   1.1341E+05  0.000E+00  0.000E+00  0.000E+00  3.83966E+01  1.580E-01  2.000E+01  2.000E+04  2.450E-01
   1    9   30     2     1    5.0000E+04  5.8358E+02   4.9416E+04  0.000E+00  0.000E+00  0.000E+00  4.02405E+01  1.155E-01  2.000E+01  2.000E+04  2.918E-02
   1    9   29     2     2    4.9416E+04  1.9749E+02   4.9219E+04  0.000E+00  0.000E+00  0.000E+00  3.99899E+01  1.149E-01  2.000E+01  2.000E+04  9.875E-03
   1    9   28     2     3    4.9219E+04 -2.4797E+02   4.9467E+04  0.000E+00  0.000E+00  0.000E+00  3.97399E+01  1.149E-01  2.000E+01  2.000E+04 -1.240E-02
   1    9   27     2     4    4.9467E+04 -1.6652E+03   5.1132E+04  0.000E+00  0.000E+00  0.000E+00  3.94913E+01  1.163E-01  2.000E+01  2.000E+04 -8.326E-02
   1   10   26     2     5    5.1132E+04 -4.2028E+02   5.1552E+04  0.000E+00  0.000E+00  0.000E+00  3.92427E+01  1.177E-01  2.000E+01  2.000E+04 -2.101E-02
   1   11   25     2     6    5.1552E+04 -3.9572E+02   5.1948E+04  0.000E+00  0.000E+00  0.000E+00  3.89933E+01  1.183E-01  2.000E+01  2.000E+04 -1.979E-02
   1   12   24     2     7    5.1948E+04 -9.1555E+02   5.2864E+04  0.000E+00  0.000E+00  0.000E+00  3.87442E+01  1.192E-01  2.000E+01  2.000E+04 -4.578E-02
   1   13   23     2     8    5.2864E+04 -1.9996E+02   5.3064E+04  0.000E+00  0.000E+00  0.000E+00  3.84949E+01  1.199E-01  2.000E+01  2.000E+04 -9.998E-03
   1   14   22     2     9    5.3064E+04  1.8437E+03   5.1220E+04  0.000E+00  0.000E+00  0.000E+00  3.82438E+01  1.188E-01  2.000E+01  2.000E+04  9.218E-02
   1   14   22     3     1    1.6463E+05 -8.6332E+03   1.7326E+05  0.000E+00  0.000E+00  0.000E+00  3.77200E+01  1.644E-01  2.000E+01  2.000E+04 -4.317E-01
   1   15   23     3     2    1.7326E+05 -4.9556E+02   1.7376E+05  0.000E+00  0.000E+00  0.000E+00  3.68337E+01  1.671E-01  2.000E+01  2.000E+04 -2.478E-02
   1   15   24     3     3    1.7376E+05 -2.3362E+02   1.7399E+05  0.000E+00  0.000E+00  0.000E+00  3.59451E+01  1.673E-01  2.000E+01  2.000E+04 -1.168E-02
   1   15   25     3     4    1.7399E+05 -1.8580E+02   1.7418E+05  0.000E+00  0.000E+00  0.000E+00  3.50563E+01  1.674E-01  2.000E+01  2.000E+04 -9.290E-03
   1   15   26     3     5    1.7418E+05  8.9480E+01   1.7409E+05  0.000E+00  0.000E+00  0.000E+00  3.41674E+01  1.674E-01  2.000E+01  2.000E+04  4.474E-03
   1   16   27     3     6    1.7409E+05  4.2112E+02   1.7366E+05  0.000E+00  0.000E+00  0.000E+00  3.32784E+01  1.673E-01  2.000E+01  2.000E+04  2.106E-02
   1   17   28     3     7    1.7366E+05  3.8138E+03   1.6985E+05  0.000E+00  0.000E+00  0.000E+00  3.23883E+01  1.661E-01  2.000E+01  2.000E+04  1.907E-01
   1   18   29     3     8    1.6985E+05  2.3862E+03   1.6746E+05  0.000E+00  0.000E+00  0.000E+00  3.14976E+01  1.642E-01  2.000E+01  2.000E+04  1.193E-01
   1   18   30     3     9    1.6746E+05 -1.3121E+02   1.6760E+05  0.000E+00  0.000E+00  0.000E+00  3.06080E+01  1.636E-01  2.000E+01  2.000E+04 -6.560E-03



1
              HEAD IN LAYER   1 AT END OF TIME STEP   1 IN STRESS PERIOD   12
  ---------------------------------------------------------------------------

          1      2      3      4      5      6      7      8      9     10
         11     12     13     14     15     16     17     18     19     20
         21     22     23     24     25     26     27     28     29     30
 .........................................................................
   1  ****** ****** ****** ****** ****** ****** ****** ****** ****** ******
      ****** ****** ****** ****** ****** ****** ****** ****** ****** ******
      ****** ****** ****** ****** ****** ****** ****** ****** ****** ******
   2  ****** ****** ****** ****** ****** ****** ****** ****** ****** ******
      ****** ****** ****** ****** ****** ****** ****** ****** ****** ******
      ****** ****** ****** ****** ****** ****** ****** ****** ****** ******
   3  ****** ****** ****** ****** ****** ****** ****** ****** ****** ******
      ****** ****** ****** ****** ****** ****** ****** ****** ****** ******
      ****** ****** ****** ****** ****** ****** ****** ****** ****** ******
   4  ****** ****** ****** ****** ****** ****** ****** ****** ****** ******
      ****** ****** ****** ****** ****** ****** ****** ****** ****** ******
      ****** ****** ****** ****** ****** ****** ****** ****** ****** ******
   5  ****** ****** ****** ****** ****** ****** ****** ****** ****** ******
      ****** ****** ****** ****** ****** ****** ****** ****** ****** ******
      ****** ****** ****** ****** ****** ****** ****** ****** ****** ******
   6  ****** ****** ****** ****** ****** ****** ****** ****** ****** ******
      ****** ****** ****** ****** ****** ****** ****** ****** ****** ******
      ****** ****** ****** ****** ****** ****** ****** ****** ****** ******
   7  ****** ****** ****** ****** ****** ****** ****** ****** ****** ******
      ****** ****** ****** ****** ****** ****** ****** ****** ****** ******
      ****** ****** ****** ****** ****** ****** ****** ****** ****** ******
   8  ****** ****** ****** ****** ****** ****** ****** ****** ****** ******
      ****** ****** ****** ****** ****** ****** ****** ****** ****** ******
      ****** ****** ****** ****** ****** ****** ****** ****** ****** ******
   9  ****** ****** ****** ****** ****** ****** ****** ****** ****** ******
      ****** ****** ****** ****** ****** ****** ****** ****** ****** ******
      ****** ****** ****** ****** ****** ****** ****** ****** ****** ******
  10  ****** ****** ****** ****** ****** ****** ****** ****** ****** ******
      ****** ****** ****** ****** ****** ****** ****** ****** ****** ******
      ****** ****** ****** ****** ****** ****** ****** ****** ****** ******
  11  ****** ****** ****** ****** ****** ****** ****** ****** ****** ******
      ****** ****** ****** ****** ****** ****** ****** ****** ****** ******
      ****** ****** ****** ****** ****** ****** ****** ****** ****** ******
  12  ****** ****** ****** ****** ****** ****** ****** ****** ****** ******
      ****** ****** ****** ****** ****** ****** ****** ****** ****** ******
      ****** ****** ****** ****** ****** ****** ****** ****** ****** ******
  13  ****** ****** ****** ****** ****** ****** ****** ****** ****** ******
      ****** ****** ****** ****** ****** ****** ****** ****** ****** ******
      ****** ****** ****** ****** ****** ****** ****** ****** ****** ******
  14  ****** ****** ****** ****** ****** ****** ****** ****** ****** ******
      ****** ****** ****** ****** ****** ****** ****** ****** ****** ******
      ****** ****** ****** ****** ****** ****** ****** ****** ****** ******
  15  ****** ****** ****** ****** ****** ****** ****** ****** ****** ******
      ****** ****** ****** ****** ****** ****** ****** ****** ****** ******
      ****** ****** ****** ****** ****** ****** ****** ****** ****** ******
  16  ****** ****** ****** ****** ****** ****** ****** ****** ****** ******
      ****** ****** ****** ****** ****** ****** ****** ****** ****** ******
      ****** ****** ****** ****** ****** ****** ****** ****** ****** ******
  17  ****** ****** ****** ****** ****** ****** ****** ****** ****** ******
      ****** ****** ****** ****** ****** ****** ****** ****** ****** ******
      ****** ****** ****** ****** ****** ****** ****** ****** ****** ******
  18  ****** ****** ****** ****** ****** ****** ****** ****** ****** ******
      ****** ****** ****** ****** ****** ****** ****** ****** ****** ******
      ****** ****** ****** ****** ****** ****** ****** ****** ****** ******
  19  ****** ****** ****** ****** ****** ****** ****** ****** ****** ******
      ****** ****** ****** ****** ****** ****** ****** ****** ****** ******
      ****** ****** ****** ****** ****** ****** ****** ****** ****** ******
  20  ****** ****** ****** ****** ****** ****** ****** ****** ****** ******
      ****** ****** ****** ****** ****** ****** ****** ****** ****** ******
      ****** ****** ****** ****** ****** ****** ****** ****** ****** ******
  21  ****** ****** ****** ****** ****** ****** ****** ****** ****** ******
      ****** ****** ****** ****** ****** ****** ****** ****** ****** ******
      ****** ****** ****** ****** ****** ****** ****** ****** ****** ******
  22  ****** ****** ****** ****** ****** ****** ****** ****** ****** ******
      ****** ****** ****** ****** ****** ****** ****** ****** ****** ******
      ****** ****** ****** ****** ****** ****** ****** ****** ****** ******
  23  ****** ****** ****** ****** ****** ****** ****** ****** ****** ******
      ****** ****** ****** ****** ****** ****** ****** ****** ****** ******
      ****** ****** ****** ****** ****** ****** ****** ****** ****** ******
  24  ****** ****** ****** ****** ****** ****** ****** ****** ****** ******
      ****** ****** ****** ****** ****** ****** ****** ****** ****** ******
      ****** ****** ****** ****** ****** ****** ****** ****** ****** ******
  25  ****** ****** ****** ****** ****** ****** ****** ****** ****** ******
      ****** ****** ****** ****** ****** ****** ****** ****** ****** ******
      ****** ****** ****** ****** ****** ****** ****** ****** ****** ******

 HEAD WILL BE SAVED ON UNIT   51 AT END OF TIME STEP    1, STRESS PERIOD   12
1
  VOLUMETRIC BUDGET FOR ENTIRE MODEL AT END OF TIME STEP    1, STRESS PERIOD  12
  ------------------------------------------------------------------------------

     CUMULATIVE VOLUMES      L**3       RATES FOR THIS TIME STEP      L**3/T
     ------------------                 ------------------------

           IN:                                      IN:
           ---                                      ---
             STORAGE =    36125667.5492               STORAGE =          13.0536
       CONSTANT HEAD =    31749822.2502         CONSTANT HEAD =       34196.4671
               WELLS =           0.0000                 WELLS =           0.0000
            RECHARGE =    26413200.0000              RECHARGE =       27600.0000
      STREAM LEAKAGE =    14435283.9605        STREAM LEAKAGE =       15538.9715

            TOTAL IN =   108723973.7599              TOTAL IN =       77348.4922

          OUT:                                     OUT:
          ----                                     ----
             STORAGE =     2616975.6669               STORAGE =        2994.9719
       CONSTANT HEAD =           0.0000         CONSTANT HEAD =           0.0000
               WELLS =    45134575.2550                 WELLS =       41218.7902
            RECHARGE =           0.0000              RECHARGE =           0.0000
      STREAM LEAKAGE =    60972424.8956        STREAM LEAKAGE =       33134.7292

           TOTAL OUT =   108723975.8175             TOTAL OUT =       77348.4913

            IN - OUT =          -2.0576              IN - OUT =       9.3757E-04

 PERCENT DISCREPANCY =          -0.00     PERCENT DISCREPANCY =           0.00






         TIME SUMMARY AT END OF TIME STEP    1 IN STRESS PERIOD   12
                    SECONDS     MINUTES      HOURS       DAYS        YEARS
                    -----------------------------------------------------------
   TIME STEP LENGTH 7.86240E+06 1.31040E+05  2184.0      91.000     0.24914    
 STRESS PERIOD TIME 7.86240E+06 1.31040E+05  2184.0      91.000     0.24914    
         TOTAL TIME 9.46080E+07 1.57680E+06  26280.      1095.0      2.9979    
1

 Run end date and time (yyyy/mm/dd hh:mm:ss): 2019/06/07 22:42:49
 Elapsed run time:  0.138 Seconds

