                                  MODFLOW-2005     
      U.S. GEOLOGICAL SURVEY MODULAR FINITE-DIFFERENCE GROUND-WATER FLOW MODEL
                            VERSION 1.11.00 8/8/2013

 LIST FILE: supply2.lst
                         UNIT   10

 OPENING ..\data\supply.dis
 FILE TYPE:DIS   UNIT   11   STATUS:OLD    
 FORMAT:FORMATTED              ACCESS:SEQUENTIAL          

 OPENING ..\data\supply.ba6
 FILE TYPE:BAS6   UNIT   12   STATUS:OLD    
 FORMAT:FORMATTED              ACCESS:SEQUENTIAL          

 OPENING ..\data\supply_het.bc6
 FILE TYPE:BCF6   UNIT   13   STATUS:OLD    
 FORMAT:FORMATTED              ACCESS:SEQUENTIAL          

 OPENING ..\data\supply.rch
 FILE TYPE:RCH   UNIT   15   STATUS:OLD    
 FORMAT:FORMATTED              ACCESS:SEQUENTIAL          

 OPENING ..\data\supply2.sfr
 FILE TYPE:SFR   UNIT   16   STATUS:OLD    
 FORMAT:FORMATTED              ACCESS:SEQUENTIAL          

 OPENING ..\data\supply.oc
 FILE TYPE:OC   UNIT   17   STATUS:OLD    
 FORMAT:FORMATTED              ACCESS:SEQUENTIAL          

 OPENING ..\data\supply.pcg
 FILE TYPE:PCG   UNIT   18   STATUS:OLD    
 FORMAT:FORMATTED              ACCESS:SEQUENTIAL          

 OPENING supply2.wel
 FILE TYPE:WEL   UNIT   19   STATUS:OLD    
 FORMAT:FORMATTED              ACCESS:SEQUENTIAL          

 OPENING supply2sf.cbc
 FILE TYPE:DATA(BINARY)   UNIT   50   STATUS:UNKNOWN
 FORMAT:BINARY                 ACCESS:SEQUENTIAL          

 OPENING supply2hd.bhd
 FILE TYPE:DATA(BINARY)   UNIT   51   STATUS:UNKNOWN
 FORMAT:BINARY                 ACCESS:SEQUENTIAL          

 BAS -- BASIC PACKAGE, VERSION 7, 5/2/2005 INPUT READ FROM UNIT   12
 
 MODFLOW was compiled using uniform precision
 Precision of REAL and DOUBLE PRECISION variables:          15

 DISCRETIZATION INPUT DATA READ FROM UNIT   11
    1 LAYERS        25 ROWS        30 COLUMNS
   12 STRESS PERIOD(S) IN SIMULATION
 MODEL TIME UNIT IS DAYS
 MODEL LENGTH UNIT IS UNDEFINED
  Confining bed flag for each layer:
   0

                     DELR =   200.000    

                     DELC =   200.000    

 TOP ELEVATION OF LAYER 1 =  100.0000    

   MODEL LAYER BOTTOM EL. =   0.00000     FOR LAYER   1


 STRESS PERIOD     LENGTH       TIME STEPS     MULTIPLIER FOR DELT    SS FLAG
 ----------------------------------------------------------------------------
        1         92.00000          1                    1.500         TR
        2         91.00000          1                    1.500         TR
        3         91.00000          1                    1.500         TR
        4         91.00000          1                    1.500         TR
        5         92.00000          1                    1.500         TR
        6         91.00000          1                    1.500         TR
        7         91.00000          1                    1.500         TR
        8         91.00000          1                    1.500         TR
        9         92.00000          1                    1.500         TR
       10         91.00000          1                    1.500         TR
       11         91.00000          1                    1.500         TR
       12         91.00000          1                    1.500         TR

 TRANSIENT SIMULATION



 
 #MODOFC transient water supply sample problem                                   
 #                                                                               
 THE FREE FORMAT OPTION HAS BEEN SELECTED



                     BOUNDARY ARRAY FOR LAYER   1
 READING ON UNIT   12 WITH FORMAT: (20I4)              

 AQUIFER HEAD WILL BE SET TO   0.0000     AT ALL NO-FLOW NODES (IBOUND=0).



                       INITIAL HEAD FOR LAYER   1
 READING ON UNIT   12 WITH FORMAT: (10F13.0)           

 OUTPUT CONTROL IS SPECIFIED ONLY AT TIME STEPS FOR WHICH OUTPUT IS DESIRED
 COMPACT CELL-BY-CELL BUDGET FILES WILL BE WRITTEN
 HEAD PRINT FORMAT CODE IS  18    DRAWDOWN PRINT FORMAT CODE IS   0
 HEADS WILL BE SAVED ON UNIT   51    DRAWDOWNS WILL BE SAVED ON UNIT    0

 BCF -- BLOCK-CENTERED FLOW PACKAGE, VERSION 7, 5/2/2005
         INPUT READ FROM UNIT 13
 TRANSIENT SIMULATION
 HEAD AT CELLS THAT CONVERT TO DRY=   0.0000    
 WETTING CAPABILITY IS NOT ACTIVE
      LAYER  LAYER-TYPE CODE     INTERBLOCK T
      --------------------------------------------
         1            0          0 -- HARMONIC    

 COLUMN TO ROW ANISOTROPY =  1.000000    

     PRIMARY STORAGE COEF =  5.000000E-02 FOR LAYER   1



               TRANSMIS. ALONG ROWS FOR LAYER   1
 READING ON UNIT   13 WITH FORMAT: (FREE)              

 WEL -- WELL PACKAGE, VERSION 7, 5/2/2005 INPUT READ FROM UNIT   19
 # Well package input file written by MMProc
 No named parameters
 MAXIMUM OF      4 ACTIVE WELLS AT ONE TIME


     0 Well parameters

 RCH -- RECHARGE PACKAGE, VERSION 7, 5/2/2005 INPUT READ FROM UNIT   15
 No named parameters
 OPTION 1 -- RECHARGE TO TOP LAYER


     0 Recharge parameters

 SFR7 -- STREAMFLOW ROUTING PACKAGE, VERSION 1.0.7, 2013-01-15
         INPUT READ FROM UNIT  16
 #  Supply2 test problem for GWM-VI
 #  The eighth entry in the first data line is ISTCB2 -
 #    Setting this to a negative number indicates that
 #    streamflows out of the reach will be saved to a
 #    binary file.  The absolute value of ISTCB2 is the
 #    unit to which unformatted flows will be written.
 #
 No named parameters
 Segment information will not be 
 read by reach
 No named parameters
 No specifed inflow files


 NUMBER OF STREAM REACHES IS   40

 NUMBER OF STREAM SEGMENTS IS    3

 NUMBER OF STREAM PARAMETERS IS    0

 NUMBER OF STREAM SEGMENTS DEFINED USING PARAMETERS IS              0

 MAXIMUM ERROR FOR STREAM LEAKAGE RATES IS  1.00E-04

 CONSTANT FOR MANNINGS EQUATION IS  1.2839E+05





   STREAM NETWORK DESCRIPTION: 

   LAYER    ROW    COL   SEGMENT   REACH     LENGTH
                          NUMBER   NUMBER    IN CELL        
   --------------------------------------------------
      1     13      1       1        1    2.0000E+02
      1     13      2       1        2    2.0000E+02
      1     14      3       1        3    2.0000E+02
      1     15      4       1        4    2.0000E+02
      1     16      5       1        5    2.0000E+02
      1     16      6       1        6    2.0000E+02
      1     16      7       1        7    2.0000E+02
      1     16      8       1        8    2.0000E+02
      1     16      9       1        9    2.0000E+02
      1     16     10       1       10    2.0000E+02
      1     16     11       1       11    2.0000E+02
      1     16     12       1       12    2.0000E+02
      1     15     13       1       13    2.0000E+02
      1     14     14       1       14    2.0000E+02
      1     13     15       1       15    2.0000E+02
      1     12     16       1       16    2.0000E+02
      1     12     17       1       17    2.0000E+02
      1     12     18       1       18    2.0000E+02
      1     12     19       1       19    2.0000E+02
      1     13     20       1       20    2.0000E+02
      1     14     21       1       21    2.0000E+02
      1     14     22       1       22    2.0000E+02
      1      9     30       2        1    2.0000E+02
      1      9     29       2        2    2.0000E+02
      1      9     28       2        3    2.0000E+02
      1      9     27       2        4    2.0000E+02
      1     10     26       2        5    2.0000E+02
      1     11     25       2        6    2.0000E+02
      1     12     24       2        7    2.0000E+02
      1     13     23       2        8    2.0000E+02
      1     14     22       2        9    2.0000E+02
      1     14     22       3        1    2.0000E+02
      1     15     23       3        2    2.0000E+02
      1     15     24       3        3    2.0000E+02
      1     15     25       3        4    2.0000E+02
      1     15     26       3        5    2.0000E+02
      1     16     27       3        6    2.0000E+02
      1     17     28       3        7    2.0000E+02
      1     18     29       3        8    2.0000E+02
      1     18     30       3        9    2.0000E+02




 PCG -- CONJUGATE-GRADIENT SOLUTION PACKAGE, VERSION 7, 5/2/2005
 MAXIMUM OF    500 CALLS OF SOLUTION ROUTINE
 MAXIMUM OF      5 INTERNAL ITERATIONS PER CALL TO SOLUTION ROUTINE
 MATRIX PRECONDITIONING TYPE :    1



                                    SOLUTION BY THE CONJUGATE-GRADIENT METHOD
                                   -------------------------------------------
                    MAXIMUM NUMBER OF CALLS TO PCG ROUTINE =      500
                        MAXIMUM ITERATIONS PER CALL TO PCG =        5
                               MATRIX PRECONDITIONING TYPE =        1
        RELAXATION FACTOR (ONLY USED WITH PRECOND. TYPE 1) =    0.10000E+01
 PARAMETER OF POLYNOMIAL PRECOND. = 2 (2) OR IS CALCULATED :        0
                         HEAD CHANGE CRITERION FOR CLOSURE =    0.10000E-05
                     RESIDUAL CHANGE CRITERION FOR CLOSURE =    0.10000E+01
            PCG HEAD AND RESIDUAL CHANGE PRINTOUT INTERVAL =        1
     PRINTING FROM SOLVER IS LIMITED(1) OR SUPPRESSED (>1) =        1
                            STEADY-STATE DAMPING PARAMETER =    0.10000E+01
                               TRANSIENT DAMPING PARAMETER =    0.10000E+01
1
                            STRESS PERIOD NO.    1, LENGTH =   92.00000    
                            -----------------------------------------------

                              NUMBER OF TIME STEPS =     1

                               MULTIPLIER FOR DELT =     1.500

                            INITIAL TIME STEP SIZE =   92.00000    

 WELL NO.  LAYER   ROW   COL   STRESS RATE         
 --------------------------------------------------
      1      1     19     11     -0.1013E+05
      2      1     15     28      -7561.    
      3      1     15      7      -2227.    
      4      1     12     26     -0.1452E+05

      4 WELLS

                 RECHARGE =  5.000000E-04



 CLASSIFICATION & COUNT OF STREAM SEGMENTS BASED ON SOURCE OF INFLOW:

                HEADWATER     DIVERSION     RECEIVES TRIBUTARY FLOW
                ---------     ---------     -----------------------
                     2              0               1



                    INPUT DATA FOR EACH STREAM SEGMENT
 ---------------------------------------------------------------------------------------------

 SEGMENT    SEG.     INFLOW   OVERLAND   STREAM    STREAM   ICALC  OUTFLOW  DIVERSION PRIORITY
    NO.    LENGTH     RATE     RUNOFF      ET       PPT.    METH.  TO SEG.  FROM SEG.    NO.

      1  4.400E+03 1.000E+05 0.000E+00 0.000E+00 0.000E+00    1        3        0        0
      2  1.800E+03 5.000E+04 0.000E+00 0.000E+00 0.000E+00    1        3        0        0
      3  1.800E+03 0.000E+00 0.000E+00 0.000E+00 0.000E+00    1        0        0        0


         STREAMBED PROPERTIES AND STREAM DIMENSIONS

 SEGMENT     BED HYD. COND.      BED THICKNESS     ELEV.-TOP OF BED     WIDTH OF STREAM     DEPTH OF STREAM    STREAM ROUGHNESS
    No.     UPPER     LOWER     UPPER     LOWER     UPPER     LOWER     UPPER     LOWER     UPPER     LOWER   CHANNEL      BANK

     1  5.000E+00 5.000E+00 1.000E+00 1.000E+00 4.850E+01 3.800E+01 2.000E+01 2.000E+01                     5.000E-02
     2  5.000E+00 5.000E+00 1.000E+00 1.000E+00 4.025E+01 3.800E+01 2.000E+01 2.000E+01                     5.000E-02
     3  5.000E+00 5.000E+00 1.000E+00 1.000E+00 3.800E+01 3.000E+01 2.000E+01 2.000E+01                     5.000E-02



 
 SOLVING FOR HEAD 


     9 CALLS TO PCG ROUTINE FOR TIME STEP   1 IN STRESS PERIOD    1
    36 TOTAL ITERATIONS

 OUTPUT CONTROL FOR STRESS PERIOD    1   TIME STEP    1
    SAVE BUDGET
    SAVE HEAD FOR ALL LAYERS
    PRINT HEAD FOR ALL LAYERS
 UBDSV2 SAVING "STREAMFLOW OUT  " ON UNIT  50 AT TIME STEP  1, STRESS PERIOD   1



 STREAM LISTING     PERIOD      1   STEP        1

 LAYER ROW COL. STREAM  RCH.  FLOW INTO     FLOW TO   FLOW OUT OF   OVRLND.     DIRECT     STREAM       STREAM     STREAM     STREAM   STREAMBED  STREAMBED
                SEG.NO.  NO.  STRM. RCH.    AQUIFER    STRM. RCH.    RUNOFF     PRECIP       ET          HEAD       DEPTH      WIDTH   CONDCTNC.   GRADIENT

   1   13    1     1     1    1.0000E+05 -6.0995E+03   1.0610E+05  0.000E+00  0.000E+00  0.000E+00  4.84086E+01  1.473E-01  2.000E+01  2.000E+04 -3.050E-01
   1   13    2     1     2    1.0610E+05 -7.5663E+03   1.1367E+05  0.000E+00  0.000E+00  0.000E+00  4.79372E+01  1.531E-01  2.000E+01  2.000E+04 -3.783E-01
   1   14    3     1     3    1.1367E+05 -2.1803E+03   1.1585E+05  0.000E+00  0.000E+00  0.000E+00  4.74639E+01  1.571E-01  2.000E+01  2.000E+04 -1.090E-01
   1   15    4     1     4    1.1585E+05 -2.2175E+03   1.1806E+05  0.000E+00  0.000E+00  0.000E+00  4.69884E+01  1.589E-01  2.000E+01  2.000E+04 -1.109E-01
   1   16    5     1     5    1.1806E+05 -6.9342E+03   1.2500E+05  0.000E+00  0.000E+00  0.000E+00  4.65149E+01  1.626E-01  2.000E+01  2.000E+04 -3.467E-01
   1   16    6     1     6    1.2500E+05 -3.9036E+03   1.2890E+05  0.000E+00  0.000E+00  0.000E+00  4.60419E+01  1.669E-01  2.000E+01  2.000E+04 -1.952E-01
   1   16    7     1     7    1.2890E+05 -3.0252E+03   1.3193E+05  0.000E+00  0.000E+00  0.000E+00  4.55674E+01  1.696E-01  2.000E+01  2.000E+04 -1.513E-01
   1   16    8     1     8    1.3193E+05 -3.5027E+03   1.3543E+05  0.000E+00  0.000E+00  0.000E+00  4.50926E+01  1.722E-01  2.000E+01  2.000E+04 -1.751E-01
   1   16    9     1     9    1.3543E+05 -3.4795E+03   1.3891E+05  0.000E+00  0.000E+00  0.000E+00  4.46180E+01  1.749E-01  2.000E+01  2.000E+04 -1.740E-01
   1   16   10     1    10    1.3891E+05 -3.2964E+03   1.4221E+05  0.000E+00  0.000E+00  0.000E+00  4.41433E+01  1.774E-01  2.000E+01  2.000E+04 -1.648E-01
   1   16   11     1    11    1.4221E+05 -3.1693E+03   1.4537E+05  0.000E+00  0.000E+00  0.000E+00  4.36685E+01  1.799E-01  2.000E+01  2.000E+04 -1.585E-01
   1   16   12     1    12    1.4537E+05 -5.9889E+03   1.5136E+05  0.000E+00  0.000E+00  0.000E+00  4.31947E+01  1.833E-01  2.000E+01  2.000E+04 -2.994E-01
   1   15   13     1    13    1.5136E+05 -6.9959E+03   1.5836E+05  0.000E+00  0.000E+00  0.000E+00  4.27221E+01  1.881E-01  2.000E+01  2.000E+04 -3.498E-01
   1   14   14     1    14    1.5836E+05 -7.6979E+03   1.6606E+05  0.000E+00  0.000E+00  0.000E+00  4.22502E+01  1.934E-01  2.000E+01  2.000E+04 -3.849E-01
   1   13   15     1    15    1.6606E+05 -8.1400E+03   1.7420E+05  0.000E+00  0.000E+00  0.000E+00  4.17785E+01  1.990E-01  2.000E+01  2.000E+04 -4.070E-01
   1   12   16     1    16    1.7420E+05 -8.8716E+03   1.8307E+05  0.000E+00  0.000E+00  0.000E+00  4.13072E+01  2.049E-01  2.000E+01  2.000E+04 -4.436E-01
   1   12   17     1    17    1.8307E+05 -6.3043E+03   1.8937E+05  0.000E+00  0.000E+00  0.000E+00  4.08351E+01  2.101E-01  2.000E+01  2.000E+04 -3.152E-01
   1   12   18     1    18    1.8937E+05 -6.1541E+03   1.9553E+05  0.000E+00  0.000E+00  0.000E+00  4.03620E+01  2.142E-01  2.000E+01  2.000E+04 -3.077E-01
   1   12   19     1    19    1.9553E+05 -7.7591E+03   2.0329E+05  0.000E+00  0.000E+00  0.000E+00  3.98893E+01  2.189E-01  2.000E+01  2.000E+04 -3.880E-01
   1   13   20     1    20    2.0329E+05 -6.8319E+03   2.1012E+05  0.000E+00  0.000E+00  0.000E+00  3.94168E+01  2.236E-01  2.000E+01  2.000E+04 -3.416E-01
   1   14   21     1    21    2.1012E+05 -6.3886E+03   2.1651E+05  0.000E+00  0.000E+00  0.000E+00  3.89438E+01  2.279E-01  2.000E+01  2.000E+04 -3.194E-01
   1   14   22     1    22    2.1651E+05  3.7492E+03   2.1276E+05  0.000E+00  0.000E+00  0.000E+00  3.84674E+01  2.287E-01  2.000E+01  2.000E+04  1.875E-01
   1    9   30     2     1    5.0000E+04 -4.2047E+03   5.4205E+04  0.000E+00  0.000E+00  0.000E+00  4.02438E+01  1.188E-01  2.000E+01  2.000E+04 -2.102E-01
   1    9   29     2     2    5.4205E+04 -4.4459E+03   5.8651E+04  0.000E+00  0.000E+00  0.000E+00  3.99996E+01  1.246E-01  2.000E+01  2.000E+04 -2.223E-01
   1    9   28     2     3    5.8651E+04 -4.6552E+03   6.3306E+04  0.000E+00  0.000E+00  0.000E+00  3.97555E+01  1.305E-01  2.000E+01  2.000E+04 -2.328E-01
   1    9   27     2     4    6.3306E+04 -7.5326E+03   7.0838E+04  0.000E+00  0.000E+00  0.000E+00  3.95132E+01  1.382E-01  2.000E+01  2.000E+04 -3.766E-01
   1   10   26     2     5    7.0838E+04 -4.3214E+03   7.5160E+04  0.000E+00  0.000E+00  0.000E+00  3.92704E+01  1.454E-01  2.000E+01  2.000E+04 -2.161E-01
   1   11   25     2     6    7.5160E+04 -2.2107E+03   7.7371E+04  0.000E+00  0.000E+00  0.000E+00  3.90243E+01  1.493E-01  2.000E+01  2.000E+04 -1.105E-01
   1   12   24     2     7    7.7371E+04 -3.8679E+03   8.1238E+04  0.000E+00  0.000E+00  0.000E+00  3.87778E+01  1.528E-01  2.000E+01  2.000E+04 -1.934E-01
   1   13   23     2     8    8.1238E+04 -1.6032E+03   8.2842E+04  0.000E+00  0.000E+00  0.000E+00  3.85310E+01  1.560E-01  2.000E+01  2.000E+04 -8.016E-02
   1   14   22     2     9    8.2842E+04  3.8526E+01   8.2803E+04  0.000E+00  0.000E+00  0.000E+00  3.82818E+01  1.568E-01  2.000E+01  2.000E+04  1.926E-03
   1   14   22     3     1    2.9556E+05 -9.8418E+03   3.0540E+05  0.000E+00  0.000E+00  0.000E+00  3.77878E+01  2.323E-01  2.000E+01  2.000E+04 -4.921E-01
   1   15   23     3     2    3.0540E+05 -1.9752E+03   3.0738E+05  0.000E+00  0.000E+00  0.000E+00  3.69017E+01  2.350E-01  2.000E+01  2.000E+04 -9.876E-02
   1   15   24     3     3    3.0738E+05 -1.4986E+03   3.0888E+05  0.000E+00  0.000E+00  0.000E+00  3.60136E+01  2.358E-01  2.000E+01  2.000E+04 -7.493E-02
   1   15   25     3     4    3.0888E+05 -1.4936E+03   3.1037E+05  0.000E+00  0.000E+00  0.000E+00  3.51254E+01  2.365E-01  2.000E+01  2.000E+04 -7.468E-02
   1   15   26     3     5    3.1037E+05 -1.4951E+03   3.1187E+05  0.000E+00  0.000E+00  0.000E+00  3.42372E+01  2.372E-01  2.000E+01  2.000E+04 -7.476E-02
   1   16   27     3     6    3.1187E+05 -1.5415E+03   3.1341E+05  0.000E+00  0.000E+00  0.000E+00  3.33490E+01  2.379E-01  2.000E+01  2.000E+04 -7.708E-02
   1   17   28     3     7    3.1341E+05 -3.8964E+03   3.1730E+05  0.000E+00  0.000E+00  0.000E+00  3.24613E+01  2.391E-01  2.000E+01  2.000E+04 -1.948E-01
   1   18   29     3     8    3.1730E+05 -7.3247E+03   3.2463E+05  0.000E+00  0.000E+00  0.000E+00  3.15750E+01  2.416E-01  2.000E+01  2.000E+04 -3.662E-01
   1   18   30     3     9    3.2463E+05 -6.4426E+03   3.3107E+05  0.000E+00  0.000E+00  0.000E+00  3.06892E+01  2.447E-01  2.000E+01  2.000E+04 -3.221E-01



1
              HEAD IN LAYER   1 AT END OF TIME STEP   1 IN STRESS PERIOD    1
  ---------------------------------------------------------------------------

          1      2      3      4      5      6      7      8      9     10
         11     12     13     14     15     16     17     18     19     20
         21     22     23     24     25     26     27     28     29     30
 .........................................................................
   1  ****** ****** ****** ****** ****** ****** ****** ****** ****** ******
      ****** ****** ****** ****** ****** ****** ****** ****** ****** ******
      ****** ****** ****** ****** ****** ****** ****** ****** ****** ******
   2  ****** ****** ****** ****** ****** ****** ****** ****** ****** ******
      ****** ****** ****** ****** ****** ****** ****** ****** ****** ******
      ****** ****** ****** ****** ****** ****** ****** ****** ****** ******
   3  ****** ****** ****** ****** ****** ****** ****** ****** ****** ******
      ****** ****** ****** ****** ****** ****** ****** ****** ****** ******
      ****** ****** ****** ****** ****** ****** ****** ****** ****** ******
   4  ****** ****** ****** ****** ****** ****** ****** ****** ****** ******
      ****** ****** ****** ****** ****** ****** ****** ****** ****** ******
      ****** ****** ****** ****** ****** ****** ****** ****** ****** ******
   5  ****** ****** ****** ****** ****** ****** ****** ****** ****** ******
      ****** ****** ****** ****** ****** ****** ****** ****** ****** ******
      ****** ****** ****** ****** ****** ****** ****** ****** ****** ******
   6  ****** ****** ****** ****** ****** ****** ****** ****** ****** ******
      ****** ****** ****** ****** ****** ****** ****** ****** ****** ******
      ****** ****** ****** ****** ****** ****** ****** ****** ****** ******
   7  ****** ****** ****** ****** ****** ****** ****** ****** ****** ******
      ****** ****** ****** ****** ****** ****** ****** ****** ****** ******
      ****** ****** ****** ****** ****** ****** ****** ****** ****** ******
   8  ****** ****** ****** ****** ****** ****** ****** ****** ****** ******
      ****** ****** ****** ****** ****** ****** ****** ****** ****** ******
      ****** ****** ****** ****** ****** ****** ****** ****** ****** ******
   9  ****** ****** ****** ****** ****** ****** ****** ****** ****** ******
      ****** ****** ****** ****** ****** ****** ****** ****** ****** ******
      ****** ****** ****** ****** ****** ****** ****** ****** ****** ******
  10  ****** ****** ****** ****** ****** ****** ****** ****** ****** ******
      ****** ****** ****** ****** ****** ****** ****** ****** ****** ******
      ****** ****** ****** ****** ****** ****** ****** ****** ****** ******
  11  ****** ****** ****** ****** ****** ****** ****** ****** ****** ******
      ****** ****** ****** ****** ****** ****** ****** ****** ****** ******
      ****** ****** ****** ****** ****** ****** ****** ****** ****** ******
  12  ****** ****** ****** ****** ****** ****** ****** ****** ****** ******
      ****** ****** ****** ****** ****** ****** ****** ****** ****** ******
      ****** ****** ****** ****** ****** ****** ****** ****** ****** ******
  13  ****** ****** ****** ****** ****** ****** ****** ****** ****** ******
      ****** ****** ****** ****** ****** ****** ****** ****** ****** ******
      ****** ****** ****** ****** ****** ****** ****** ****** ****** ******
  14  ****** ****** ****** ****** ****** ****** ****** ****** ****** ******
      ****** ****** ****** ****** ****** ****** ****** ****** ****** ******
      ****** ****** ****** ****** ****** ****** ****** ****** ****** ******
  15  ****** ****** ****** ****** ****** ****** ****** ****** ****** ******
      ****** ****** ****** ****** ****** ****** ****** ****** ****** ******
      ****** ****** ****** ****** ****** ****** ****** ****** ****** ******
  16  ****** ****** ****** ****** ****** ****** ****** ****** ****** ******
      ****** ****** ****** ****** ****** ****** ****** ****** ****** ******
      ****** ****** ****** ****** ****** ****** ****** ****** ****** ******
  17  ****** ****** ****** ****** ****** ****** ****** ****** ****** ******
      ****** ****** ****** ****** ****** ****** ****** ****** ****** ******
      ****** ****** ****** ****** ****** ****** ****** ****** ****** ******
  18  ****** ****** ****** ****** ****** ****** ****** ****** ****** ******
      ****** ****** ****** ****** ****** ****** ****** ****** ****** ******
      ****** ****** ****** ****** ****** ****** ****** ****** ****** ******
  19  ****** ****** ****** ****** ****** ****** ****** ****** ****** ******
      ****** ****** ****** ****** ****** ****** ****** ****** ****** ******
      ****** ****** ****** ****** ****** ****** ****** ****** ****** ******
  20  ****** ****** ****** ****** ****** ****** ****** ****** ****** ******
      ****** ****** ****** ****** ****** ****** ****** ****** ****** ******
      ****** ****** ****** ****** ****** ****** ****** ****** ****** ******
  21  ****** ****** ****** ****** ****** ****** ****** ****** ****** ******
      ****** ****** ****** ****** ****** ****** ****** ****** ****** ******
      ****** ****** ****** ****** ****** ****** ****** ****** ****** ******
  22  ****** ****** ****** ****** ****** ****** ****** ****** ****** ******
      ****** ****** ****** ****** ****** ****** ****** ****** ****** ******
      ****** ****** ****** ****** ****** ****** ****** ****** ****** ******
  23  ****** ****** ****** ****** ****** ****** ****** ****** ****** ******
      ****** ****** ****** ****** ****** ****** ****** ****** ****** ******
      ****** ****** ****** ****** ****** ****** ****** ****** ****** ******
  24  ****** ****** ****** ****** ****** ****** ****** ****** ****** ******
      ****** ****** ****** ****** ****** ****** ****** ****** ****** ******
      ****** ****** ****** ****** ****** ****** ****** ****** ****** ******
  25  ****** ****** ****** ****** ****** ****** ****** ****** ****** ******
      ****** ****** ****** ****** ****** ****** ****** ****** ****** ******
      ****** ****** ****** ****** ****** ****** ****** ****** ****** ******

 HEAD WILL BE SAVED ON UNIT   51 AT END OF TIME STEP    1, STRESS PERIOD    1
1
  VOLUMETRIC BUDGET FOR ENTIRE MODEL AT END OF TIME STEP    1, STRESS PERIOD   1
  ------------------------------------------------------------------------------

     CUMULATIVE VOLUMES      L**3       RATES FOR THIS TIME STEP      L**3/T
     ------------------                 ------------------------

           IN:                                      IN:
           ---                                      ---
             STORAGE =    17437827.5484               STORAGE =      189541.6038
       CONSTANT HEAD =     1119759.6411         CONSTANT HEAD =       12171.3004
               WELLS =           0.0000                 WELLS =           0.0000
            RECHARGE =     1269600.0000              RECHARGE =       13800.0000
      STREAM LEAKAGE =      348472.1991        STREAM LEAKAGE =        3787.7413

            TOTAL IN =    20175659.3885              TOTAL IN =      219300.6455

          OUT:                                     OUT:
          ----                                     ----
             STORAGE =           0.0000               STORAGE =           0.0000
       CONSTANT HEAD =           0.0000         CONSTANT HEAD =           0.0000
               WELLS =     3168692.1090                 WELLS =       34442.3055
            RECHARGE =           0.0000              RECHARGE =           0.0000
      STREAM LEAKAGE =    17006967.5761        STREAM LEAKAGE =      184858.3432

           TOTAL OUT =    20175659.6851             TOTAL OUT =      219300.6488

            IN - OUT =          -0.2966              IN - OUT =      -3.2237E-03

 PERCENT DISCREPANCY =          -0.00     PERCENT DISCREPANCY =          -0.00






         TIME SUMMARY AT END OF TIME STEP    1 IN STRESS PERIOD    1
                    SECONDS     MINUTES      HOURS       DAYS        YEARS
                    -----------------------------------------------------------
   TIME STEP LENGTH 7.94880E+06 1.32480E+05  2208.0      92.000     0.25188    
 STRESS PERIOD TIME 7.94880E+06 1.32480E+05  2208.0      92.000     0.25188    
         TOTAL TIME 7.94880E+06 1.32480E+05  2208.0      92.000     0.25188    
1
1
                            STRESS PERIOD NO.    2, LENGTH =   91.00000    
                            -----------------------------------------------

                              NUMBER OF TIME STEPS =     1

                               MULTIPLIER FOR DELT =     1.500

                            INITIAL TIME STEP SIZE =   91.00000    

 WELL NO.  LAYER   ROW   COL   STRESS RATE         
 --------------------------------------------------
      1      1     19     11     -0.1013E+05
      2      1     15     28      -7561.    
      3      1     15      7      -2227.    
      4      1     12     26     -0.1452E+05

      4 WELLS

                 RECHARGE =  2.000000E-03

 REUSING STREAM SEGMENT DATA FROM LAST STRESS PERIOD
 
 SOLVING FOR HEAD 


     7 CALLS TO PCG ROUTINE FOR TIME STEP   1 IN STRESS PERIOD    2
    27 TOTAL ITERATIONS

 OUTPUT CONTROL FOR STRESS PERIOD    2   TIME STEP    1
    SAVE BUDGET
    SAVE HEAD FOR ALL LAYERS
    PRINT HEAD FOR ALL LAYERS
 UBDSV2 SAVING "STREAMFLOW OUT  " ON UNIT  50 AT TIME STEP  1, STRESS PERIOD   2



 STREAM LISTING     PERIOD      2   STEP        1

 LAYER ROW COL. STREAM  RCH.  FLOW INTO     FLOW TO   FLOW OUT OF   OVRLND.     DIRECT     STREAM       STREAM     STREAM     STREAM   STREAMBED  STREAMBED
                SEG.NO.  NO.  STRM. RCH.    AQUIFER    STRM. RCH.    RUNOFF     PRECIP       ET          HEAD       DEPTH      WIDTH   CONDCTNC.   GRADIENT

   1   13    1     1     1    1.0000E+05 -3.9639E+03   1.0396E+05  0.000E+00  0.000E+00  0.000E+00  4.84077E+01  1.464E-01  2.000E+01  2.000E+04 -1.982E-01
   1   13    2     1     2    1.0396E+05 -5.2199E+03   1.0918E+05  0.000E+00  0.000E+00  0.000E+00  4.79344E+01  1.503E-01  2.000E+01  2.000E+04 -2.610E-01
   1   14    3     1     3    1.0918E+05 -1.0802E+03   1.1026E+05  0.000E+00  0.000E+00  0.000E+00  4.74598E+01  1.529E-01  2.000E+01  2.000E+04 -5.401E-02
   1   15    4     1     4    1.1026E+05 -1.0579E+03   1.1132E+05  0.000E+00  0.000E+00  0.000E+00  4.69834E+01  1.538E-01  2.000E+01  2.000E+04 -5.289E-02
   1   16    5     1     5    1.1132E+05 -3.8443E+03   1.1517E+05  0.000E+00  0.000E+00  0.000E+00  4.65081E+01  1.559E-01  2.000E+01  2.000E+04 -1.922E-01
   1   16    6     1     6    1.1517E+05 -1.9565E+03   1.1712E+05  0.000E+00  0.000E+00  0.000E+00  4.60332E+01  1.582E-01  2.000E+01  2.000E+04 -9.783E-02
   1   16    7     1     7    1.1712E+05 -1.0791E+03   1.1820E+05  0.000E+00  0.000E+00  0.000E+00  4.55572E+01  1.595E-01  2.000E+01  2.000E+04 -5.395E-02
   1   16    8     1     8    1.1820E+05 -1.6017E+03   1.1980E+05  0.000E+00  0.000E+00  0.000E+00  4.50810E+01  1.606E-01  2.000E+01  2.000E+04 -8.009E-02
   1   16    9     1     9    1.1980E+05 -1.5767E+03   1.2138E+05  0.000E+00  0.000E+00  0.000E+00  4.46050E+01  1.619E-01  2.000E+01  2.000E+04 -7.884E-02
   1   16   10     1    10    1.2138E+05 -1.3633E+03   1.2274E+05  0.000E+00  0.000E+00  0.000E+00  4.41289E+01  1.630E-01  2.000E+01  2.000E+04 -6.817E-02
   1   16   11     1    11    1.2274E+05 -1.1973E+03   1.2394E+05  0.000E+00  0.000E+00  0.000E+00  4.36527E+01  1.641E-01  2.000E+01  2.000E+04 -5.986E-02
   1   16   12     1    12    1.2394E+05 -2.8497E+03   1.2679E+05  0.000E+00  0.000E+00  0.000E+00  4.31770E+01  1.657E-01  2.000E+01  2.000E+04 -1.425E-01
   1   15   13     1    13    1.2679E+05 -3.6668E+03   1.3046E+05  0.000E+00  0.000E+00  0.000E+00  4.27023E+01  1.682E-01  2.000E+01  2.000E+04 -1.833E-01
   1   14   14     1    14    1.3046E+05 -4.3244E+03   1.3478E+05  0.000E+00  0.000E+00  0.000E+00  4.22282E+01  1.714E-01  2.000E+01  2.000E+04 -2.162E-01
   1   13   15     1    15    1.3478E+05 -4.8227E+03   1.3960E+05  0.000E+00  0.000E+00  0.000E+00  4.17544E+01  1.749E-01  2.000E+01  2.000E+04 -2.411E-01
   1   12   16     1    16    1.3960E+05 -5.8033E+03   1.4541E+05  0.000E+00  0.000E+00  0.000E+00  4.12812E+01  1.789E-01  2.000E+01  2.000E+04 -2.902E-01
   1   12   17     1    17    1.4541E+05 -3.8557E+03   1.4926E+05  0.000E+00  0.000E+00  0.000E+00  4.08075E+01  1.825E-01  2.000E+01  2.000E+04 -1.928E-01
   1   12   18     1    18    1.4926E+05 -3.7022E+03   1.5297E+05  0.000E+00  0.000E+00  0.000E+00  4.03330E+01  1.853E-01  2.000E+01  2.000E+04 -1.851E-01
   1   12   19     1    19    1.5297E+05 -4.7164E+03   1.5768E+05  0.000E+00  0.000E+00  0.000E+00  3.98588E+01  1.884E-01  2.000E+01  2.000E+04 -2.358E-01
   1   13   20     1    20    1.5768E+05 -3.7565E+03   1.6144E+05  0.000E+00  0.000E+00  0.000E+00  3.93846E+01  1.915E-01  2.000E+01  2.000E+04 -1.878E-01
   1   14   21     1    21    1.6144E+05 -3.6655E+03   1.6510E+05  0.000E+00  0.000E+00  0.000E+00  3.89100E+01  1.941E-01  2.000E+01  2.000E+04 -1.833E-01
   1   14   22     1    22    1.6510E+05  4.5244E+03   1.6058E+05  0.000E+00  0.000E+00  0.000E+00  3.84324E+01  1.938E-01  2.000E+01  2.000E+04  2.262E-01
   1    9   30     2     1    5.0000E+04 -1.2958E+03   5.1296E+04  0.000E+00  0.000E+00  0.000E+00  4.02418E+01  1.168E-01  2.000E+01  2.000E+04 -6.479E-02
   1    9   29     2     2    5.1296E+04 -1.5562E+03   5.2852E+04  0.000E+00  0.000E+00  0.000E+00  3.99937E+01  1.187E-01  2.000E+01  2.000E+04 -7.781E-02
   1    9   28     2     3    5.2852E+04 -1.8024E+03   5.4654E+04  0.000E+00  0.000E+00  0.000E+00  3.97460E+01  1.210E-01  2.000E+01  2.000E+04 -9.012E-02
   1    9   27     2     4    5.4654E+04 -3.9786E+03   5.8633E+04  0.000E+00  0.000E+00  0.000E+00  3.94999E+01  1.249E-01  2.000E+01  2.000E+04 -1.989E-01
   1   10   26     2     5    5.8633E+04 -4.2251E+02   5.9056E+04  0.000E+00  0.000E+00  0.000E+00  3.92528E+01  1.278E-01  2.000E+01  2.000E+04 -2.113E-02
   1   11   25     2     6    5.9056E+04  1.5874E+03   5.7468E+04  0.000E+00  0.000E+00  0.000E+00  3.90020E+01  1.270E-01  2.000E+01  2.000E+04  7.937E-02
   1   12   24     2     7    5.7468E+04 -6.0541E+02   5.8074E+04  0.000E+00  0.000E+00  0.000E+00  3.87514E+01  1.264E-01  2.000E+01  2.000E+04 -3.027E-02
   1   13   23     2     8    5.8074E+04 -5.4934E+02   5.8623E+04  0.000E+00  0.000E+00  0.000E+00  3.85021E+01  1.271E-01  2.000E+01  2.000E+04 -2.747E-02
   1   14   22     2     9    5.8623E+04  9.1292E+02   5.7710E+04  0.000E+00  0.000E+00  0.000E+00  3.82519E+01  1.269E-01  2.000E+01  2.000E+04  4.565E-02
   1   14   22     3     1    2.1829E+05 -9.1307E+03   2.2742E+05  0.000E+00  0.000E+00  0.000E+00  3.77497E+01  1.941E-01  2.000E+01  2.000E+04 -4.565E-01
   1   15   23     3     2    2.2742E+05 -1.0284E+03   2.2845E+05  0.000E+00  0.000E+00  0.000E+00  3.68634E+01  1.968E-01  2.000E+01  2.000E+04 -5.142E-02
   1   15   24     3     3    2.2845E+05 -6.1619E+02   2.2906E+05  0.000E+00  0.000E+00  0.000E+00  3.59750E+01  1.972E-01  2.000E+01  2.000E+04 -3.081E-02
   1   15   25     3     4    2.2906E+05 -5.4727E+02   2.2961E+05  0.000E+00  0.000E+00  0.000E+00  3.50864E+01  1.975E-01  2.000E+01  2.000E+04 -2.736E-02
   1   15   26     3     5    2.2961E+05 -2.6678E+02   2.2988E+05  0.000E+00  0.000E+00  0.000E+00  3.41977E+01  1.977E-01  2.000E+01  2.000E+04 -1.334E-02
   1   16   27     3     6    2.2988E+05 -1.5581E+02   2.3003E+05  0.000E+00  0.000E+00  0.000E+00  3.33089E+01  1.978E-01  2.000E+01  2.000E+04 -7.790E-03
   1   17   28     3     7    2.3003E+05 -9.8259E+01   2.3013E+05  0.000E+00  0.000E+00  0.000E+00  3.24201E+01  1.979E-01  2.000E+01  2.000E+04 -4.913E-03
   1   18   29     3     8    2.3013E+05 -4.2166E+03   2.3435E+05  0.000E+00  0.000E+00  0.000E+00  3.15323E+01  1.990E-01  2.000E+01  2.000E+04 -2.108E-01
   1   18   30     3     9    2.3435E+05 -3.7548E+03   2.3810E+05  0.000E+00  0.000E+00  0.000E+00  3.06455E+01  2.010E-01  2.000E+01  2.000E+04 -1.877E-01



1
              HEAD IN LAYER   1 AT END OF TIME STEP   1 IN STRESS PERIOD    2
  ---------------------------------------------------------------------------

          1      2      3      4      5      6      7      8      9     10
         11     12     13     14     15     16     17     18     19     20
         21     22     23     24     25     26     27     28     29     30
 .........................................................................
   1  ****** ****** ****** ****** ****** ****** ****** ****** ****** ******
      ****** ****** ****** ****** ****** ****** ****** ****** ****** ******
      ****** ****** ****** ****** ****** ****** ****** ****** ****** ******
   2  ****** ****** ****** ****** ****** ****** ****** ****** ****** ******
      ****** ****** ****** ****** ****** ****** ****** ****** ****** ******
      ****** ****** ****** ****** ****** ****** ****** ****** ****** ******
   3  ****** ****** ****** ****** ****** ****** ****** ****** ****** ******
      ****** ****** ****** ****** ****** ****** ****** ****** ****** ******
      ****** ****** ****** ****** ****** ****** ****** ****** ****** ******
   4  ****** ****** ****** ****** ****** ****** ****** ****** ****** ******
      ****** ****** ****** ****** ****** ****** ****** ****** ****** ******
      ****** ****** ****** ****** ****** ****** ****** ****** ****** ******
   5  ****** ****** ****** ****** ****** ****** ****** ****** ****** ******
      ****** ****** ****** ****** ****** ****** ****** ****** ****** ******
      ****** ****** ****** ****** ****** ****** ****** ****** ****** ******
   6  ****** ****** ****** ****** ****** ****** ****** ****** ****** ******
      ****** ****** ****** ****** ****** ****** ****** ****** ****** ******
      ****** ****** ****** ****** ****** ****** ****** ****** ****** ******
   7  ****** ****** ****** ****** ****** ****** ****** ****** ****** ******
      ****** ****** ****** ****** ****** ****** ****** ****** ****** ******
      ****** ****** ****** ****** ****** ****** ****** ****** ****** ******
   8  ****** ****** ****** ****** ****** ****** ****** ****** ****** ******
      ****** ****** ****** ****** ****** ****** ****** ****** ****** ******
      ****** ****** ****** ****** ****** ****** ****** ****** ****** ******
   9  ****** ****** ****** ****** ****** ****** ****** ****** ****** ******
      ****** ****** ****** ****** ****** ****** ****** ****** ****** ******
      ****** ****** ****** ****** ****** ****** ****** ****** ****** ******
  10  ****** ****** ****** ****** ****** ****** ****** ****** ****** ******
      ****** ****** ****** ****** ****** ****** ****** ****** ****** ******
      ****** ****** ****** ****** ****** ****** ****** ****** ****** ******
  11  ****** ****** ****** ****** ****** ****** ****** ****** ****** ******
      ****** ****** ****** ****** ****** ****** ****** ****** ****** ******
      ****** ****** ****** ****** ****** ****** ****** ****** ****** ******
  12  ****** ****** ****** ****** ****** ****** ****** ****** ****** ******
      ****** ****** ****** ****** ****** ****** ****** ****** ****** ******
      ****** ****** ****** ****** ****** ****** ****** ****** ****** ******
  13  ****** ****** ****** ****** ****** ****** ****** ****** ****** ******
      ****** ****** ****** ****** ****** ****** ****** ****** ****** ******
      ****** ****** ****** ****** ****** ****** ****** ****** ****** ******
  14  ****** ****** ****** ****** ****** ****** ****** ****** ****** ******
      ****** ****** ****** ****** ****** ****** ****** ****** ****** ******
      ****** ****** ****** ****** ****** ****** ****** ****** ****** ******
  15  ****** ****** ****** ****** ****** ****** ****** ****** ****** ******
      ****** ****** ****** ****** ****** ****** ****** ****** ****** ******
      ****** ****** ****** ****** ****** ****** ****** ****** ****** ******
  16  ****** ****** ****** ****** ****** ****** ****** ****** ****** ******
      ****** ****** ****** ****** ****** ****** ****** ****** ****** ******
      ****** ****** ****** ****** ****** ****** ****** ****** ****** ******
  17  ****** ****** ****** ****** ****** ****** ****** ****** ****** ******
      ****** ****** ****** ****** ****** ****** ****** ****** ****** ******
      ****** ****** ****** ****** ****** ****** ****** ****** ****** ******
  18  ****** ****** ****** ****** ****** ****** ****** ****** ****** ******
      ****** ****** ****** ****** ****** ****** ****** ****** ****** ******
      ****** ****** ****** ****** ****** ****** ****** ****** ****** ******
  19  ****** ****** ****** ****** ****** ****** ****** ****** ****** ******
      ****** ****** ****** ****** ****** ****** ****** ****** ****** ******
      ****** ****** ****** ****** ****** ****** ****** ****** ****** ******
  20  ****** ****** ****** ****** ****** ****** ****** ****** ****** ******
      ****** ****** ****** ****** ****** ****** ****** ****** ****** ******
      ****** ****** ****** ****** ****** ****** ****** ****** ****** ******
  21  ****** ****** ****** ****** ****** ****** ****** ****** ****** ******
      ****** ****** ****** ****** ****** ****** ****** ****** ****** ******
      ****** ****** ****** ****** ****** ****** ****** ****** ****** ******
  22  ****** ****** ****** ****** ****** ****** ****** ****** ****** ******
      ****** ****** ****** ****** ****** ****** ****** ****** ****** ******
      ****** ****** ****** ****** ****** ****** ****** ****** ****** ******
  23  ****** ****** ****** ****** ****** ****** ****** ****** ****** ******
      ****** ****** ****** ****** ****** ****** ****** ****** ****** ******
      ****** ****** ****** ****** ****** ****** ****** ****** ****** ******
  24  ****** ****** ****** ****** ****** ****** ****** ****** ****** ******
      ****** ****** ****** ****** ****** ****** ****** ****** ****** ******
      ****** ****** ****** ****** ****** ****** ****** ****** ****** ******
  25  ****** ****** ****** ****** ****** ****** ****** ****** ****** ******
      ****** ****** ****** ****** ****** ****** ****** ****** ****** ******
      ****** ****** ****** ****** ****** ****** ****** ****** ****** ******

 HEAD WILL BE SAVED ON UNIT   51 AT END OF TIME STEP    1, STRESS PERIOD    2
1
  VOLUMETRIC BUDGET FOR ENTIRE MODEL AT END OF TIME STEP    1, STRESS PERIOD   2
  ------------------------------------------------------------------------------

     CUMULATIVE VOLUMES      L**3       RATES FOR THIS TIME STEP      L**3/T
     ------------------                 ------------------------

           IN:                                      IN:
           ---                                      ---
             STORAGE =    22082117.1252               STORAGE =       51036.1492
       CONSTANT HEAD =     2604008.9123         CONSTANT HEAD =       16310.4316
               WELLS =           0.0000                 WELLS =           0.0000
            RECHARGE =     6292800.0000              RECHARGE =       55200.0000
      STREAM LEAKAGE =      987721.5333        STREAM LEAKAGE =        7024.7180

            TOTAL IN =    31966647.5709              TOTAL IN =      129571.2987

          OUT:                                     OUT:
          ----                                     ----
             STORAGE =           0.0000               STORAGE =           0.0000
       CONSTANT HEAD =           0.0000         CONSTANT HEAD =           0.0000
               WELLS =     6302941.9125                 WELLS =       34442.3055
            RECHARGE =           0.0000              RECHARGE =           0.0000
      STREAM LEAKAGE =    25663706.9465        STREAM LEAKAGE =       95129.0041

           TOTAL OUT =    31966648.8590             TOTAL OUT =      129571.3096

            IN - OUT =          -1.2881              IN - OUT =      -1.0896E-02

 PERCENT DISCREPANCY =          -0.00     PERCENT DISCREPANCY =          -0.00






         TIME SUMMARY AT END OF TIME STEP    1 IN STRESS PERIOD    2
                    SECONDS     MINUTES      HOURS       DAYS        YEARS
                    -----------------------------------------------------------
   TIME STEP LENGTH 7.86240E+06 1.31040E+05  2184.0      91.000     0.24914    
 STRESS PERIOD TIME 7.86240E+06 1.31040E+05  2184.0      91.000     0.24914    
         TOTAL TIME 1.58112E+07 2.63520E+05  4392.0      183.00     0.50103    
1
1
                            STRESS PERIOD NO.    3, LENGTH =   91.00000    
                            -----------------------------------------------

                              NUMBER OF TIME STEPS =     1

                               MULTIPLIER FOR DELT =     1.500

                            INITIAL TIME STEP SIZE =   91.00000    

 WELL NO.  LAYER   ROW   COL   STRESS RATE         
 --------------------------------------------------
      1      1     19     11     -0.1013E+05
      2      1     15     28      -7561.    
      3      1     15      7      -2227.    
      4      1     12     26     -0.1452E+05

      4 WELLS

                 RECHARGE =   0.00000    

 REUSING STREAM SEGMENT DATA FROM LAST STRESS PERIOD
 
 SOLVING FOR HEAD 


     7 CALLS TO PCG ROUTINE FOR TIME STEP   1 IN STRESS PERIOD    3
    27 TOTAL ITERATIONS

 OUTPUT CONTROL FOR STRESS PERIOD    3   TIME STEP    1
    SAVE BUDGET
    SAVE HEAD FOR ALL LAYERS
    PRINT HEAD FOR ALL LAYERS
 UBDSV2 SAVING "STREAMFLOW OUT  " ON UNIT  50 AT TIME STEP  1, STRESS PERIOD   3



 STREAM LISTING     PERIOD      3   STEP        1

 LAYER ROW COL. STREAM  RCH.  FLOW INTO     FLOW TO   FLOW OUT OF   OVRLND.     DIRECT     STREAM       STREAM     STREAM     STREAM   STREAMBED  STREAMBED
                SEG.NO.  NO.  STRM. RCH.    AQUIFER    STRM. RCH.    RUNOFF     PRECIP       ET          HEAD       DEPTH      WIDTH   CONDCTNC.   GRADIENT

   1   13    1     1     1    1.0000E+05 -2.7067E+03   1.0271E+05  0.000E+00  0.000E+00  0.000E+00  4.84072E+01  1.458E-01  2.000E+01  2.000E+04 -1.353E-01
   1   13    2     1     2    1.0271E+05 -3.8073E+03   1.0651E+05  0.000E+00  0.000E+00  0.000E+00  4.79327E+01  1.486E-01  2.000E+01  2.000E+04 -1.904E-01
   1   14    3     1     3    1.0651E+05 -6.0891E+02   1.0712E+05  0.000E+00  0.000E+00  0.000E+00  4.74573E+01  1.505E-01  2.000E+01  2.000E+04 -3.045E-02
   1   15    4     1     4    1.0712E+05 -5.3588E+02   1.0766E+05  0.000E+00  0.000E+00  0.000E+00  4.69805E+01  1.510E-01  2.000E+01  2.000E+04 -2.679E-02
   1   16    5     1     5    1.0766E+05 -1.9684E+03   1.0963E+05  0.000E+00  0.000E+00  0.000E+00  4.65043E+01  1.520E-01  2.000E+01  2.000E+04 -9.842E-02
   1   16    6     1     6    1.0963E+05 -8.9557E+02   1.1052E+05  0.000E+00  0.000E+00  0.000E+00  4.60282E+01  1.532E-01  2.000E+01  2.000E+04 -4.478E-02
   1   16    7     1     7    1.1052E+05 -6.9293E+01   1.1059E+05  0.000E+00  0.000E+00  0.000E+00  4.55514E+01  1.536E-01  2.000E+01  2.000E+04 -3.465E-03
   1   16    8     1     8    1.1059E+05 -6.1306E+02   1.1121E+05  0.000E+00  0.000E+00  0.000E+00  4.50744E+01  1.539E-01  2.000E+01  2.000E+04 -3.065E-02
   1   16    9     1     9    1.1121E+05 -5.9605E+02   1.1180E+05  0.000E+00  0.000E+00  0.000E+00  4.45976E+01  1.544E-01  2.000E+01  2.000E+04 -2.980E-02
   1   16   10     1    10    1.1180E+05 -3.8509E+02   1.1219E+05  0.000E+00  0.000E+00  0.000E+00  4.41207E+01  1.548E-01  2.000E+01  2.000E+04 -1.925E-02
   1   16   11     1    11    1.1219E+05 -2.1375E+02   1.1240E+05  0.000E+00  0.000E+00  0.000E+00  4.36437E+01  1.551E-01  2.000E+01  2.000E+04 -1.069E-02
   1   16   12     1    12    1.1240E+05 -1.1601E+03   1.1356E+05  0.000E+00  0.000E+00  0.000E+00  4.31670E+01  1.556E-01  2.000E+01  2.000E+04 -5.800E-02
   1   15   13     1    13    1.1356E+05 -1.9844E+03   1.1554E+05  0.000E+00  0.000E+00  0.000E+00  4.26910E+01  1.569E-01  2.000E+01  2.000E+04 -9.922E-02
   1   14   14     1    14    1.1554E+05 -2.6217E+03   1.1817E+05  0.000E+00  0.000E+00  0.000E+00  4.22156E+01  1.588E-01  2.000E+01  2.000E+04 -1.311E-01
   1   13   15     1    15    1.1817E+05 -3.1373E+03   1.2130E+05  0.000E+00  0.000E+00  0.000E+00  4.17407E+01  1.612E-01  2.000E+01  2.000E+04 -1.569E-01
   1   12   16     1    16    1.2130E+05 -4.0856E+03   1.2539E+05  0.000E+00  0.000E+00  0.000E+00  4.12663E+01  1.641E-01  2.000E+01  2.000E+04 -2.043E-01
   1   12   17     1    17    1.2539E+05 -2.6064E+03   1.2800E+05  0.000E+00  0.000E+00  0.000E+00  4.07917E+01  1.667E-01  2.000E+01  2.000E+04 -1.303E-01
   1   12   18     1    18    1.2800E+05 -2.4711E+03   1.3047E+05  0.000E+00  0.000E+00  0.000E+00  4.03164E+01  1.687E-01  2.000E+01  2.000E+04 -1.236E-01
   1   12   19     1    19    1.3047E+05 -3.1765E+03   1.3364E+05  0.000E+00  0.000E+00  0.000E+00  3.98414E+01  1.709E-01  2.000E+01  2.000E+04 -1.588E-01
   1   13   20     1    20    1.3364E+05 -2.3221E+03   1.3597E+05  0.000E+00  0.000E+00  0.000E+00  3.93662E+01  1.730E-01  2.000E+01  2.000E+04 -1.161E-01
   1   14   21     1    21    1.3597E+05 -2.1917E+03   1.3816E+05  0.000E+00  0.000E+00  0.000E+00  3.88907E+01  1.748E-01  2.000E+01  2.000E+04 -1.096E-01
   1   14   22     1    22    1.3816E+05  4.8860E+03   1.3327E+05  0.000E+00  0.000E+00  0.000E+00  3.84124E+01  1.737E-01  2.000E+01  2.000E+04  2.443E-01
   1    9   30     2     1    5.0000E+04 -5.9566E+01   5.0060E+04  0.000E+00  0.000E+00  0.000E+00  4.02409E+01  1.159E-01  2.000E+01  2.000E+04 -2.978E-03
   1    9   29     2     2    5.0060E+04 -3.2530E+02   5.0385E+04  0.000E+00  0.000E+00  0.000E+00  3.99912E+01  1.162E-01  2.000E+01  2.000E+04 -1.627E-02
   1    9   28     2     3    5.0385E+04 -5.6751E+02   5.0952E+04  0.000E+00  0.000E+00  0.000E+00  3.97418E+01  1.168E-01  2.000E+01  2.000E+04 -2.838E-02
   1    9   27     2     4    5.0952E+04 -2.2421E+03   5.3195E+04  0.000E+00  0.000E+00  0.000E+00  3.94937E+01  1.187E-01  2.000E+01  2.000E+04 -1.121E-01
   1   10   26     2     5    5.3195E+04  1.2347E+03   5.1960E+04  0.000E+00  0.000E+00  0.000E+00  3.92444E+01  1.194E-01  2.000E+01  2.000E+04  6.174E-02
   1   11   25     2     6    5.1960E+04  3.1372E+03   4.8823E+04  0.000E+00  0.000E+00  0.000E+00  3.89914E+01  1.164E-01  2.000E+01  2.000E+04  1.569E-01
   1   12   24     2     7    4.8823E+04  7.5961E+02   4.8063E+04  0.000E+00  0.000E+00  0.000E+00  3.87387E+01  1.137E-01  2.000E+01  2.000E+04  3.798E-02
   1   13   23     2     8    4.8063E+04 -2.1189E+02   4.8275E+04  0.000E+00  0.000E+00  0.000E+00  3.84883E+01  1.133E-01  2.000E+01  2.000E+04 -1.059E-02
   1   14   22     2     9    4.8275E+04  1.3879E+03   4.6887E+04  0.000E+00  0.000E+00  0.000E+00  3.82375E+01  1.125E-01  2.000E+01  2.000E+04  6.939E-02
   1   14   22     3     1    1.8016E+05 -8.7830E+03   1.8894E+05  0.000E+00  0.000E+00  0.000E+00  3.77289E+01  1.734E-01  2.000E+01  2.000E+04 -4.392E-01
   1   15   23     3     2    1.8894E+05 -6.3437E+02   1.8958E+05  0.000E+00  0.000E+00  0.000E+00  3.68427E+01  1.760E-01  2.000E+01  2.000E+04 -3.172E-02
   1   15   24     3     3    1.8958E+05 -2.8861E+02   1.8986E+05  0.000E+00  0.000E+00  0.000E+00  3.59540E+01  1.763E-01  2.000E+01  2.000E+04 -1.443E-02
   1   15   25     3     4    1.8986E+05 -1.9711E+02   1.9006E+05  0.000E+00  0.000E+00  0.000E+00  3.50653E+01  1.764E-01  2.000E+01  2.000E+04 -9.856E-03
   1   15   26     3     5    1.9006E+05  1.6791E+02   1.8989E+05  0.000E+00  0.000E+00  0.000E+00  3.41764E+01  1.764E-01  2.000E+01  2.000E+04  8.396E-03
   1   16   27     3     6    1.8989E+05  3.3556E+02   1.8956E+05  0.000E+00  0.000E+00  0.000E+00  3.32874E+01  1.763E-01  2.000E+01  2.000E+04  1.678E-02
   1   17   28     3     7    1.8956E+05  1.4129E+03   1.8814E+05  0.000E+00  0.000E+00  0.000E+00  3.23980E+01  1.758E-01  2.000E+01  2.000E+04  7.065E-02
   1   18   29     3     8    1.8814E+05 -2.6647E+03   1.9081E+05  0.000E+00  0.000E+00  0.000E+00  3.15095E+01  1.761E-01  2.000E+01  2.000E+04 -1.332E-01
   1   18   30     3     9    1.9081E+05 -2.5751E+03   1.9338E+05  0.000E+00  0.000E+00  0.000E+00  3.06220E+01  1.776E-01  2.000E+01  2.000E+04 -1.288E-01



1
              HEAD IN LAYER   1 AT END OF TIME STEP   1 IN STRESS PERIOD    3
  ---------------------------------------------------------------------------

          1      2      3      4      5      6      7      8      9     10
         11     12     13     14     15     16     17     18     19     20
         21     22     23     24     25     26     27     28     29     30
 .........................................................................
   1  ****** ****** ****** ****** ****** ****** ****** ****** ****** ******
      ****** ****** ****** ****** ****** ****** ****** ****** ****** ******
      ****** ****** ****** ****** ****** ****** ****** ****** ****** ******
   2  ****** ****** ****** ****** ****** ****** ****** ****** ****** ******
      ****** ****** ****** ****** ****** ****** ****** ****** ****** ******
      ****** ****** ****** ****** ****** ****** ****** ****** ****** ******
   3  ****** ****** ****** ****** ****** ****** ****** ****** ****** ******
      ****** ****** ****** ****** ****** ****** ****** ****** ****** ******
      ****** ****** ****** ****** ****** ****** ****** ****** ****** ******
   4  ****** ****** ****** ****** ****** ****** ****** ****** ****** ******
      ****** ****** ****** ****** ****** ****** ****** ****** ****** ******
      ****** ****** ****** ****** ****** ****** ****** ****** ****** ******
   5  ****** ****** ****** ****** ****** ****** ****** ****** ****** ******
      ****** ****** ****** ****** ****** ****** ****** ****** ****** ******
      ****** ****** ****** ****** ****** ****** ****** ****** ****** ******
   6  ****** ****** ****** ****** ****** ****** ****** ****** ****** ******
      ****** ****** ****** ****** ****** ****** ****** ****** ****** ******
      ****** ****** ****** ****** ****** ****** ****** ****** ****** ******
   7  ****** ****** ****** ****** ****** ****** ****** ****** ****** ******
      ****** ****** ****** ****** ****** ****** ****** ****** ****** ******
      ****** ****** ****** ****** ****** ****** ****** ****** ****** ******
   8  ****** ****** ****** ****** ****** ****** ****** ****** ****** ******
      ****** ****** ****** ****** ****** ****** ****** ****** ****** ******
      ****** ****** ****** ****** ****** ****** ****** ****** ****** ******
   9  ****** ****** ****** ****** ****** ****** ****** ****** ****** ******
      ****** ****** ****** ****** ****** ****** ****** ****** ****** ******
      ****** ****** ****** ****** ****** ****** ****** ****** ****** ******
  10  ****** ****** ****** ****** ****** ****** ****** ****** ****** ******
      ****** ****** ****** ****** ****** ****** ****** ****** ****** ******
      ****** ****** ****** ****** ****** ****** ****** ****** ****** ******
  11  ****** ****** ****** ****** ****** ****** ****** ****** ****** ******
      ****** ****** ****** ****** ****** ****** ****** ****** ****** ******
      ****** ****** ****** ****** ****** ****** ****** ****** ****** ******
  12  ****** ****** ****** ****** ****** ****** ****** ****** ****** ******
      ****** ****** ****** ****** ****** ****** ****** ****** ****** ******
      ****** ****** ****** ****** ****** ****** ****** ****** ****** ******
  13  ****** ****** ****** ****** ****** ****** ****** ****** ****** ******
      ****** ****** ****** ****** ****** ****** ****** ****** ****** ******
      ****** ****** ****** ****** ****** ****** ****** ****** ****** ******
  14  ****** ****** ****** ****** ****** ****** ****** ****** ****** ******
      ****** ****** ****** ****** ****** ****** ****** ****** ****** ******
      ****** ****** ****** ****** ****** ****** ****** ****** ****** ******
  15  ****** ****** ****** ****** ****** ****** ****** ****** ****** ******
      ****** ****** ****** ****** ****** ****** ****** ****** ****** ******
      ****** ****** ****** ****** ****** ****** ****** ****** ****** ******
  16  ****** ****** ****** ****** ****** ****** ****** ****** ****** ******
      ****** ****** ****** ****** ****** ****** ****** ****** ****** ******
      ****** ****** ****** ****** ****** ****** ****** ****** ****** ******
  17  ****** ****** ****** ****** ****** ****** ****** ****** ****** ******
      ****** ****** ****** ****** ****** ****** ****** ****** ****** ******
      ****** ****** ****** ****** ****** ****** ****** ****** ****** ******
  18  ****** ****** ****** ****** ****** ****** ****** ****** ****** ******
      ****** ****** ****** ****** ****** ****** ****** ****** ****** ******
      ****** ****** ****** ****** ****** ****** ****** ****** ****** ******
  19  ****** ****** ****** ****** ****** ****** ****** ****** ****** ******
      ****** ****** ****** ****** ****** ****** ****** ****** ****** ******
      ****** ****** ****** ****** ****** ****** ****** ****** ****** ******
  20  ****** ****** ****** ****** ****** ****** ****** ****** ****** ******
      ****** ****** ****** ****** ****** ****** ****** ****** ****** ******
      ****** ****** ****** ****** ****** ****** ****** ****** ****** ******
  21  ****** ****** ****** ****** ****** ****** ****** ****** ****** ******
      ****** ****** ****** ****** ****** ****** ****** ****** ****** ******
      ****** ****** ****** ****** ****** ****** ****** ****** ****** ******
  22  ****** ****** ****** ****** ****** ****** ****** ****** ****** ******
      ****** ****** ****** ****** ****** ****** ****** ****** ****** ******
      ****** ****** ****** ****** ****** ****** ****** ****** ****** ******
  23  ****** ****** ****** ****** ****** ****** ****** ****** ****** ******
      ****** ****** ****** ****** ****** ****** ****** ****** ****** ******
      ****** ****** ****** ****** ****** ****** ****** ****** ****** ******
  24  ****** ****** ****** ****** ****** ****** ****** ****** ****** ******
      ****** ****** ****** ****** ****** ****** ****** ****** ****** ******
      ****** ****** ****** ****** ****** ****** ****** ****** ****** ******
  25  ****** ****** ****** ****** ****** ****** ****** ****** ****** ******
      ****** ****** ****** ****** ****** ****** ****** ****** ****** ******
      ****** ****** ****** ****** ****** ****** ****** ****** ****** ******

 HEAD WILL BE SAVED ON UNIT   51 AT END OF TIME STEP    1, STRESS PERIOD    3
1
  VOLUMETRIC BUDGET FOR ENTIRE MODEL AT END OF TIME STEP    1, STRESS PERIOD   3
  ------------------------------------------------------------------------------

     CUMULATIVE VOLUMES      L**3       RATES FOR THIS TIME STEP      L**3/T
     ------------------                 ------------------------

           IN:                                      IN:
           ---                                      ---
             STORAGE =    26926509.9784               STORAGE =       53235.0863
       CONSTANT HEAD =     4841847.6976         CONSTANT HEAD =       24591.6350
               WELLS =           0.0000                 WELLS =           0.0000
            RECHARGE =     6292800.0000              RECHARGE =           0.0000
      STREAM LEAKAGE =     2200010.9185        STREAM LEAKAGE =       13321.8614

            TOTAL IN =    40261168.5944              TOTAL IN =       91148.5827

          OUT:                                     OUT:
          ----                                     ----
             STORAGE =           0.0000               STORAGE =           0.0000
       CONSTANT HEAD =           0.0000         CONSTANT HEAD =           0.0000
               WELLS =     9437191.7160                 WELLS =       34442.3055
            RECHARGE =           0.0000              RECHARGE =           0.0000
      STREAM LEAKAGE =    30823978.8784        STREAM LEAKAGE =       56706.2850

           TOTAL OUT =    40261170.5943             TOTAL OUT =       91148.5905

            IN - OUT =          -1.9999              IN - OUT =      -7.8218E-03

 PERCENT DISCREPANCY =          -0.00     PERCENT DISCREPANCY =          -0.00






         TIME SUMMARY AT END OF TIME STEP    1 IN STRESS PERIOD    3
                    SECONDS     MINUTES      HOURS       DAYS        YEARS
                    -----------------------------------------------------------
   TIME STEP LENGTH 7.86240E+06 1.31040E+05  2184.0      91.000     0.24914    
 STRESS PERIOD TIME 7.86240E+06 1.31040E+05  2184.0      91.000     0.24914    
         TOTAL TIME 2.36736E+07 3.94560E+05  6576.0      274.00     0.75017    
1
1
                            STRESS PERIOD NO.    4, LENGTH =   91.00000    
                            -----------------------------------------------

                              NUMBER OF TIME STEPS =     1

                               MULTIPLIER FOR DELT =     1.500

                            INITIAL TIME STEP SIZE =   91.00000    

 WELL NO.  LAYER   ROW   COL   STRESS RATE         
 --------------------------------------------------
      1      1     19     11     -0.1013E+05
      2      1     15     28      -7561.    
      3      1     15      7      -2227.    
      4      1     12     26     -0.1452E+05

      4 WELLS

                 RECHARGE =  1.000000E-03

 REUSING STREAM SEGMENT DATA FROM LAST STRESS PERIOD
 
 SOLVING FOR HEAD 


     6 CALLS TO PCG ROUTINE FOR TIME STEP   1 IN STRESS PERIOD    4
    23 TOTAL ITERATIONS

 OUTPUT CONTROL FOR STRESS PERIOD    4   TIME STEP    1
    SAVE BUDGET
    SAVE HEAD FOR ALL LAYERS
    PRINT HEAD FOR ALL LAYERS
 UBDSV2 SAVING "STREAMFLOW OUT  " ON UNIT  50 AT TIME STEP  1, STRESS PERIOD   4



 STREAM LISTING     PERIOD      4   STEP        1

 LAYER ROW COL. STREAM  RCH.  FLOW INTO     FLOW TO   FLOW OUT OF   OVRLND.     DIRECT     STREAM       STREAM     STREAM     STREAM   STREAMBED  STREAMBED
                SEG.NO.  NO.  STRM. RCH.    AQUIFER    STRM. RCH.    RUNOFF     PRECIP       ET          HEAD       DEPTH      WIDTH   CONDCTNC.   GRADIENT

   1   13    1     1     1    1.0000E+05 -2.4730E+03   1.0247E+05  0.000E+00  0.000E+00  0.000E+00  4.84071E+01  1.457E-01  2.000E+01  2.000E+04 -1.237E-01
   1   13    2     1     2    1.0247E+05 -3.5348E+03   1.0601E+05  0.000E+00  0.000E+00  0.000E+00  4.79324E+01  1.483E-01  2.000E+01  2.000E+04 -1.767E-01
   1   14    3     1     3    1.0601E+05 -5.7534E+02   1.0658E+05  0.000E+00  0.000E+00  0.000E+00  4.74569E+01  1.500E-01  2.000E+01  2.000E+04 -2.877E-02
   1   15    4     1     4    1.0658E+05 -4.8970E+02   1.0707E+05  0.000E+00  0.000E+00  0.000E+00  4.69800E+01  1.505E-01  2.000E+01  2.000E+04 -2.449E-02
   1   16    5     1     5    1.0707E+05 -1.6283E+03   1.0870E+05  0.000E+00  0.000E+00  0.000E+00  4.65037E+01  1.514E-01  2.000E+01  2.000E+04 -8.142E-02
   1   16    6     1     6    1.0870E+05 -7.2384E+02   1.0943E+05  0.000E+00  0.000E+00  0.000E+00  4.60274E+01  1.524E-01  2.000E+01  2.000E+04 -3.619E-02
   1   16    7     1     7    1.0943E+05  9.1035E+01   1.0933E+05  0.000E+00  0.000E+00  0.000E+00  4.55504E+01  1.526E-01  2.000E+01  2.000E+04  4.552E-03
   1   16    8     1     8    1.0933E+05 -4.5818E+02   1.0979E+05  0.000E+00  0.000E+00  0.000E+00  4.50733E+01  1.528E-01  2.000E+01  2.000E+04 -2.291E-02
   1   16    9     1     9    1.0979E+05 -4.4581E+02   1.1024E+05  0.000E+00  0.000E+00  0.000E+00  4.45964E+01  1.532E-01  2.000E+01  2.000E+04 -2.229E-02
   1   16   10     1    10    1.1024E+05 -2.4012E+02   1.1048E+05  0.000E+00  0.000E+00  0.000E+00  4.41194E+01  1.535E-01  2.000E+01  2.000E+04 -1.201E-02
   1   16   11     1    11    1.1048E+05 -7.0209E+01   1.1055E+05  0.000E+00  0.000E+00  0.000E+00  4.36422E+01  1.536E-01  2.000E+01  2.000E+04 -3.510E-03
   1   16   12     1    12    1.1055E+05 -8.7331E+02   1.1142E+05  0.000E+00  0.000E+00  0.000E+00  4.31654E+01  1.540E-01  2.000E+01  2.000E+04 -4.367E-02
   1   15   13     1    13    1.1142E+05 -1.7352E+03   1.1316E+05  0.000E+00  0.000E+00  0.000E+00  4.26892E+01  1.551E-01  2.000E+01  2.000E+04 -8.676E-02
   1   14   14     1    14    1.1316E+05 -2.3627E+03   1.1552E+05  0.000E+00  0.000E+00  0.000E+00  4.22136E+01  1.568E-01  2.000E+01  2.000E+04 -1.181E-01
   1   13   15     1    15    1.1552E+05 -2.8643E+03   1.1838E+05  0.000E+00  0.000E+00  0.000E+00  4.17384E+01  1.589E-01  2.000E+01  2.000E+04 -1.432E-01
   1   12   16     1    16    1.1838E+05 -3.7325E+03   1.2212E+05  0.000E+00  0.000E+00  0.000E+00  4.12638E+01  1.616E-01  2.000E+01  2.000E+04 -1.866E-01
   1   12   17     1    17    1.2212E+05 -2.3954E+03   1.2451E+05  0.000E+00  0.000E+00  0.000E+00  4.07890E+01  1.640E-01  2.000E+01  2.000E+04 -1.198E-01
   1   12   18     1    18    1.2451E+05 -2.2756E+03   1.2679E+05  0.000E+00  0.000E+00  0.000E+00  4.03136E+01  1.659E-01  2.000E+01  2.000E+04 -1.138E-01
   1   12   19     1    19    1.2679E+05 -2.9365E+03   1.2972E+05  0.000E+00  0.000E+00  0.000E+00  3.98384E+01  1.679E-01  2.000E+01  2.000E+04 -1.468E-01
   1   13   20     1    20    1.2972E+05 -2.1643E+03   1.3189E+05  0.000E+00  0.000E+00  0.000E+00  3.93631E+01  1.699E-01  2.000E+01  2.000E+04 -1.082E-01
   1   14   21     1    21    1.3189E+05 -1.9666E+03   1.3385E+05  0.000E+00  0.000E+00  0.000E+00  3.88875E+01  1.715E-01  2.000E+01  2.000E+04 -9.833E-02
   1   14   22     1    22    1.3385E+05  4.9190E+03   1.2894E+05  0.000E+00  0.000E+00  0.000E+00  3.84090E+01  1.704E-01  2.000E+01  2.000E+04  2.459E-01
   1    9   30     2     1    5.0000E+04  3.0754E+01   4.9969E+04  0.000E+00  0.000E+00  0.000E+00  4.02408E+01  1.158E-01  2.000E+01  2.000E+04  1.538E-03
   1    9   29     2     2    4.9969E+04 -2.2924E+02   5.0198E+04  0.000E+00  0.000E+00  0.000E+00  3.99910E+01  1.160E-01  2.000E+01  2.000E+04 -1.146E-02
   1    9   28     2     3    5.0198E+04 -4.5431E+02   5.0653E+04  0.000E+00  0.000E+00  0.000E+00  3.97415E+01  1.165E-01  2.000E+01  2.000E+04 -2.272E-02
   1    9   27     2     4    5.0653E+04 -1.9921E+03   5.2645E+04  0.000E+00  0.000E+00  0.000E+00  3.94931E+01  1.181E-01  2.000E+01  2.000E+04 -9.961E-02
   1   10   26     2     5    5.2645E+04  1.3847E+03   5.1260E+04  0.000E+00  0.000E+00  0.000E+00  3.92436E+01  1.186E-01  2.000E+01  2.000E+04  6.924E-02
   1   11   25     2     6    5.1260E+04  3.2493E+03   4.8011E+04  0.000E+00  0.000E+00  0.000E+00  3.89904E+01  1.154E-01  2.000E+01  2.000E+04  1.625E-01
   1   12   24     2     7    4.8011E+04  8.5071E+02   4.7160E+04  0.000E+00  0.000E+00  0.000E+00  3.87375E+01  1.125E-01  2.000E+01  2.000E+04  4.254E-02
   1   13   23     2     8    4.7160E+04 -2.3816E+02   4.7398E+04  0.000E+00  0.000E+00  0.000E+00  3.84870E+01  1.120E-01  2.000E+01  2.000E+04 -1.191E-02
   1   14   22     2     9    4.7398E+04  1.4616E+03   4.5937E+04  0.000E+00  0.000E+00  0.000E+00  3.82362E+01  1.112E-01  2.000E+01  2.000E+04  7.308E-02
   1   14   22     3     1    1.7487E+05 -8.7435E+03   1.8362E+05  0.000E+00  0.000E+00  0.000E+00  3.77259E+01  1.704E-01  2.000E+01  2.000E+04 -4.372E-01
   1   15   23     3     2    1.8362E+05 -6.1096E+02   1.8423E+05  0.000E+00  0.000E+00  0.000E+00  3.68397E+01  1.730E-01  2.000E+01  2.000E+04 -3.055E-02
   1   15   24     3     3    1.8423E+05 -2.8701E+02   1.8451E+05  0.000E+00  0.000E+00  0.000E+00  3.59510E+01  1.733E-01  2.000E+01  2.000E+04 -1.435E-02
   1   15   25     3     4    1.8451E+05 -1.9379E+02   1.8471E+05  0.000E+00  0.000E+00  0.000E+00  3.50623E+01  1.734E-01  2.000E+01  2.000E+04 -9.690E-03
   1   15   26     3     5    1.8471E+05  1.6623E+02   1.8454E+05  0.000E+00  0.000E+00  0.000E+00  3.41734E+01  1.734E-01  2.000E+01  2.000E+04  8.311E-03
   1   16   27     3     6    1.8454E+05  3.4051E+02   1.8420E+05  0.000E+00  0.000E+00  0.000E+00  3.32844E+01  1.733E-01  2.000E+01  2.000E+04  1.703E-02
   1   17   28     3     7    1.8420E+05  1.4965E+03   1.8270E+05  0.000E+00  0.000E+00  0.000E+00  3.23950E+01  1.727E-01  2.000E+01  2.000E+04  7.482E-02
   1   18   29     3     8    1.8270E+05 -2.4442E+03   1.8515E+05  0.000E+00  0.000E+00  0.000E+00  3.15063E+01  1.730E-01  2.000E+01  2.000E+04 -1.222E-01
   1   18   30     3     9    1.8515E+05 -2.4604E+03   1.8761E+05  0.000E+00  0.000E+00  0.000E+00  3.06188E+01  1.744E-01  2.000E+01  2.000E+04 -1.230E-01



1
              HEAD IN LAYER   1 AT END OF TIME STEP   1 IN STRESS PERIOD    4
  ---------------------------------------------------------------------------

          1      2      3      4      5      6      7      8      9     10
         11     12     13     14     15     16     17     18     19     20
         21     22     23     24     25     26     27     28     29     30
 .........................................................................
   1  ****** ****** ****** ****** ****** ****** ****** ****** ****** ******
      ****** ****** ****** ****** ****** ****** ****** ****** ****** ******
      ****** ****** ****** ****** ****** ****** ****** ****** ****** ******
   2  ****** ****** ****** ****** ****** ****** ****** ****** ****** ******
      ****** ****** ****** ****** ****** ****** ****** ****** ****** ******
      ****** ****** ****** ****** ****** ****** ****** ****** ****** ******
   3  ****** ****** ****** ****** ****** ****** ****** ****** ****** ******
      ****** ****** ****** ****** ****** ****** ****** ****** ****** ******
      ****** ****** ****** ****** ****** ****** ****** ****** ****** ******
   4  ****** ****** ****** ****** ****** ****** ****** ****** ****** ******
      ****** ****** ****** ****** ****** ****** ****** ****** ****** ******
      ****** ****** ****** ****** ****** ****** ****** ****** ****** ******
   5  ****** ****** ****** ****** ****** ****** ****** ****** ****** ******
      ****** ****** ****** ****** ****** ****** ****** ****** ****** ******
      ****** ****** ****** ****** ****** ****** ****** ****** ****** ******
   6  ****** ****** ****** ****** ****** ****** ****** ****** ****** ******
      ****** ****** ****** ****** ****** ****** ****** ****** ****** ******
      ****** ****** ****** ****** ****** ****** ****** ****** ****** ******
   7  ****** ****** ****** ****** ****** ****** ****** ****** ****** ******
      ****** ****** ****** ****** ****** ****** ****** ****** ****** ******
      ****** ****** ****** ****** ****** ****** ****** ****** ****** ******
   8  ****** ****** ****** ****** ****** ****** ****** ****** ****** ******
      ****** ****** ****** ****** ****** ****** ****** ****** ****** ******
      ****** ****** ****** ****** ****** ****** ****** ****** ****** ******
   9  ****** ****** ****** ****** ****** ****** ****** ****** ****** ******
      ****** ****** ****** ****** ****** ****** ****** ****** ****** ******
      ****** ****** ****** ****** ****** ****** ****** ****** ****** ******
  10  ****** ****** ****** ****** ****** ****** ****** ****** ****** ******
      ****** ****** ****** ****** ****** ****** ****** ****** ****** ******
      ****** ****** ****** ****** ****** ****** ****** ****** ****** ******
  11  ****** ****** ****** ****** ****** ****** ****** ****** ****** ******
      ****** ****** ****** ****** ****** ****** ****** ****** ****** ******
      ****** ****** ****** ****** ****** ****** ****** ****** ****** ******
  12  ****** ****** ****** ****** ****** ****** ****** ****** ****** ******
      ****** ****** ****** ****** ****** ****** ****** ****** ****** ******
      ****** ****** ****** ****** ****** ****** ****** ****** ****** ******
  13  ****** ****** ****** ****** ****** ****** ****** ****** ****** ******
      ****** ****** ****** ****** ****** ****** ****** ****** ****** ******
      ****** ****** ****** ****** ****** ****** ****** ****** ****** ******
  14  ****** ****** ****** ****** ****** ****** ****** ****** ****** ******
      ****** ****** ****** ****** ****** ****** ****** ****** ****** ******
      ****** ****** ****** ****** ****** ****** ****** ****** ****** ******
  15  ****** ****** ****** ****** ****** ****** ****** ****** ****** ******
      ****** ****** ****** ****** ****** ****** ****** ****** ****** ******
      ****** ****** ****** ****** ****** ****** ****** ****** ****** ******
  16  ****** ****** ****** ****** ****** ****** ****** ****** ****** ******
      ****** ****** ****** ****** ****** ****** ****** ****** ****** ******
      ****** ****** ****** ****** ****** ****** ****** ****** ****** ******
  17  ****** ****** ****** ****** ****** ****** ****** ****** ****** ******
      ****** ****** ****** ****** ****** ****** ****** ****** ****** ******
      ****** ****** ****** ****** ****** ****** ****** ****** ****** ******
  18  ****** ****** ****** ****** ****** ****** ****** ****** ****** ******
      ****** ****** ****** ****** ****** ****** ****** ****** ****** ******
      ****** ****** ****** ****** ****** ****** ****** ****** ****** ******
  19  ****** ****** ****** ****** ****** ****** ****** ****** ****** ******
      ****** ****** ****** ****** ****** ****** ****** ****** ****** ******
      ****** ****** ****** ****** ****** ****** ****** ****** ****** ******
  20  ****** ****** ****** ****** ****** ****** ****** ****** ****** ******
      ****** ****** ****** ****** ****** ****** ****** ****** ****** ******
      ****** ****** ****** ****** ****** ****** ****** ****** ****** ******
  21  ****** ****** ****** ****** ****** ****** ****** ****** ****** ******
      ****** ****** ****** ****** ****** ****** ****** ****** ****** ******
      ****** ****** ****** ****** ****** ****** ****** ****** ****** ******
  22  ****** ****** ****** ****** ****** ****** ****** ****** ****** ******
      ****** ****** ****** ****** ****** ****** ****** ****** ****** ******
      ****** ****** ****** ****** ****** ****** ****** ****** ****** ******
  23  ****** ****** ****** ****** ****** ****** ****** ****** ****** ******
      ****** ****** ****** ****** ****** ****** ****** ****** ****** ******
      ****** ****** ****** ****** ****** ****** ****** ****** ****** ******
  24  ****** ****** ****** ****** ****** ****** ****** ****** ****** ******
      ****** ****** ****** ****** ****** ****** ****** ****** ****** ******
      ****** ****** ****** ****** ****** ****** ****** ****** ****** ******
  25  ****** ****** ****** ****** ****** ****** ****** ****** ****** ******
      ****** ****** ****** ****** ****** ****** ****** ****** ****** ******
      ****** ****** ****** ****** ****** ****** ****** ****** ****** ******

 HEAD WILL BE SAVED ON UNIT   51 AT END OF TIME STEP    1, STRESS PERIOD    4
1
  VOLUMETRIC BUDGET FOR ENTIRE MODEL AT END OF TIME STEP    1, STRESS PERIOD   4
  ------------------------------------------------------------------------------

     CUMULATIVE VOLUMES      L**3       RATES FOR THIS TIME STEP      L**3/T
     ------------------                 ------------------------

           IN:                                      IN:
           ---                                      ---
             STORAGE =    28512768.1362               STORAGE =       17431.4083
       CONSTANT HEAD =     7301025.4639         CONSTANT HEAD =       27023.9315
               WELLS =           0.0000                 WELLS =           0.0000
            RECHARGE =     8804400.0000              RECHARGE =       27600.0000
      STREAM LEAKAGE =     3473127.1255        STREAM LEAKAGE =       13990.2880

            TOTAL IN =    48091320.7256              TOTAL IN =       86045.6278

          OUT:                                     OUT:
          ----                                     ----
             STORAGE =         347.3291               STORAGE =           3.8168
       CONSTANT HEAD =           0.0000         CONSTANT HEAD =           0.0000
               WELLS =    12571441.5194                 WELLS =       34442.3055
            RECHARGE =           0.0000              RECHARGE =           0.0000
      STREAM LEAKAGE =    35519533.9530        STREAM LEAKAGE =       51599.5063

           TOTAL OUT =    48091322.8016             TOTAL OUT =       86045.6287

            IN - OUT =          -2.0759              IN - OUT =      -8.3551E-04

 PERCENT DISCREPANCY =          -0.00     PERCENT DISCREPANCY =          -0.00






         TIME SUMMARY AT END OF TIME STEP    1 IN STRESS PERIOD    4
                    SECONDS     MINUTES      HOURS       DAYS        YEARS
                    -----------------------------------------------------------
   TIME STEP LENGTH 7.86240E+06 1.31040E+05  2184.0      91.000     0.24914    
 STRESS PERIOD TIME 7.86240E+06 1.31040E+05  2184.0      91.000     0.24914    
         TOTAL TIME 3.15360E+07 5.25600E+05  8760.0      365.00     0.99932    
1
1
                            STRESS PERIOD NO.    5, LENGTH =   92.00000    
                            -----------------------------------------------

                              NUMBER OF TIME STEPS =     1

                               MULTIPLIER FOR DELT =     1.500

                            INITIAL TIME STEP SIZE =   92.00000    

 WELL NO.  LAYER   ROW   COL   STRESS RATE         
 --------------------------------------------------
      1      1     19     11     -0.1013E+05
      2      1     15     28      -7561.    
      3      1     15      7      -2227.    
      4      1     12     26     -0.1452E+05

      4 WELLS

                 RECHARGE =  5.000000E-04

 REUSING STREAM SEGMENT DATA FROM LAST STRESS PERIOD
 
 SOLVING FOR HEAD 


     7 CALLS TO PCG ROUTINE FOR TIME STEP   1 IN STRESS PERIOD    5
    26 TOTAL ITERATIONS

 OUTPUT CONTROL FOR STRESS PERIOD    5   TIME STEP    1
    SAVE BUDGET
    SAVE HEAD FOR ALL LAYERS
    PRINT HEAD FOR ALL LAYERS
 UBDSV2 SAVING "STREAMFLOW OUT  " ON UNIT  50 AT TIME STEP  1, STRESS PERIOD   5



 STREAM LISTING     PERIOD      5   STEP        1

 LAYER ROW COL. STREAM  RCH.  FLOW INTO     FLOW TO   FLOW OUT OF   OVRLND.     DIRECT     STREAM       STREAM     STREAM     STREAM   STREAMBED  STREAMBED
                SEG.NO.  NO.  STRM. RCH.    AQUIFER    STRM. RCH.    RUNOFF     PRECIP       ET          HEAD       DEPTH      WIDTH   CONDCTNC.   GRADIENT

   1   13    1     1     1    1.0000E+05 -2.0631E+03   1.0206E+05  0.000E+00  0.000E+00  0.000E+00  4.84069E+01  1.455E-01  2.000E+01  2.000E+04 -1.032E-01
   1   13    2     1     2    1.0206E+05 -3.0709E+03   1.0513E+05  0.000E+00  0.000E+00  0.000E+00  4.79318E+01  1.478E-01  2.000E+01  2.000E+04 -1.535E-01
   1   14    3     1     3    1.0513E+05 -4.5103E+02   1.0559E+05  0.000E+00  0.000E+00  0.000E+00  4.74561E+01  1.493E-01  2.000E+01  2.000E+04 -2.255E-02
   1   15    4     1     4    1.0559E+05 -3.5751E+02   1.0594E+05  0.000E+00  0.000E+00  0.000E+00  4.69791E+01  1.496E-01  2.000E+01  2.000E+04 -1.788E-02
   1   16    5     1     5    1.0594E+05 -1.1797E+03   1.0712E+05  0.000E+00  0.000E+00  0.000E+00  4.65025E+01  1.502E-01  2.000E+01  2.000E+04 -5.899E-02
   1   16    6     1     6    1.0712E+05 -4.6184E+02   1.0758E+05  0.000E+00  0.000E+00  0.000E+00  4.60259E+01  1.509E-01  2.000E+01  2.000E+04 -2.309E-02
   1   16    7     1     7    1.0758E+05  3.4199E+02   1.0724E+05  0.000E+00  0.000E+00  0.000E+00  4.55487E+01  1.510E-01  2.000E+01  2.000E+04  1.710E-02
   1   16    8     1     8    1.0724E+05 -2.1158E+02   1.0745E+05  0.000E+00  0.000E+00  0.000E+00  4.50714E+01  1.509E-01  2.000E+01  2.000E+04 -1.058E-02
   1   16    9     1     9    1.0745E+05 -2.0310E+02   1.0766E+05  0.000E+00  0.000E+00  0.000E+00  4.45943E+01  1.511E-01  2.000E+01  2.000E+04 -1.016E-02
   1   16   10     1    10    1.0766E+05 -1.8002E+00   1.0766E+05  0.000E+00  0.000E+00  0.000E+00  4.41171E+01  1.512E-01  2.000E+01  2.000E+04 -9.001E-05
   1   16   11     1    11    1.0766E+05  1.6774E+02   1.0749E+05  0.000E+00  0.000E+00  0.000E+00  4.36398E+01  1.511E-01  2.000E+01  2.000E+04  8.387E-03
   1   16   12     1    12    1.0749E+05 -4.5189E+02   1.0794E+05  0.000E+00  0.000E+00  0.000E+00  4.31626E+01  1.512E-01  2.000E+01  2.000E+04 -2.259E-02
   1   15   13     1    13    1.0794E+05 -1.3005E+03   1.0924E+05  0.000E+00  0.000E+00  0.000E+00  4.26861E+01  1.520E-01  2.000E+01  2.000E+04 -6.502E-02
   1   14   14     1    14    1.0924E+05 -1.9065E+03   1.1115E+05  0.000E+00  0.000E+00  0.000E+00  4.22101E+01  1.533E-01  2.000E+01  2.000E+04 -9.533E-02
   1   13   15     1    15    1.1115E+05 -2.3963E+03   1.1355E+05  0.000E+00  0.000E+00  0.000E+00  4.17347E+01  1.551E-01  2.000E+01  2.000E+04 -1.198E-01
   1   12   16     1    16    1.1355E+05 -3.2274E+03   1.1677E+05  0.000E+00  0.000E+00  0.000E+00  4.12597E+01  1.574E-01  2.000E+01  2.000E+04 -1.614E-01
   1   12   17     1    17    1.1677E+05 -2.0544E+03   1.1883E+05  0.000E+00  0.000E+00  0.000E+00  4.07846E+01  1.596E-01  2.000E+01  2.000E+04 -1.027E-01
   1   12   18     1    18    1.1883E+05 -1.9507E+03   1.2078E+05  0.000E+00  0.000E+00  0.000E+00  4.03089E+01  1.612E-01  2.000E+01  2.000E+04 -9.753E-02
   1   12   19     1    19    1.2078E+05 -2.5444E+03   1.2332E+05  0.000E+00  0.000E+00  0.000E+00  3.98335E+01  1.630E-01  2.000E+01  2.000E+04 -1.272E-01
   1   13   20     1    20    1.2332E+05 -1.8165E+03   1.2514E+05  0.000E+00  0.000E+00  0.000E+00  3.93579E+01  1.648E-01  2.000E+01  2.000E+04 -9.082E-02
   1   14   21     1    21    1.2514E+05 -1.5907E+03   1.2673E+05  0.000E+00  0.000E+00  0.000E+00  3.88820E+01  1.661E-01  2.000E+01  2.000E+04 -7.953E-02
   1   14   22     1    22    1.2673E+05  4.9988E+03   1.2173E+05  0.000E+00  0.000E+00  0.000E+00  3.84034E+01  1.648E-01  2.000E+01  2.000E+04  2.499E-01
   1    9   30     2     1    5.0000E+04  2.5872E+02   4.9741E+04  0.000E+00  0.000E+00  0.000E+00  4.02407E+01  1.157E-01  2.000E+01  2.000E+04  1.294E-02
   1    9   29     2     2    4.9741E+04  1.7500E+00   4.9740E+04  0.000E+00  0.000E+00  0.000E+00  3.99905E+01  1.155E-01  2.000E+01  2.000E+04  8.750E-05
   1    9   28     2     3    4.9740E+04 -2.1281E+02   4.9952E+04  0.000E+00  0.000E+00  0.000E+00  3.97407E+01  1.157E-01  2.000E+01  2.000E+04 -1.064E-02
   1    9   27     2     4    4.9952E+04 -1.6161E+03   5.1568E+04  0.000E+00  0.000E+00  0.000E+00  3.94919E+01  1.169E-01  2.000E+01  2.000E+04 -8.080E-02
   1   10   26     2     5    5.1568E+04  1.7158E+03   4.9853E+04  0.000E+00  0.000E+00  0.000E+00  3.92419E+01  1.169E-01  2.000E+01  2.000E+04  8.579E-02
   1   11   25     2     6    4.9853E+04  3.5537E+03   4.6299E+04  0.000E+00  0.000E+00  0.000E+00  3.89882E+01  1.132E-01  2.000E+01  2.000E+04  1.777E-01
   1   12   24     2     7    4.6299E+04  1.1278E+03   4.5171E+04  0.000E+00  0.000E+00  0.000E+00  3.87348E+01  1.098E-01  2.000E+01  2.000E+04  5.639E-02
   1   13   23     2     8    4.5171E+04 -1.7067E+02   4.5342E+04  0.000E+00  0.000E+00  0.000E+00  3.84841E+01  1.091E-01  2.000E+01  2.000E+04 -8.534E-03
   1   14   22     2     9    4.5342E+04  1.5930E+03   4.3749E+04  0.000E+00  0.000E+00  0.000E+00  3.82331E+01  1.081E-01  2.000E+01  2.000E+04  7.965E-02
   1   14   22     3     1    1.6548E+05 -8.6596E+03   1.7414E+05  0.000E+00  0.000E+00  0.000E+00  3.77205E+01  1.649E-01  2.000E+01  2.000E+04 -4.330E-01
   1   15   23     3     2    1.7414E+05 -5.1220E+02   1.7465E+05  0.000E+00  0.000E+00  0.000E+00  3.68342E+01  1.676E-01  2.000E+01  2.000E+04 -2.561E-02
   1   15   24     3     3    1.7465E+05 -2.1457E+02   1.7487E+05  0.000E+00  0.000E+00  0.000E+00  3.59456E+01  1.678E-01  2.000E+01  2.000E+04 -1.073E-02
   1   15   25     3     4    1.7487E+05 -1.2163E+02   1.7499E+05  0.000E+00  0.000E+00  0.000E+00  3.50568E+01  1.679E-01  2.000E+01  2.000E+04 -6.082E-03
   1   15   26     3     5    1.7499E+05  2.4026E+02   1.7475E+05  0.000E+00  0.000E+00  0.000E+00  3.41679E+01  1.679E-01  2.000E+01  2.000E+04  1.201E-02
   1   16   27     3     6    1.7475E+05  4.3245E+02   1.7432E+05  0.000E+00  0.000E+00  0.000E+00  3.32788E+01  1.677E-01  2.000E+01  2.000E+04  2.162E-02
   1   17   28     3     7    1.7432E+05  1.7698E+03   1.7255E+05  0.000E+00  0.000E+00  0.000E+00  3.23892E+01  1.670E-01  2.000E+01  2.000E+04  8.849E-02
   1   18   29     3     8    1.7255E+05 -2.0677E+03   1.7461E+05  0.000E+00  0.000E+00  0.000E+00  3.15004E+01  1.671E-01  2.000E+01  2.000E+04 -1.034E-01
   1   18   30     3     9    1.7461E+05 -2.2002E+03   1.7681E+05  0.000E+00  0.000E+00  0.000E+00  3.06128E+01  1.683E-01  2.000E+01  2.000E+04 -1.100E-01



1
              HEAD IN LAYER   1 AT END OF TIME STEP   1 IN STRESS PERIOD    5
  ---------------------------------------------------------------------------

          1      2      3      4      5      6      7      8      9     10
         11     12     13     14     15     16     17     18     19     20
         21     22     23     24     25     26     27     28     29     30
 .........................................................................
   1  ****** ****** ****** ****** ****** ****** ****** ****** ****** ******
      ****** ****** ****** ****** ****** ****** ****** ****** ****** ******
      ****** ****** ****** ****** ****** ****** ****** ****** ****** ******
   2  ****** ****** ****** ****** ****** ****** ****** ****** ****** ******
      ****** ****** ****** ****** ****** ****** ****** ****** ****** ******
      ****** ****** ****** ****** ****** ****** ****** ****** ****** ******
   3  ****** ****** ****** ****** ****** ****** ****** ****** ****** ******
      ****** ****** ****** ****** ****** ****** ****** ****** ****** ******
      ****** ****** ****** ****** ****** ****** ****** ****** ****** ******
   4  ****** ****** ****** ****** ****** ****** ****** ****** ****** ******
      ****** ****** ****** ****** ****** ****** ****** ****** ****** ******
      ****** ****** ****** ****** ****** ****** ****** ****** ****** ******
   5  ****** ****** ****** ****** ****** ****** ****** ****** ****** ******
      ****** ****** ****** ****** ****** ****** ****** ****** ****** ******
      ****** ****** ****** ****** ****** ****** ****** ****** ****** ******
   6  ****** ****** ****** ****** ****** ****** ****** ****** ****** ******
      ****** ****** ****** ****** ****** ****** ****** ****** ****** ******
      ****** ****** ****** ****** ****** ****** ****** ****** ****** ******
   7  ****** ****** ****** ****** ****** ****** ****** ****** ****** ******
      ****** ****** ****** ****** ****** ****** ****** ****** ****** ******
      ****** ****** ****** ****** ****** ****** ****** ****** ****** ******
   8  ****** ****** ****** ****** ****** ****** ****** ****** ****** ******
      ****** ****** ****** ****** ****** ****** ****** ****** ****** ******
      ****** ****** ****** ****** ****** ****** ****** ****** ****** ******
   9  ****** ****** ****** ****** ****** ****** ****** ****** ****** ******
      ****** ****** ****** ****** ****** ****** ****** ****** ****** ******
      ****** ****** ****** ****** ****** ****** ****** ****** ****** ******
  10  ****** ****** ****** ****** ****** ****** ****** ****** ****** ******
      ****** ****** ****** ****** ****** ****** ****** ****** ****** ******
      ****** ****** ****** ****** ****** ****** ****** ****** ****** ******
  11  ****** ****** ****** ****** ****** ****** ****** ****** ****** ******
      ****** ****** ****** ****** ****** ****** ****** ****** ****** ******
      ****** ****** ****** ****** ****** ****** ****** ****** ****** ******
  12  ****** ****** ****** ****** ****** ****** ****** ****** ****** ******
      ****** ****** ****** ****** ****** ****** ****** ****** ****** ******
      ****** ****** ****** ****** ****** ****** ****** ****** ****** ******
  13  ****** ****** ****** ****** ****** ****** ****** ****** ****** ******
      ****** ****** ****** ****** ****** ****** ****** ****** ****** ******
      ****** ****** ****** ****** ****** ****** ****** ****** ****** ******
  14  ****** ****** ****** ****** ****** ****** ****** ****** ****** ******
      ****** ****** ****** ****** ****** ****** ****** ****** ****** ******
      ****** ****** ****** ****** ****** ****** ****** ****** ****** ******
  15  ****** ****** ****** ****** ****** ****** ****** ****** ****** ******
      ****** ****** ****** ****** ****** ****** ****** ****** ****** ******
      ****** ****** ****** ****** ****** ****** ****** ****** ****** ******
  16  ****** ****** ****** ****** ****** ****** ****** ****** ****** ******
      ****** ****** ****** ****** ****** ****** ****** ****** ****** ******
      ****** ****** ****** ****** ****** ****** ****** ****** ****** ******
  17  ****** ****** ****** ****** ****** ****** ****** ****** ****** ******
      ****** ****** ****** ****** ****** ****** ****** ****** ****** ******
      ****** ****** ****** ****** ****** ****** ****** ****** ****** ******
  18  ****** ****** ****** ****** ****** ****** ****** ****** ****** ******
      ****** ****** ****** ****** ****** ****** ****** ****** ****** ******
      ****** ****** ****** ****** ****** ****** ****** ****** ****** ******
  19  ****** ****** ****** ****** ****** ****** ****** ****** ****** ******
      ****** ****** ****** ****** ****** ****** ****** ****** ****** ******
      ****** ****** ****** ****** ****** ****** ****** ****** ****** ******
  20  ****** ****** ****** ****** ****** ****** ****** ****** ****** ******
      ****** ****** ****** ****** ****** ****** ****** ****** ****** ******
      ****** ****** ****** ****** ****** ****** ****** ****** ****** ******
  21  ****** ****** ****** ****** ****** ****** ****** ****** ****** ******
      ****** ****** ****** ****** ****** ****** ****** ****** ****** ******
      ****** ****** ****** ****** ****** ****** ****** ****** ****** ******
  22  ****** ****** ****** ****** ****** ****** ****** ****** ****** ******
      ****** ****** ****** ****** ****** ****** ****** ****** ****** ******
      ****** ****** ****** ****** ****** ****** ****** ****** ****** ******
  23  ****** ****** ****** ****** ****** ****** ****** ****** ****** ******
      ****** ****** ****** ****** ****** ****** ****** ****** ****** ******
      ****** ****** ****** ****** ****** ****** ****** ****** ****** ******
  24  ****** ****** ****** ****** ****** ****** ****** ****** ****** ******
      ****** ****** ****** ****** ****** ****** ****** ****** ****** ******
      ****** ****** ****** ****** ****** ****** ****** ****** ****** ******
  25  ****** ****** ****** ****** ****** ****** ****** ****** ****** ******
      ****** ****** ****** ****** ****** ****** ****** ****** ****** ******
      ****** ****** ****** ****** ****** ****** ****** ****** ****** ******

 HEAD WILL BE SAVED ON UNIT   51 AT END OF TIME STEP    1, STRESS PERIOD    5
1
  VOLUMETRIC BUDGET FOR ENTIRE MODEL AT END OF TIME STEP    1, STRESS PERIOD   5
  ------------------------------------------------------------------------------

     CUMULATIVE VOLUMES      L**3       RATES FOR THIS TIME STEP      L**3/T
     ------------------                 ------------------------

           IN:                                      IN:
           ---                                      ---
             STORAGE =    30133395.7903               STORAGE =       17615.5180
       CONSTANT HEAD =    10046331.7323         CONSTANT HEAD =       29840.2855
               WELLS =           0.0000                 WELLS =           0.0000
            RECHARGE =    10074000.0000              RECHARGE =       13800.0000
      STREAM LEAKAGE =     4963688.4508        STREAM LEAKAGE =       16201.7535

            TOTAL IN =    55217415.9735              TOTAL IN =       77457.5570

          OUT:                                     OUT:
          ----                                     ----
             STORAGE =         347.3291               STORAGE =           0.0000
       CONSTANT HEAD =           0.0000         CONSTANT HEAD =           0.0000
               WELLS =    15740133.6284                 WELLS =       34442.3055
            RECHARGE =           0.0000              RECHARGE =           0.0000
      STREAM LEAKAGE =    39476937.3817        STREAM LEAKAGE =       43015.2547

           TOTAL OUT =    55217418.3393             TOTAL OUT =       77457.5602

            IN - OUT =          -2.3658              IN - OUT =      -3.1506E-03

 PERCENT DISCREPANCY =          -0.00     PERCENT DISCREPANCY =          -0.00






         TIME SUMMARY AT END OF TIME STEP    1 IN STRESS PERIOD    5
                    SECONDS     MINUTES      HOURS       DAYS        YEARS
                    -----------------------------------------------------------
   TIME STEP LENGTH 7.94880E+06 1.32480E+05  2208.0      92.000     0.25188    
 STRESS PERIOD TIME 7.94880E+06 1.32480E+05  2208.0      92.000     0.25188    
         TOTAL TIME 3.94848E+07 6.58080E+05  10968.      457.00      1.2512    
1
1
                            STRESS PERIOD NO.    6, LENGTH =   91.00000    
                            -----------------------------------------------

                              NUMBER OF TIME STEPS =     1

                               MULTIPLIER FOR DELT =     1.500

                            INITIAL TIME STEP SIZE =   91.00000    

 WELL NO.  LAYER   ROW   COL   STRESS RATE         
 --------------------------------------------------
      1      1     19     11     -0.1013E+05
      2      1     15     28      -7561.    
      3      1     15      7      -2227.    
      4      1     12     26     -0.1452E+05

      4 WELLS

                 RECHARGE =  2.000000E-03

 REUSING STREAM SEGMENT DATA FROM LAST STRESS PERIOD
 
 SOLVING FOR HEAD 


     7 CALLS TO PCG ROUTINE FOR TIME STEP   1 IN STRESS PERIOD    6
    26 TOTAL ITERATIONS

 OUTPUT CONTROL FOR STRESS PERIOD    6   TIME STEP    1
    SAVE BUDGET
    SAVE HEAD FOR ALL LAYERS
    PRINT HEAD FOR ALL LAYERS
 UBDSV2 SAVING "STREAMFLOW OUT  " ON UNIT  50 AT TIME STEP  1, STRESS PERIOD   6



 STREAM LISTING     PERIOD      6   STEP        1

 LAYER ROW COL. STREAM  RCH.  FLOW INTO     FLOW TO   FLOW OUT OF   OVRLND.     DIRECT     STREAM       STREAM     STREAM     STREAM   STREAMBED  STREAMBED
                SEG.NO.  NO.  STRM. RCH.    AQUIFER    STRM. RCH.    RUNOFF     PRECIP       ET          HEAD       DEPTH      WIDTH   CONDCTNC.   GRADIENT

   1   13    1     1     1    1.0000E+05 -2.3840E+03   1.0238E+05  0.000E+00  0.000E+00  0.000E+00  4.84070E+01  1.457E-01  2.000E+01  2.000E+04 -1.192E-01
   1   13    2     1     2    1.0238E+05 -3.4222E+03   1.0581E+05  0.000E+00  0.000E+00  0.000E+00  4.79323E+01  1.482E-01  2.000E+01  2.000E+04 -1.711E-01
   1   14    3     1     3    1.0581E+05 -6.0540E+02   1.0641E+05  0.000E+00  0.000E+00  0.000E+00  4.74567E+01  1.499E-01  2.000E+01  2.000E+04 -3.027E-02
   1   15    4     1     4    1.0641E+05 -5.2261E+02   1.0693E+05  0.000E+00  0.000E+00  0.000E+00  4.69799E+01  1.504E-01  2.000E+01  2.000E+04 -2.613E-02
   1   16    5     1     5    1.0693E+05 -1.6682E+03   1.0860E+05  0.000E+00  0.000E+00  0.000E+00  4.65036E+01  1.513E-01  2.000E+01  2.000E+04 -8.341E-02
   1   16    6     1     6    1.0860E+05 -7.4903E+02   1.0935E+05  0.000E+00  0.000E+00  0.000E+00  4.60273E+01  1.523E-01  2.000E+01  2.000E+04 -3.745E-02
   1   16    7     1     7    1.0935E+05  6.9610E+01   1.0928E+05  0.000E+00  0.000E+00  0.000E+00  4.55503E+01  1.526E-01  2.000E+01  2.000E+04  3.480E-03
   1   16    8     1     8    1.0928E+05 -4.7980E+02   1.0976E+05  0.000E+00  0.000E+00  0.000E+00  4.50732E+01  1.528E-01  2.000E+01  2.000E+04 -2.399E-02
   1   16    9     1     9    1.0976E+05 -4.7130E+02   1.1023E+05  0.000E+00  0.000E+00  0.000E+00  4.45963E+01  1.532E-01  2.000E+01  2.000E+04 -2.357E-02
   1   16   10     1    10    1.1023E+05 -2.7205E+02   1.1051E+05  0.000E+00  0.000E+00  0.000E+00  4.41194E+01  1.535E-01  2.000E+01  2.000E+04 -1.360E-02
   1   16   11     1    11    1.1051E+05 -1.0616E+02   1.1061E+05  0.000E+00  0.000E+00  0.000E+00  4.36423E+01  1.536E-01  2.000E+01  2.000E+04 -5.308E-03
   1   16   12     1    12    1.1061E+05 -8.9613E+02   1.1151E+05  0.000E+00  0.000E+00  0.000E+00  4.31654E+01  1.540E-01  2.000E+01  2.000E+04 -4.481E-02
   1   15   13     1    13    1.1151E+05 -1.7592E+03   1.1327E+05  0.000E+00  0.000E+00  0.000E+00  4.26892E+01  1.552E-01  2.000E+01  2.000E+04 -8.796E-02
   1   14   14     1    14    1.1327E+05 -2.3636E+03   1.1563E+05  0.000E+00  0.000E+00  0.000E+00  4.22137E+01  1.569E-01  2.000E+01  2.000E+04 -1.182E-01
   1   13   15     1    15    1.1563E+05 -2.8370E+03   1.1847E+05  0.000E+00  0.000E+00  0.000E+00  4.17385E+01  1.590E-01  2.000E+01  2.000E+04 -1.418E-01
   1   12   16     1    16    1.1847E+05 -3.6270E+03   1.2209E+05  0.000E+00  0.000E+00  0.000E+00  4.12639E+01  1.616E-01  2.000E+01  2.000E+04 -1.813E-01
   1   12   17     1    17    1.2209E+05 -2.3766E+03   1.2447E+05  0.000E+00  0.000E+00  0.000E+00  4.07890E+01  1.640E-01  2.000E+01  2.000E+04 -1.188E-01
   1   12   18     1    18    1.2447E+05 -2.2760E+03   1.2675E+05  0.000E+00  0.000E+00  0.000E+00  4.03136E+01  1.659E-01  2.000E+01  2.000E+04 -1.138E-01
   1   12   19     1    19    1.2675E+05 -2.9490E+03   1.2970E+05  0.000E+00  0.000E+00  0.000E+00  3.98384E+01  1.679E-01  2.000E+01  2.000E+04 -1.475E-01
   1   13   20     1    20    1.2970E+05 -2.2436E+03   1.3194E+05  0.000E+00  0.000E+00  0.000E+00  3.93631E+01  1.700E-01  2.000E+01  2.000E+04 -1.122E-01
   1   14   21     1    21    1.3194E+05 -2.0051E+03   1.3394E+05  0.000E+00  0.000E+00  0.000E+00  3.88875E+01  1.716E-01  2.000E+01  2.000E+04 -1.003E-01
   1   14   22     1    22    1.3394E+05  4.8873E+03   1.2906E+05  0.000E+00  0.000E+00  0.000E+00  3.84091E+01  1.705E-01  2.000E+01  2.000E+04  2.444E-01
   1    9   30     2     1    5.0000E+04 -1.0814E+02   5.0108E+04  0.000E+00  0.000E+00  0.000E+00  4.02409E+01  1.159E-01  2.000E+01  2.000E+04 -5.407E-03
   1    9   29     2     2    5.0108E+04 -3.6100E+02   5.0469E+04  0.000E+00  0.000E+00  0.000E+00  3.99913E+01  1.163E-01  2.000E+01  2.000E+04 -1.805E-02
   1    9   28     2     3    5.0469E+04 -5.6948E+02   5.1039E+04  0.000E+00  0.000E+00  0.000E+00  3.97419E+01  1.169E-01  2.000E+01  2.000E+04 -2.847E-02
   1    9   27     2     4    5.1039E+04 -2.0705E+03   5.3109E+04  0.000E+00  0.000E+00  0.000E+00  3.94937E+01  1.187E-01  2.000E+01  2.000E+04 -1.035E-01
   1   10   26     2     5    5.3109E+04  1.2394E+03   5.1870E+04  0.000E+00  0.000E+00  0.000E+00  3.92443E+01  1.193E-01  2.000E+01  2.000E+04  6.197E-02
   1   11   25     2     6    5.1870E+04  3.0928E+03   4.8777E+04  0.000E+00  0.000E+00  0.000E+00  3.89913E+01  1.163E-01  2.000E+01  2.000E+04  1.546E-01
   1   12   24     2     7    4.8777E+04  7.1196E+02   4.8065E+04  0.000E+00  0.000E+00  0.000E+00  3.87387E+01  1.137E-01  2.000E+01  2.000E+04  3.560E-02
   1   13   23     2     8    4.8065E+04 -3.0935E+02   4.8374E+04  0.000E+00  0.000E+00  0.000E+00  3.84884E+01  1.134E-01  2.000E+01  2.000E+04 -1.547E-02
   1   14   22     2     9    4.8374E+04  1.4562E+03   4.6918E+04  0.000E+00  0.000E+00  0.000E+00  3.82376E+01  1.126E-01  2.000E+01  2.000E+04  7.281E-02
   1   14   22     3     1    1.7598E+05 -8.7641E+03   1.8474E+05  0.000E+00  0.000E+00  0.000E+00  3.77265E+01  1.710E-01  2.000E+01  2.000E+04 -4.382E-01
   1   15   23     3     2    1.8474E+05 -6.4984E+02   1.8539E+05  0.000E+00  0.000E+00  0.000E+00  3.68403E+01  1.737E-01  2.000E+01  2.000E+04 -3.249E-02
   1   15   24     3     3    1.8539E+05 -3.3675E+02   1.8573E+05  0.000E+00  0.000E+00  0.000E+00  3.59517E+01  1.739E-01  2.000E+01  2.000E+04 -1.684E-02
   1   15   25     3     4    1.8573E+05 -2.4820E+02   1.8597E+05  0.000E+00  0.000E+00  0.000E+00  3.50630E+01  1.741E-01  2.000E+01  2.000E+04 -1.241E-02
   1   15   26     3     5    1.8597E+05  8.9072E+01   1.8588E+05  0.000E+00  0.000E+00  0.000E+00  3.41741E+01  1.741E-01  2.000E+01  2.000E+04  4.454E-03
   1   16   27     3     6    1.8588E+05  2.6359E+02   1.8562E+05  0.000E+00  0.000E+00  0.000E+00  3.32852E+01  1.740E-01  2.000E+01  2.000E+04  1.318E-02
   1   17   28     3     7    1.8562E+05  1.3065E+03   1.8431E+05  0.000E+00  0.000E+00  0.000E+00  3.23958E+01  1.736E-01  2.000E+01  2.000E+04  6.532E-02
   1   18   29     3     8    1.8431E+05 -2.5104E+03   1.8683E+05  0.000E+00  0.000E+00  0.000E+00  3.15073E+01  1.739E-01  2.000E+01  2.000E+04 -1.255E-01
   1   18   30     3     9    1.8683E+05 -2.5582E+03   1.8938E+05  0.000E+00  0.000E+00  0.000E+00  3.06198E+01  1.754E-01  2.000E+01  2.000E+04 -1.279E-01



1
              HEAD IN LAYER   1 AT END OF TIME STEP   1 IN STRESS PERIOD    6
  ---------------------------------------------------------------------------

          1      2      3      4      5      6      7      8      9     10
         11     12     13     14     15     16     17     18     19     20
         21     22     23     24     25     26     27     28     29     30
 .........................................................................
   1  ****** ****** ****** ****** ****** ****** ****** ****** ****** ******
      ****** ****** ****** ****** ****** ****** ****** ****** ****** ******
      ****** ****** ****** ****** ****** ****** ****** ****** ****** ******
   2  ****** ****** ****** ****** ****** ****** ****** ****** ****** ******
      ****** ****** ****** ****** ****** ****** ****** ****** ****** ******
      ****** ****** ****** ****** ****** ****** ****** ****** ****** ******
   3  ****** ****** ****** ****** ****** ****** ****** ****** ****** ******
      ****** ****** ****** ****** ****** ****** ****** ****** ****** ******
      ****** ****** ****** ****** ****** ****** ****** ****** ****** ******
   4  ****** ****** ****** ****** ****** ****** ****** ****** ****** ******
      ****** ****** ****** ****** ****** ****** ****** ****** ****** ******
      ****** ****** ****** ****** ****** ****** ****** ****** ****** ******
   5  ****** ****** ****** ****** ****** ****** ****** ****** ****** ******
      ****** ****** ****** ****** ****** ****** ****** ****** ****** ******
      ****** ****** ****** ****** ****** ****** ****** ****** ****** ******
   6  ****** ****** ****** ****** ****** ****** ****** ****** ****** ******
      ****** ****** ****** ****** ****** ****** ****** ****** ****** ******
      ****** ****** ****** ****** ****** ****** ****** ****** ****** ******
   7  ****** ****** ****** ****** ****** ****** ****** ****** ****** ******
      ****** ****** ****** ****** ****** ****** ****** ****** ****** ******
      ****** ****** ****** ****** ****** ****** ****** ****** ****** ******
   8  ****** ****** ****** ****** ****** ****** ****** ****** ****** ******
      ****** ****** ****** ****** ****** ****** ****** ****** ****** ******
      ****** ****** ****** ****** ****** ****** ****** ****** ****** ******
   9  ****** ****** ****** ****** ****** ****** ****** ****** ****** ******
      ****** ****** ****** ****** ****** ****** ****** ****** ****** ******
      ****** ****** ****** ****** ****** ****** ****** ****** ****** ******
  10  ****** ****** ****** ****** ****** ****** ****** ****** ****** ******
      ****** ****** ****** ****** ****** ****** ****** ****** ****** ******
      ****** ****** ****** ****** ****** ****** ****** ****** ****** ******
  11  ****** ****** ****** ****** ****** ****** ****** ****** ****** ******
      ****** ****** ****** ****** ****** ****** ****** ****** ****** ******
      ****** ****** ****** ****** ****** ****** ****** ****** ****** ******
  12  ****** ****** ****** ****** ****** ****** ****** ****** ****** ******
      ****** ****** ****** ****** ****** ****** ****** ****** ****** ******
      ****** ****** ****** ****** ****** ****** ****** ****** ****** ******
  13  ****** ****** ****** ****** ****** ****** ****** ****** ****** ******
      ****** ****** ****** ****** ****** ****** ****** ****** ****** ******
      ****** ****** ****** ****** ****** ****** ****** ****** ****** ******
  14  ****** ****** ****** ****** ****** ****** ****** ****** ****** ******
      ****** ****** ****** ****** ****** ****** ****** ****** ****** ******
      ****** ****** ****** ****** ****** ****** ****** ****** ****** ******
  15  ****** ****** ****** ****** ****** ****** ****** ****** ****** ******
      ****** ****** ****** ****** ****** ****** ****** ****** ****** ******
      ****** ****** ****** ****** ****** ****** ****** ****** ****** ******
  16  ****** ****** ****** ****** ****** ****** ****** ****** ****** ******
      ****** ****** ****** ****** ****** ****** ****** ****** ****** ******
      ****** ****** ****** ****** ****** ****** ****** ****** ****** ******
  17  ****** ****** ****** ****** ****** ****** ****** ****** ****** ******
      ****** ****** ****** ****** ****** ****** ****** ****** ****** ******
      ****** ****** ****** ****** ****** ****** ****** ****** ****** ******
  18  ****** ****** ****** ****** ****** ****** ****** ****** ****** ******
      ****** ****** ****** ****** ****** ****** ****** ****** ****** ******
      ****** ****** ****** ****** ****** ****** ****** ****** ****** ******
  19  ****** ****** ****** ****** ****** ****** ****** ****** ****** ******
      ****** ****** ****** ****** ****** ****** ****** ****** ****** ******
      ****** ****** ****** ****** ****** ****** ****** ****** ****** ******
  20  ****** ****** ****** ****** ****** ****** ****** ****** ****** ******
      ****** ****** ****** ****** ****** ****** ****** ****** ****** ******
      ****** ****** ****** ****** ****** ****** ****** ****** ****** ******
  21  ****** ****** ****** ****** ****** ****** ****** ****** ****** ******
      ****** ****** ****** ****** ****** ****** ****** ****** ****** ******
      ****** ****** ****** ****** ****** ****** ****** ****** ****** ******
  22  ****** ****** ****** ****** ****** ****** ****** ****** ****** ******
      ****** ****** ****** ****** ****** ****** ****** ****** ****** ******
      ****** ****** ****** ****** ****** ****** ****** ****** ****** ******
  23  ****** ****** ****** ****** ****** ****** ****** ****** ****** ******
      ****** ****** ****** ****** ****** ****** ****** ****** ****** ******
      ****** ****** ****** ****** ****** ****** ****** ****** ****** ******
  24  ****** ****** ****** ****** ****** ****** ****** ****** ****** ******
      ****** ****** ****** ****** ****** ****** ****** ****** ****** ******
      ****** ****** ****** ****** ****** ****** ****** ****** ****** ******
  25  ****** ****** ****** ****** ****** ****** ****** ****** ****** ******
      ****** ****** ****** ****** ****** ****** ****** ****** ****** ******
      ****** ****** ****** ****** ****** ****** ****** ****** ****** ******

 HEAD WILL BE SAVED ON UNIT   51 AT END OF TIME STEP    1, STRESS PERIOD    6
1
  VOLUMETRIC BUDGET FOR ENTIRE MODEL AT END OF TIME STEP    1, STRESS PERIOD   6
  ------------------------------------------------------------------------------

     CUMULATIVE VOLUMES      L**3       RATES FOR THIS TIME STEP      L**3/T
     ------------------                 ------------------------

           IN:                                      IN:
           ---                                      ---
             STORAGE =    30133395.7903               STORAGE =           0.0000
       CONSTANT HEAD =    12582191.0155         CONSTANT HEAD =       27866.5855
               WELLS =           0.0000                 WELLS =           0.0000
            RECHARGE =    15097200.0000              RECHARGE =       55200.0000
      STREAM LEAKAGE =     6157287.7544        STREAM LEAKAGE =       13116.4759

            TOTAL IN =    63970074.5602              TOTAL IN =       96183.0614

          OUT:                                     OUT:
          ----                                     ----
             STORAGE =      841272.9404               STORAGE =        9240.9408
       CONSTANT HEAD =           0.0000         CONSTANT HEAD =           0.0000
               WELLS =    18874383.4319                 WELLS =       34442.3055
            RECHARGE =           0.0000              RECHARGE =           0.0000
      STREAM LEAKAGE =    44254420.2853        STREAM LEAKAGE =       52499.8121

           TOTAL OUT =    63970076.6576             TOTAL OUT =       96183.0584

            IN - OUT =          -2.0974              IN - OUT =       2.9498E-03

 PERCENT DISCREPANCY =          -0.00     PERCENT DISCREPANCY =           0.00






         TIME SUMMARY AT END OF TIME STEP    1 IN STRESS PERIOD    6
                    SECONDS     MINUTES      HOURS       DAYS        YEARS
                    -----------------------------------------------------------
   TIME STEP LENGTH 7.86240E+06 1.31040E+05  2184.0      91.000     0.24914    
 STRESS PERIOD TIME 7.86240E+06 1.31040E+05  2184.0      91.000     0.24914    
         TOTAL TIME 4.73472E+07 7.89120E+05  13152.      548.00      1.5003    
1
1
                            STRESS PERIOD NO.    7, LENGTH =   91.00000    
                            -----------------------------------------------

                              NUMBER OF TIME STEPS =     1

                               MULTIPLIER FOR DELT =     1.500

                            INITIAL TIME STEP SIZE =   91.00000    

 WELL NO.  LAYER   ROW   COL   STRESS RATE         
 --------------------------------------------------
      1      1     19     11     -0.1013E+05
      2      1     15     28      -7561.    
      3      1     15      7      -2227.    
      4      1     12     26     -0.1452E+05

      4 WELLS

                 RECHARGE =   0.00000    

 REUSING STREAM SEGMENT DATA FROM LAST STRESS PERIOD
 
 SOLVING FOR HEAD 


     7 CALLS TO PCG ROUTINE FOR TIME STEP   1 IN STRESS PERIOD    7
    26 TOTAL ITERATIONS

 OUTPUT CONTROL FOR STRESS PERIOD    7   TIME STEP    1
    SAVE BUDGET
    SAVE HEAD FOR ALL LAYERS
    PRINT HEAD FOR ALL LAYERS
 UBDSV2 SAVING "STREAMFLOW OUT  " ON UNIT  50 AT TIME STEP  1, STRESS PERIOD   7



 STREAM LISTING     PERIOD      7   STEP        1

 LAYER ROW COL. STREAM  RCH.  FLOW INTO     FLOW TO   FLOW OUT OF   OVRLND.     DIRECT     STREAM       STREAM     STREAM     STREAM   STREAMBED  STREAMBED
                SEG.NO.  NO.  STRM. RCH.    AQUIFER    STRM. RCH.    RUNOFF     PRECIP       ET          HEAD       DEPTH      WIDTH   CONDCTNC.   GRADIENT

   1   13    1     1     1    1.0000E+05 -1.7240E+03   1.0172E+05  0.000E+00  0.000E+00  0.000E+00  4.84068E+01  1.454E-01  2.000E+01  2.000E+04 -8.620E-02
   1   13    2     1     2    1.0172E+05 -2.6837E+03   1.0441E+05  0.000E+00  0.000E+00  0.000E+00  4.79314E+01  1.473E-01  2.000E+01  2.000E+04 -1.342E-01
   1   14    3     1     3    1.0441E+05 -3.5363E+02   1.0476E+05  0.000E+00  0.000E+00  0.000E+00  4.74554E+01  1.486E-01  2.000E+01  2.000E+04 -1.768E-02
   1   15    4     1     4    1.0476E+05 -2.5963E+02   1.0502E+05  0.000E+00  0.000E+00  0.000E+00  4.69784E+01  1.489E-01  2.000E+01  2.000E+04 -1.298E-02
   1   16    5     1     5    1.0502E+05 -9.1140E+02   1.0593E+05  0.000E+00  0.000E+00  0.000E+00  4.65016E+01  1.494E-01  2.000E+01  2.000E+04 -4.557E-02
   1   16    6     1     6    1.0593E+05 -2.9306E+02   1.0623E+05  0.000E+00  0.000E+00  0.000E+00  4.60249E+01  1.499E-01  2.000E+01  2.000E+04 -1.465E-02
   1   16    7     1     7    1.0623E+05  5.0693E+02   1.0572E+05  0.000E+00  0.000E+00  0.000E+00  4.55475E+01  1.498E-01  2.000E+01  2.000E+04  2.535E-02
   1   16    8     1     8    1.0572E+05 -4.8614E+01   1.0577E+05  0.000E+00  0.000E+00  0.000E+00  4.50700E+01  1.496E-01  2.000E+01  2.000E+04 -2.431E-03
   1   16    9     1     9    1.0577E+05 -4.3432E+01   1.0581E+05  0.000E+00  0.000E+00  0.000E+00  4.45928E+01  1.496E-01  2.000E+01  2.000E+04 -2.172E-03
   1   16   10     1    10    1.0581E+05  1.5322E+02   1.0566E+05  0.000E+00  0.000E+00  0.000E+00  4.41155E+01  1.496E-01  2.000E+01  2.000E+04  7.661E-03
   1   16   11     1    11    1.0566E+05  3.2021E+02   1.0534E+05  0.000E+00  0.000E+00  0.000E+00  4.36380E+01  1.494E-01  2.000E+01  2.000E+04  1.601E-02
   1   16   12     1    12    1.0534E+05 -1.8065E+02   1.0552E+05  0.000E+00  0.000E+00  0.000E+00  4.31607E+01  1.493E-01  2.000E+01  2.000E+04 -9.033E-03
   1   15   13     1    13    1.0552E+05 -9.9450E+02   1.0651E+05  0.000E+00  0.000E+00  0.000E+00  4.26839E+01  1.498E-01  2.000E+01  2.000E+04 -4.973E-02
   1   14   14     1    14    1.0651E+05 -1.5733E+03   1.0809E+05  0.000E+00  0.000E+00  0.000E+00  4.22077E+01  1.509E-01  2.000E+01  2.000E+04 -7.866E-02
   1   13   15     1    15    1.0809E+05 -2.0466E+03   1.1013E+05  0.000E+00  0.000E+00  0.000E+00  4.17320E+01  1.524E-01  2.000E+01  2.000E+04 -1.023E-01
   1   12   16     1    16    1.1013E+05 -2.8461E+03   1.1298E+05  0.000E+00  0.000E+00  0.000E+00  4.12567E+01  1.545E-01  2.000E+01  2.000E+04 -1.423E-01
   1   12   17     1    17    1.1298E+05 -1.8067E+03   1.1478E+05  0.000E+00  0.000E+00  0.000E+00  4.07814E+01  1.564E-01  2.000E+01  2.000E+04 -9.034E-02
   1   12   18     1    18    1.1478E+05 -1.7194E+03   1.1650E+05  0.000E+00  0.000E+00  0.000E+00  4.03056E+01  1.578E-01  2.000E+01  2.000E+04 -8.597E-02
   1   12   19     1    19    1.1650E+05 -2.2693E+03   1.1877E+05  0.000E+00  0.000E+00  0.000E+00  3.98299E+01  1.595E-01  2.000E+01  2.000E+04 -1.135E-01
   1   13   20     1    20    1.1877E+05 -1.5779E+03   1.2035E+05  0.000E+00  0.000E+00  0.000E+00  3.93542E+01  1.610E-01  2.000E+01  2.000E+04 -7.889E-02
   1   14   21     1    21    1.2035E+05 -1.3464E+03   1.2170E+05  0.000E+00  0.000E+00  0.000E+00  3.88781E+01  1.622E-01  2.000E+01  2.000E+04 -6.732E-02
   1   14   22     1    22    1.2170E+05  5.0495E+03   1.1665E+05  0.000E+00  0.000E+00  0.000E+00  3.83993E+01  1.607E-01  2.000E+01  2.000E+04  2.525E-01
   1    9   30     2     1    5.0000E+04  4.0337E+02   4.9597E+04  0.000E+00  0.000E+00  0.000E+00  4.02406E+01  1.156E-01  2.000E+01  2.000E+04  2.017E-02
   1    9   29     2     2    4.9597E+04  1.4858E+02   4.9448E+04  0.000E+00  0.000E+00  0.000E+00  3.99902E+01  1.152E-01  2.000E+01  2.000E+04  7.429E-03
   1    9   28     2     3    4.9448E+04 -5.8955E+01   4.9507E+04  0.000E+00  0.000E+00  0.000E+00  3.97401E+01  1.151E-01  2.000E+01  2.000E+04 -2.948E-03
   1    9   27     2     4    4.9507E+04 -1.3786E+03   5.0886E+04  0.000E+00  0.000E+00  0.000E+00  3.94911E+01  1.161E-01  2.000E+01  2.000E+04 -6.893E-02
   1   10   26     2     5    5.0886E+04  1.9343E+03   4.8951E+04  0.000E+00  0.000E+00  0.000E+00  3.92408E+01  1.158E-01  2.000E+01  2.000E+04  9.672E-02
   1   11   25     2     6    4.8951E+04  3.7594E+03   4.5192E+04  0.000E+00  0.000E+00  0.000E+00  3.89867E+01  1.117E-01  2.000E+01  2.000E+04  1.880E-01
   1   12   24     2     7    4.5192E+04  1.3193E+03   4.3873E+04  0.000E+00  0.000E+00  0.000E+00  3.87331E+01  1.081E-01  2.000E+01  2.000E+04  6.596E-02
   1   13   23     2     8    4.3873E+04 -1.1816E+02   4.3991E+04  0.000E+00  0.000E+00  0.000E+00  3.84822E+01  1.072E-01  2.000E+01  2.000E+04 -5.908E-03
   1   14   22     2     9    4.3991E+04  1.6839E+03   4.2307E+04  0.000E+00  0.000E+00  0.000E+00  3.82311E+01  1.061E-01  2.000E+01  2.000E+04  8.420E-02
   1   14   22     3     1    1.5896E+05 -8.6047E+03   1.6756E+05  0.000E+00  0.000E+00  0.000E+00  3.77166E+01  1.611E-01  2.000E+01  2.000E+04 -4.302E-01
   1   15   23     3     2    1.6756E+05 -4.4404E+02   1.6800E+05  0.000E+00  0.000E+00  0.000E+00  3.68304E+01  1.637E-01  2.000E+01  2.000E+04 -2.220E-02
   1   15   24     3     3    1.6800E+05 -1.6355E+02   1.6817E+05  0.000E+00  0.000E+00  0.000E+00  3.59417E+01  1.639E-01  2.000E+01  2.000E+04 -8.177E-03
   1   15   25     3     4    1.6817E+05 -7.1884E+01   1.6824E+05  0.000E+00  0.000E+00  0.000E+00  3.50529E+01  1.640E-01  2.000E+01  2.000E+04 -3.594E-03
   1   15   26     3     5    1.6824E+05  2.9006E+02   1.6795E+05  0.000E+00  0.000E+00  0.000E+00  3.41639E+01  1.639E-01  2.000E+01  2.000E+04  1.450E-02
   1   16   27     3     6    1.6795E+05  4.9544E+02   1.6745E+05  0.000E+00  0.000E+00  0.000E+00  3.32748E+01  1.637E-01  2.000E+01  2.000E+04  2.477E-02
   1   17   28     3     7    1.6745E+05  1.9463E+03   1.6551E+05  0.000E+00  0.000E+00  0.000E+00  3.23852E+01  1.630E-01  2.000E+01  2.000E+04  9.732E-02
   1   18   29     3     8    1.6551E+05 -1.8280E+03   1.6734E+05  0.000E+00  0.000E+00  0.000E+00  3.14963E+01  1.629E-01  2.000E+01  2.000E+04 -9.140E-02
   1   18   30     3     9    1.6734E+05 -2.0319E+03   1.6937E+05  0.000E+00  0.000E+00  0.000E+00  3.06085E+01  1.641E-01  2.000E+01  2.000E+04 -1.016E-01



1
              HEAD IN LAYER   1 AT END OF TIME STEP   1 IN STRESS PERIOD    7
  ---------------------------------------------------------------------------

          1      2      3      4      5      6      7      8      9     10
         11     12     13     14     15     16     17     18     19     20
         21     22     23     24     25     26     27     28     29     30
 .........................................................................
   1  ****** ****** ****** ****** ****** ****** ****** ****** ****** ******
      ****** ****** ****** ****** ****** ****** ****** ****** ****** ******
      ****** ****** ****** ****** ****** ****** ****** ****** ****** ******
   2  ****** ****** ****** ****** ****** ****** ****** ****** ****** ******
      ****** ****** ****** ****** ****** ****** ****** ****** ****** ******
      ****** ****** ****** ****** ****** ****** ****** ****** ****** ******
   3  ****** ****** ****** ****** ****** ****** ****** ****** ****** ******
      ****** ****** ****** ****** ****** ****** ****** ****** ****** ******
      ****** ****** ****** ****** ****** ****** ****** ****** ****** ******
   4  ****** ****** ****** ****** ****** ****** ****** ****** ****** ******
      ****** ****** ****** ****** ****** ****** ****** ****** ****** ******
      ****** ****** ****** ****** ****** ****** ****** ****** ****** ******
   5  ****** ****** ****** ****** ****** ****** ****** ****** ****** ******
      ****** ****** ****** ****** ****** ****** ****** ****** ****** ******
      ****** ****** ****** ****** ****** ****** ****** ****** ****** ******
   6  ****** ****** ****** ****** ****** ****** ****** ****** ****** ******
      ****** ****** ****** ****** ****** ****** ****** ****** ****** ******
      ****** ****** ****** ****** ****** ****** ****** ****** ****** ******
   7  ****** ****** ****** ****** ****** ****** ****** ****** ****** ******
      ****** ****** ****** ****** ****** ****** ****** ****** ****** ******
      ****** ****** ****** ****** ****** ****** ****** ****** ****** ******
   8  ****** ****** ****** ****** ****** ****** ****** ****** ****** ******
      ****** ****** ****** ****** ****** ****** ****** ****** ****** ******
      ****** ****** ****** ****** ****** ****** ****** ****** ****** ******
   9  ****** ****** ****** ****** ****** ****** ****** ****** ****** ******
      ****** ****** ****** ****** ****** ****** ****** ****** ****** ******
      ****** ****** ****** ****** ****** ****** ****** ****** ****** ******
  10  ****** ****** ****** ****** ****** ****** ****** ****** ****** ******
      ****** ****** ****** ****** ****** ****** ****** ****** ****** ******
      ****** ****** ****** ****** ****** ****** ****** ****** ****** ******
  11  ****** ****** ****** ****** ****** ****** ****** ****** ****** ******
      ****** ****** ****** ****** ****** ****** ****** ****** ****** ******
      ****** ****** ****** ****** ****** ****** ****** ****** ****** ******
  12  ****** ****** ****** ****** ****** ****** ****** ****** ****** ******
      ****** ****** ****** ****** ****** ****** ****** ****** ****** ******
      ****** ****** ****** ****** ****** ****** ****** ****** ****** ******
  13  ****** ****** ****** ****** ****** ****** ****** ****** ****** ******
      ****** ****** ****** ****** ****** ****** ****** ****** ****** ******
      ****** ****** ****** ****** ****** ****** ****** ****** ****** ******
  14  ****** ****** ****** ****** ****** ****** ****** ****** ****** ******
      ****** ****** ****** ****** ****** ****** ****** ****** ****** ******
      ****** ****** ****** ****** ****** ****** ****** ****** ****** ******
  15  ****** ****** ****** ****** ****** ****** ****** ****** ****** ******
      ****** ****** ****** ****** ****** ****** ****** ****** ****** ******
      ****** ****** ****** ****** ****** ****** ****** ****** ****** ******
  16  ****** ****** ****** ****** ****** ****** ****** ****** ****** ******
      ****** ****** ****** ****** ****** ****** ****** ****** ****** ******
      ****** ****** ****** ****** ****** ****** ****** ****** ****** ******
  17  ****** ****** ****** ****** ****** ****** ****** ****** ****** ******
      ****** ****** ****** ****** ****** ****** ****** ****** ****** ******
      ****** ****** ****** ****** ****** ****** ****** ****** ****** ******
  18  ****** ****** ****** ****** ****** ****** ****** ****** ****** ******
      ****** ****** ****** ****** ****** ****** ****** ****** ****** ******
      ****** ****** ****** ****** ****** ****** ****** ****** ****** ******
  19  ****** ****** ****** ****** ****** ****** ****** ****** ****** ******
      ****** ****** ****** ****** ****** ****** ****** ****** ****** ******
      ****** ****** ****** ****** ****** ****** ****** ****** ****** ******
  20  ****** ****** ****** ****** ****** ****** ****** ****** ****** ******
      ****** ****** ****** ****** ****** ****** ****** ****** ****** ******
      ****** ****** ****** ****** ****** ****** ****** ****** ****** ******
  21  ****** ****** ****** ****** ****** ****** ****** ****** ****** ******
      ****** ****** ****** ****** ****** ****** ****** ****** ****** ******
      ****** ****** ****** ****** ****** ****** ****** ****** ****** ******
  22  ****** ****** ****** ****** ****** ****** ****** ****** ****** ******
      ****** ****** ****** ****** ****** ****** ****** ****** ****** ******
      ****** ****** ****** ****** ****** ****** ****** ****** ****** ******
  23  ****** ****** ****** ****** ****** ****** ****** ****** ****** ******
      ****** ****** ****** ****** ****** ****** ****** ****** ****** ******
      ****** ****** ****** ****** ****** ****** ****** ****** ****** ******
  24  ****** ****** ****** ****** ****** ****** ****** ****** ****** ******
      ****** ****** ****** ****** ****** ****** ****** ****** ****** ******
      ****** ****** ****** ****** ****** ****** ****** ****** ****** ******
  25  ****** ****** ****** ****** ****** ****** ****** ****** ****** ******
      ****** ****** ****** ****** ****** ****** ****** ****** ****** ******
      ****** ****** ****** ****** ****** ****** ****** ****** ****** ******

 HEAD WILL BE SAVED ON UNIT   51 AT END OF TIME STEP    1, STRESS PERIOD    7
1
  VOLUMETRIC BUDGET FOR ENTIRE MODEL AT END OF TIME STEP    1, STRESS PERIOD   7
  ------------------------------------------------------------------------------

     CUMULATIVE VOLUMES      L**3       RATES FOR THIS TIME STEP      L**3/T
     ------------------                 ------------------------

           IN:                                      IN:
           ---                                      ---
             STORAGE =    32140867.4622               STORAGE =       22060.1283
       CONSTANT HEAD =    15471409.0680         CONSTANT HEAD =       31749.6489
               WELLS =           0.0000                 WELLS =           0.0000
            RECHARGE =    15097200.0000              RECHARGE =           0.0000
      STREAM LEAKAGE =     7796247.8679        STREAM LEAKAGE =       18010.5507

            TOTAL IN =    70505724.3981              TOTAL IN =       71820.3279

          OUT:                                     OUT:
          ----                                     ----
             STORAGE =      841272.9404               STORAGE =           0.0000
       CONSTANT HEAD =           0.0000         CONSTANT HEAD =           0.0000
               WELLS =    22008633.2354                 WELLS =       34442.3055
            RECHARGE =           0.0000              RECHARGE =           0.0000
      STREAM LEAKAGE =    47655820.8277        STREAM LEAKAGE =       37378.0279

           TOTAL OUT =    70505727.0035             TOTAL OUT =       71820.3335

            IN - OUT =          -2.6054              IN - OUT =      -5.5826E-03

 PERCENT DISCREPANCY =          -0.00     PERCENT DISCREPANCY =          -0.00






         TIME SUMMARY AT END OF TIME STEP    1 IN STRESS PERIOD    7
                    SECONDS     MINUTES      HOURS       DAYS        YEARS
                    -----------------------------------------------------------
   TIME STEP LENGTH 7.86240E+06 1.31040E+05  2184.0      91.000     0.24914    
 STRESS PERIOD TIME 7.86240E+06 1.31040E+05  2184.0      91.000     0.24914    
         TOTAL TIME 5.52096E+07 9.20160E+05  15336.      639.00      1.7495    
1
1
                            STRESS PERIOD NO.    8, LENGTH =   91.00000    
                            -----------------------------------------------

                              NUMBER OF TIME STEPS =     1

                               MULTIPLIER FOR DELT =     1.500

                            INITIAL TIME STEP SIZE =   91.00000    

 WELL NO.  LAYER   ROW   COL   STRESS RATE         
 --------------------------------------------------
      1      1     19     11     -0.1013E+05
      2      1     15     28      -7561.    
      3      1     15      7      -2227.    
      4      1     12     26     -0.1452E+05

      4 WELLS

                 RECHARGE =  1.000000E-03

 REUSING STREAM SEGMENT DATA FROM LAST STRESS PERIOD
 
 SOLVING FOR HEAD 


     6 CALLS TO PCG ROUTINE FOR TIME STEP   1 IN STRESS PERIOD    8
    22 TOTAL ITERATIONS

 OUTPUT CONTROL FOR STRESS PERIOD    8   TIME STEP    1
    SAVE BUDGET
    SAVE HEAD FOR ALL LAYERS
    PRINT HEAD FOR ALL LAYERS
 UBDSV2 SAVING "STREAMFLOW OUT  " ON UNIT  50 AT TIME STEP  1, STRESS PERIOD   8



 STREAM LISTING     PERIOD      8   STEP        1

 LAYER ROW COL. STREAM  RCH.  FLOW INTO     FLOW TO   FLOW OUT OF   OVRLND.     DIRECT     STREAM       STREAM     STREAM     STREAM   STREAMBED  STREAMBED
                SEG.NO.  NO.  STRM. RCH.    AQUIFER    STRM. RCH.    RUNOFF     PRECIP       ET          HEAD       DEPTH      WIDTH   CONDCTNC.   GRADIENT

   1   13    1     1     1    1.0000E+05 -1.8024E+03   1.0180E+05  0.000E+00  0.000E+00  0.000E+00  4.84068E+01  1.454E-01  2.000E+01  2.000E+04 -9.012E-02
   1   13    2     1     2    1.0180E+05 -2.7624E+03   1.0456E+05  0.000E+00  0.000E+00  0.000E+00  4.79315E+01  1.474E-01  2.000E+01  2.000E+04 -1.381E-01
   1   14    3     1     3    1.0456E+05 -4.1806E+02   1.0498E+05  0.000E+00  0.000E+00  0.000E+00  4.74556E+01  1.488E-01  2.000E+01  2.000E+04 -2.090E-02
   1   15    4     1     4    1.0498E+05 -3.2842E+02   1.0531E+05  0.000E+00  0.000E+00  0.000E+00  4.69786E+01  1.491E-01  2.000E+01  2.000E+04 -1.642E-02
   1   16    5     1     5    1.0531E+05 -1.0838E+03   1.0640E+05  0.000E+00  0.000E+00  0.000E+00  4.65019E+01  1.497E-01  2.000E+01  2.000E+04 -5.419E-02
   1   16    6     1     6    1.0640E+05 -3.9950E+02   1.0679E+05  0.000E+00  0.000E+00  0.000E+00  4.60253E+01  1.503E-01  2.000E+01  2.000E+04 -1.997E-02
   1   16    7     1     7    1.0679E+05  4.0533E+02   1.0639E+05  0.000E+00  0.000E+00  0.000E+00  4.55480E+01  1.503E-01  2.000E+01  2.000E+04  2.027E-02
   1   16    8     1     8    1.0639E+05 -1.4948E+02   1.0654E+05  0.000E+00  0.000E+00  0.000E+00  4.50706E+01  1.502E-01  2.000E+01  2.000E+04 -7.474E-03
   1   16    9     1     9    1.0654E+05 -1.4554E+02   1.0668E+05  0.000E+00  0.000E+00  0.000E+00  4.45935E+01  1.503E-01  2.000E+01  2.000E+04 -7.277E-03
   1   16   10     1    10    1.0668E+05  4.8540E+01   1.0664E+05  0.000E+00  0.000E+00  0.000E+00  4.41163E+01  1.504E-01  2.000E+01  2.000E+04  2.427E-03
   1   16   11     1    11    1.0664E+05  2.1243E+02   1.0642E+05  0.000E+00  0.000E+00  0.000E+00  4.36389E+01  1.502E-01  2.000E+01  2.000E+04  1.062E-02
   1   16   12     1    12    1.0642E+05 -3.4250E+02   1.0677E+05  0.000E+00  0.000E+00  0.000E+00  4.31617E+01  1.503E-01  2.000E+01  2.000E+04 -1.712E-02
   1   15   13     1    13    1.0677E+05 -1.1647E+03   1.0793E+05  0.000E+00  0.000E+00  0.000E+00  4.26850E+01  1.509E-01  2.000E+01  2.000E+04 -5.823E-02
   1   14   14     1    14    1.0793E+05 -1.7375E+03   1.0967E+05  0.000E+00  0.000E+00  0.000E+00  4.22090E+01  1.522E-01  2.000E+01  2.000E+04 -8.688E-02
   1   13   15     1    15    1.0967E+05 -2.1988E+03   1.1187E+05  0.000E+00  0.000E+00  0.000E+00  4.17334E+01  1.538E-01  2.000E+01  2.000E+04 -1.099E-01
   1   12   16     1    16    1.1187E+05 -2.9618E+03   1.1483E+05  0.000E+00  0.000E+00  0.000E+00  4.12582E+01  1.559E-01  2.000E+01  2.000E+04 -1.481E-01
   1   12   17     1    17    1.1483E+05 -1.9205E+03   1.1675E+05  0.000E+00  0.000E+00  0.000E+00  4.07830E+01  1.580E-01  2.000E+01  2.000E+04 -9.603E-02
   1   12   18     1    18    1.1675E+05 -1.8396E+03   1.1859E+05  0.000E+00  0.000E+00  0.000E+00  4.03072E+01  1.595E-01  2.000E+01  2.000E+04 -9.198E-02
   1   12   19     1    19    1.1859E+05 -2.4209E+03   1.2101E+05  0.000E+00  0.000E+00  0.000E+00  3.98317E+01  1.612E-01  2.000E+01  2.000E+04 -1.210E-01
   1   13   20     1    20    1.2101E+05 -1.7574E+03   1.2277E+05  0.000E+00  0.000E+00  0.000E+00  3.93561E+01  1.629E-01  2.000E+01  2.000E+04 -8.787E-02
   1   14   21     1    21    1.2277E+05 -1.5059E+03   1.2427E+05  0.000E+00  0.000E+00  0.000E+00  3.88801E+01  1.642E-01  2.000E+01  2.000E+04 -7.530E-02
   1   14   22     1    22    1.2427E+05  5.0000E+03   1.1927E+05  0.000E+00  0.000E+00  0.000E+00  3.84014E+01  1.628E-01  2.000E+01  2.000E+04  2.500E-01
   1    9   30     2     1    5.0000E+04  2.3933E+02   4.9761E+04  0.000E+00  0.000E+00  0.000E+00  4.02407E+01  1.157E-01  2.000E+01  2.000E+04  1.197E-02
   1    9   29     2     2    4.9761E+04 -1.2721E+01   4.9773E+04  0.000E+00  0.000E+00  0.000E+00  3.99905E+01  1.155E-01  2.000E+01  2.000E+04 -6.360E-04
   1    9   28     2     3    4.9773E+04 -2.1483E+02   4.9988E+04  0.000E+00  0.000E+00  0.000E+00  3.97407E+01  1.157E-01  2.000E+01  2.000E+04 -1.074E-02
   1    9   27     2     4    4.9988E+04 -1.5587E+03   5.1547E+04  0.000E+00  0.000E+00  0.000E+00  3.94919E+01  1.169E-01  2.000E+01  2.000E+04 -7.793E-02
   1   10   26     2     5    5.1547E+04  1.7276E+03   4.9819E+04  0.000E+00  0.000E+00  0.000E+00  3.92418E+01  1.168E-01  2.000E+01  2.000E+04  8.638E-02
   1   11   25     2     6    4.9819E+04  3.5544E+03   4.6265E+04  0.000E+00  0.000E+00  0.000E+00  3.89881E+01  1.131E-01  2.000E+01  2.000E+04  1.777E-01
   1   12   24     2     7    4.6265E+04  1.1331E+03   4.5132E+04  0.000E+00  0.000E+00  0.000E+00  3.87348E+01  1.098E-01  2.000E+01  2.000E+04  5.666E-02
   1   13   23     2     8    4.5132E+04 -1.9259E+02   4.5324E+04  0.000E+00  0.000E+00  0.000E+00  3.84841E+01  1.091E-01  2.000E+01  2.000E+04 -9.630E-03
   1   14   22     2     9    4.5324E+04  1.6323E+03   4.3692E+04  0.000E+00  0.000E+00  0.000E+00  3.82331E+01  1.081E-01  2.000E+01  2.000E+04  8.162E-02
   1   14   22     3     1    1.6297E+05 -8.6486E+03   1.7161E+05  0.000E+00  0.000E+00  0.000E+00  3.77190E+01  1.634E-01  2.000E+01  2.000E+04 -4.324E-01
   1   15   23     3     2    1.7161E+05 -5.0843E+02   1.7212E+05  0.000E+00  0.000E+00  0.000E+00  3.68328E+01  1.661E-01  2.000E+01  2.000E+04 -2.542E-02
   1   15   24     3     3    1.7212E+05 -2.2419E+02   1.7235E+05  0.000E+00  0.000E+00  0.000E+00  3.59441E+01  1.663E-01  2.000E+01  2.000E+04 -1.121E-02
   1   15   25     3     4    1.7235E+05 -1.3424E+02   1.7248E+05  0.000E+00  0.000E+00  0.000E+00  3.50553E+01  1.664E-01  2.000E+01  2.000E+04 -6.712E-03
   1   15   26     3     5    1.7248E+05  2.1534E+02   1.7227E+05  0.000E+00  0.000E+00  0.000E+00  3.41664E+01  1.664E-01  2.000E+01  2.000E+04  1.077E-02
   1   16   27     3     6    1.7227E+05  4.1346E+02   1.7185E+05  0.000E+00  0.000E+00  0.000E+00  3.32773E+01  1.662E-01  2.000E+01  2.000E+04  2.067E-02
   1   17   28     3     7    1.7185E+05  1.7421E+03   1.7011E+05  0.000E+00  0.000E+00  0.000E+00  3.23878E+01  1.656E-01  2.000E+01  2.000E+04  8.710E-02
   1   18   29     3     8    1.7011E+05 -1.9947E+03   1.7210E+05  0.000E+00  0.000E+00  0.000E+00  3.14990E+01  1.657E-01  2.000E+01  2.000E+04 -9.973E-02
   1   18   30     3     9    1.7210E+05 -2.1793E+03   1.7428E+05  0.000E+00  0.000E+00  0.000E+00  3.06113E+01  1.669E-01  2.000E+01  2.000E+04 -1.090E-01



1
              HEAD IN LAYER   1 AT END OF TIME STEP   1 IN STRESS PERIOD    8
  ---------------------------------------------------------------------------

          1      2      3      4      5      6      7      8      9     10
         11     12     13     14     15     16     17     18     19     20
         21     22     23     24     25     26     27     28     29     30
 .........................................................................
   1  ****** ****** ****** ****** ****** ****** ****** ****** ****** ******
      ****** ****** ****** ****** ****** ****** ****** ****** ****** ******
      ****** ****** ****** ****** ****** ****** ****** ****** ****** ******
   2  ****** ****** ****** ****** ****** ****** ****** ****** ****** ******
      ****** ****** ****** ****** ****** ****** ****** ****** ****** ******
      ****** ****** ****** ****** ****** ****** ****** ****** ****** ******
   3  ****** ****** ****** ****** ****** ****** ****** ****** ****** ******
      ****** ****** ****** ****** ****** ****** ****** ****** ****** ******
      ****** ****** ****** ****** ****** ****** ****** ****** ****** ******
   4  ****** ****** ****** ****** ****** ****** ****** ****** ****** ******
      ****** ****** ****** ****** ****** ****** ****** ****** ****** ******
      ****** ****** ****** ****** ****** ****** ****** ****** ****** ******
   5  ****** ****** ****** ****** ****** ****** ****** ****** ****** ******
      ****** ****** ****** ****** ****** ****** ****** ****** ****** ******
      ****** ****** ****** ****** ****** ****** ****** ****** ****** ******
   6  ****** ****** ****** ****** ****** ****** ****** ****** ****** ******
      ****** ****** ****** ****** ****** ****** ****** ****** ****** ******
      ****** ****** ****** ****** ****** ****** ****** ****** ****** ******
   7  ****** ****** ****** ****** ****** ****** ****** ****** ****** ******
      ****** ****** ****** ****** ****** ****** ****** ****** ****** ******
      ****** ****** ****** ****** ****** ****** ****** ****** ****** ******
   8  ****** ****** ****** ****** ****** ****** ****** ****** ****** ******
      ****** ****** ****** ****** ****** ****** ****** ****** ****** ******
      ****** ****** ****** ****** ****** ****** ****** ****** ****** ******
   9  ****** ****** ****** ****** ****** ****** ****** ****** ****** ******
      ****** ****** ****** ****** ****** ****** ****** ****** ****** ******
      ****** ****** ****** ****** ****** ****** ****** ****** ****** ******
  10  ****** ****** ****** ****** ****** ****** ****** ****** ****** ******
      ****** ****** ****** ****** ****** ****** ****** ****** ****** ******
      ****** ****** ****** ****** ****** ****** ****** ****** ****** ******
  11  ****** ****** ****** ****** ****** ****** ****** ****** ****** ******
      ****** ****** ****** ****** ****** ****** ****** ****** ****** ******
      ****** ****** ****** ****** ****** ****** ****** ****** ****** ******
  12  ****** ****** ****** ****** ****** ****** ****** ****** ****** ******
      ****** ****** ****** ****** ****** ****** ****** ****** ****** ******
      ****** ****** ****** ****** ****** ****** ****** ****** ****** ******
  13  ****** ****** ****** ****** ****** ****** ****** ****** ****** ******
      ****** ****** ****** ****** ****** ****** ****** ****** ****** ******
      ****** ****** ****** ****** ****** ****** ****** ****** ****** ******
  14  ****** ****** ****** ****** ****** ****** ****** ****** ****** ******
      ****** ****** ****** ****** ****** ****** ****** ****** ****** ******
      ****** ****** ****** ****** ****** ****** ****** ****** ****** ******
  15  ****** ****** ****** ****** ****** ****** ****** ****** ****** ******
      ****** ****** ****** ****** ****** ****** ****** ****** ****** ******
      ****** ****** ****** ****** ****** ****** ****** ****** ****** ******
  16  ****** ****** ****** ****** ****** ****** ****** ****** ****** ******
      ****** ****** ****** ****** ****** ****** ****** ****** ****** ******
      ****** ****** ****** ****** ****** ****** ****** ****** ****** ******
  17  ****** ****** ****** ****** ****** ****** ****** ****** ****** ******
      ****** ****** ****** ****** ****** ****** ****** ****** ****** ******
      ****** ****** ****** ****** ****** ****** ****** ****** ****** ******
  18  ****** ****** ****** ****** ****** ****** ****** ****** ****** ******
      ****** ****** ****** ****** ****** ****** ****** ****** ****** ******
      ****** ****** ****** ****** ****** ****** ****** ****** ****** ******
  19  ****** ****** ****** ****** ****** ****** ****** ****** ****** ******
      ****** ****** ****** ****** ****** ****** ****** ****** ****** ******
      ****** ****** ****** ****** ****** ****** ****** ****** ****** ******
  20  ****** ****** ****** ****** ****** ****** ****** ****** ****** ******
      ****** ****** ****** ****** ****** ****** ****** ****** ****** ******
      ****** ****** ****** ****** ****** ****** ****** ****** ****** ******
  21  ****** ****** ****** ****** ****** ****** ****** ****** ****** ******
      ****** ****** ****** ****** ****** ****** ****** ****** ****** ******
      ****** ****** ****** ****** ****** ****** ****** ****** ****** ******
  22  ****** ****** ****** ****** ****** ****** ****** ****** ****** ******
      ****** ****** ****** ****** ****** ****** ****** ****** ****** ******
      ****** ****** ****** ****** ****** ****** ****** ****** ****** ******
  23  ****** ****** ****** ****** ****** ****** ****** ****** ****** ******
      ****** ****** ****** ****** ****** ****** ****** ****** ****** ******
      ****** ****** ****** ****** ****** ****** ****** ****** ****** ******
  24  ****** ****** ****** ****** ****** ****** ****** ****** ****** ******
      ****** ****** ****** ****** ****** ****** ****** ****** ****** ******
      ****** ****** ****** ****** ****** ****** ****** ****** ****** ******
  25  ****** ****** ****** ****** ****** ****** ****** ****** ****** ******
      ****** ****** ****** ****** ****** ****** ****** ****** ****** ******
      ****** ****** ****** ****** ****** ****** ****** ****** ****** ******

 HEAD WILL BE SAVED ON UNIT   51 AT END OF TIME STEP    1, STRESS PERIOD    8
1
  VOLUMETRIC BUDGET FOR ENTIRE MODEL AT END OF TIME STEP    1, STRESS PERIOD   8
  ------------------------------------------------------------------------------

     CUMULATIVE VOLUMES      L**3       RATES FOR THIS TIME STEP      L**3/T
     ------------------                 ------------------------

           IN:                                      IN:
           ---                                      ---
             STORAGE =    32260128.7699               STORAGE =        1310.5638
       CONSTANT HEAD =    18331189.2636         CONSTANT HEAD =       31426.1560
               WELLS =           0.0000                 WELLS =           0.0000
            RECHARGE =    17608800.0000              RECHARGE =       27600.0000
      STREAM LEAKAGE =     9281724.0872        STREAM LEAKAGE =       16323.9145

            TOTAL IN =    77481842.1207              TOTAL IN =       76660.6343

          OUT:                                     OUT:
          ----                                     ----
             STORAGE =      987844.4570               STORAGE =        1610.6760
       CONSTANT HEAD =           0.0000         CONSTANT HEAD =           0.0000
               WELLS =    25142883.0389                 WELLS =       34442.3055
            RECHARGE =           0.0000              RECHARGE =           0.0000
      STREAM LEAKAGE =    51351116.4541        STREAM LEAKAGE =       40607.6442

           TOTAL OUT =    77481843.9499             TOTAL OUT =       76660.6258

            IN - OUT =          -1.8292              IN - OUT =       8.5290E-03

 PERCENT DISCREPANCY =          -0.00     PERCENT DISCREPANCY =           0.00






         TIME SUMMARY AT END OF TIME STEP    1 IN STRESS PERIOD    8
                    SECONDS     MINUTES      HOURS       DAYS        YEARS
                    -----------------------------------------------------------
   TIME STEP LENGTH 7.86240E+06 1.31040E+05  2184.0      91.000     0.24914    
 STRESS PERIOD TIME 7.86240E+06 1.31040E+05  2184.0      91.000     0.24914    
         TOTAL TIME 6.30720E+07 1.05120E+06  17520.      730.00      1.9986    
1
1
                            STRESS PERIOD NO.    9, LENGTH =   92.00000    
                            -----------------------------------------------

                              NUMBER OF TIME STEPS =     1

                               MULTIPLIER FOR DELT =     1.500

                            INITIAL TIME STEP SIZE =   92.00000    

 WELL NO.  LAYER   ROW   COL   STRESS RATE         
 --------------------------------------------------
      1      1     19     11     -0.1013E+05
      2      1     15     28      -7561.    
      3      1     15      7      -2227.    
      4      1     12     26     -0.1452E+05

      4 WELLS

                 RECHARGE =  5.000000E-04

 REUSING STREAM SEGMENT DATA FROM LAST STRESS PERIOD
 
 SOLVING FOR HEAD 


     6 CALLS TO PCG ROUTINE FOR TIME STEP   1 IN STRESS PERIOD    9
    23 TOTAL ITERATIONS

 OUTPUT CONTROL FOR STRESS PERIOD    9   TIME STEP    1
    SAVE BUDGET
    SAVE HEAD FOR ALL LAYERS
    PRINT HEAD FOR ALL LAYERS
 UBDSV2 SAVING "STREAMFLOW OUT  " ON UNIT  50 AT TIME STEP  1, STRESS PERIOD   9



 STREAM LISTING     PERIOD      9   STEP        1

 LAYER ROW COL. STREAM  RCH.  FLOW INTO     FLOW TO   FLOW OUT OF   OVRLND.     DIRECT     STREAM       STREAM     STREAM     STREAM   STREAMBED  STREAMBED
                SEG.NO.  NO.  STRM. RCH.    AQUIFER    STRM. RCH.    RUNOFF     PRECIP       ET          HEAD       DEPTH      WIDTH   CONDCTNC.   GRADIENT

   1   13    1     1     1    1.0000E+05 -1.5920E+03   1.0159E+05  0.000E+00  0.000E+00  0.000E+00  4.84067E+01  1.453E-01  2.000E+01  2.000E+04 -7.960E-02
   1   13    2     1     2    1.0159E+05 -2.5241E+03   1.0412E+05  0.000E+00  0.000E+00  0.000E+00  4.79312E+01  1.471E-01  2.000E+01  2.000E+04 -1.262E-01
   1   14    3     1     3    1.0412E+05 -3.4769E+02   1.0446E+05  0.000E+00  0.000E+00  0.000E+00  4.74552E+01  1.483E-01  2.000E+01  2.000E+04 -1.738E-02
   1   15    4     1     4    1.0446E+05 -2.5685E+02   1.0472E+05  0.000E+00  0.000E+00  0.000E+00  4.69781E+01  1.486E-01  2.000E+01  2.000E+04 -1.284E-02
   1   16    5     1     5    1.0472E+05 -8.9094E+02   1.0561E+05  0.000E+00  0.000E+00  0.000E+00  4.65014E+01  1.491E-01  2.000E+01  2.000E+04 -4.455E-02
   1   16    6     1     6    1.0561E+05 -2.7953E+02   1.0589E+05  0.000E+00  0.000E+00  0.000E+00  4.60246E+01  1.496E-01  2.000E+01  2.000E+04 -1.398E-02
   1   16    7     1     7    1.0589E+05  5.2149E+02   1.0537E+05  0.000E+00  0.000E+00  0.000E+00  4.55472E+01  1.495E-01  2.000E+01  2.000E+04  2.607E-02
   1   16    8     1     8    1.0537E+05 -3.4906E+01   1.0540E+05  0.000E+00  0.000E+00  0.000E+00  4.50697E+01  1.493E-01  2.000E+01  2.000E+04 -1.745E-03
   1   16    9     1     9    1.0540E+05 -3.2602E+01   1.0544E+05  0.000E+00  0.000E+00  0.000E+00  4.45925E+01  1.493E-01  2.000E+01  2.000E+04 -1.630E-03
   1   16   10     1    10    1.0544E+05  1.5946E+02   1.0528E+05  0.000E+00  0.000E+00  0.000E+00  4.41152E+01  1.493E-01  2.000E+01  2.000E+04  7.973E-03
   1   16   11     1    11    1.0528E+05  3.2236E+02   1.0496E+05  0.000E+00  0.000E+00  0.000E+00  4.36377E+01  1.490E-01  2.000E+01  2.000E+04  1.612E-02
   1   16   12     1    12    1.0496E+05 -1.5481E+02   1.0511E+05  0.000E+00  0.000E+00  0.000E+00  4.31603E+01  1.490E-01  2.000E+01  2.000E+04 -7.740E-03
   1   15   13     1    13    1.0511E+05 -9.5679E+02   1.0607E+05  0.000E+00  0.000E+00  0.000E+00  4.26835E+01  1.494E-01  2.000E+01  2.000E+04 -4.784E-02
   1   14   14     1    14    1.0607E+05 -1.5170E+03   1.0758E+05  0.000E+00  0.000E+00  0.000E+00  4.22073E+01  1.505E-01  2.000E+01  2.000E+04 -7.585E-02
   1   13   15     1    15    1.0758E+05 -1.9732E+03   1.0956E+05  0.000E+00  0.000E+00  0.000E+00  4.17315E+01  1.520E-01  2.000E+01  2.000E+04 -9.866E-02
   1   12   16     1    16    1.0956E+05 -2.7291E+03   1.1229E+05  0.000E+00  0.000E+00  0.000E+00  4.12562E+01  1.539E-01  2.000E+01  2.000E+04 -1.365E-01
   1   12   17     1    17    1.1229E+05 -1.7601E+03   1.1405E+05  0.000E+00  0.000E+00  0.000E+00  4.07808E+01  1.558E-01  2.000E+01  2.000E+04 -8.801E-02
   1   12   18     1    18    1.1405E+05 -1.6864E+03   1.1573E+05  0.000E+00  0.000E+00  0.000E+00  4.03049E+01  1.572E-01  2.000E+01  2.000E+04 -8.432E-02
   1   12   19     1    19    1.1573E+05 -2.2364E+03   1.1797E+05  0.000E+00  0.000E+00  0.000E+00  3.98293E+01  1.588E-01  2.000E+01  2.000E+04 -1.118E-01
   1   13   20     1    20    1.1797E+05 -1.5852E+03   1.1955E+05  0.000E+00  0.000E+00  0.000E+00  3.93536E+01  1.604E-01  2.000E+01  2.000E+04 -7.926E-02
   1   14   21     1    21    1.1955E+05 -1.3352E+03   1.2089E+05  0.000E+00  0.000E+00  0.000E+00  3.88775E+01  1.616E-01  2.000E+01  2.000E+04 -6.676E-02
   1   14   22     1    22    1.2089E+05  5.0394E+03   1.1585E+05  0.000E+00  0.000E+00  0.000E+00  3.83987E+01  1.601E-01  2.000E+01  2.000E+04  2.520E-01
   1    9   30     2     1    5.0000E+04  3.6199E+02   4.9638E+04  0.000E+00  0.000E+00  0.000E+00  4.02406E+01  1.156E-01  2.000E+01  2.000E+04  1.810E-02
   1    9   29     2     2    4.9638E+04  1.1011E+02   4.9528E+04  0.000E+00  0.000E+00  0.000E+00  3.99903E+01  1.153E-01  2.000E+01  2.000E+04  5.506E-03
   1    9   28     2     3    4.9528E+04 -9.0221E+01   4.9618E+04  0.000E+00  0.000E+00  0.000E+00  3.97403E+01  1.153E-01  2.000E+01  2.000E+04 -4.511E-03
   1    9   27     2     4    4.9618E+04 -1.3838E+03   5.1002E+04  0.000E+00  0.000E+00  0.000E+00  3.94913E+01  1.163E-01  2.000E+01  2.000E+04 -6.919E-02
   1   10   26     2     5    5.1002E+04  1.8998E+03   4.9102E+04  0.000E+00  0.000E+00  0.000E+00  3.92409E+01  1.159E-01  2.000E+01  2.000E+04  9.499E-02
   1   11   25     2     6    4.9102E+04  3.7192E+03   4.5383E+04  0.000E+00  0.000E+00  0.000E+00  3.89870E+01  1.120E-01  2.000E+01  2.000E+04  1.860E-01
   1   12   24     2     7    4.5383E+04  1.2846E+03   4.4098E+04  0.000E+00  0.000E+00  0.000E+00  3.87334E+01  1.084E-01  2.000E+01  2.000E+04  6.423E-02
   1   13   23     2     8    4.4098E+04 -1.4570E+02   4.4244E+04  0.000E+00  0.000E+00  0.000E+00  3.84826E+01  1.076E-01  2.000E+01  2.000E+04 -7.285E-03
   1   14   22     2     9    4.4244E+04  1.6941E+03   4.2550E+04  0.000E+00  0.000E+00  0.000E+00  3.82314E+01  1.064E-01  2.000E+01  2.000E+04  8.471E-02
   1   14   22     3     1    1.5840E+05 -8.6084E+03   1.6701E+05  0.000E+00  0.000E+00  0.000E+00  3.77163E+01  1.607E-01  2.000E+01  2.000E+04 -4.304E-01
   1   15   23     3     2    1.6701E+05 -4.5604E+02   1.6746E+05  0.000E+00  0.000E+00  0.000E+00  3.68301E+01  1.634E-01  2.000E+01  2.000E+04 -2.280E-02
   1   15   24     3     3    1.6746E+05 -1.8131E+02   1.6765E+05  0.000E+00  0.000E+00  0.000E+00  3.59414E+01  1.636E-01  2.000E+01  2.000E+04 -9.065E-03
   1   15   25     3     4    1.6765E+05 -9.1092E+01   1.6774E+05  0.000E+00  0.000E+00  0.000E+00  3.50526E+01  1.637E-01  2.000E+01  2.000E+04 -4.555E-03
   1   15   26     3     5    1.6774E+05  2.6285E+02   1.6747E+05  0.000E+00  0.000E+00  0.000E+00  3.41636E+01  1.636E-01  2.000E+01  2.000E+04  1.314E-02
   1   16   27     3     6    1.6747E+05  4.6931E+02   1.6700E+05  0.000E+00  0.000E+00  0.000E+00  3.32745E+01  1.634E-01  2.000E+01  2.000E+04  2.347E-02
   1   17   28     3     7    1.6700E+05  1.8951E+03   1.6511E+05  0.000E+00  0.000E+00  0.000E+00  3.23849E+01  1.627E-01  2.000E+01  2.000E+04  9.475E-02
   1   18   29     3     8    1.6511E+05 -1.8198E+03   1.6693E+05  0.000E+00  0.000E+00  0.000E+00  3.14960E+01  1.627E-01  2.000E+01  2.000E+04 -9.099E-02
   1   18   30     3     9    1.6693E+05 -2.0478E+03   1.6898E+05  0.000E+00  0.000E+00  0.000E+00  3.06083E+01  1.638E-01  2.000E+01  2.000E+04 -1.024E-01



1
              HEAD IN LAYER   1 AT END OF TIME STEP   1 IN STRESS PERIOD    9
  ---------------------------------------------------------------------------

          1      2      3      4      5      6      7      8      9     10
         11     12     13     14     15     16     17     18     19     20
         21     22     23     24     25     26     27     28     29     30
 .........................................................................
   1  ****** ****** ****** ****** ****** ****** ****** ****** ****** ******
      ****** ****** ****** ****** ****** ****** ****** ****** ****** ******
      ****** ****** ****** ****** ****** ****** ****** ****** ****** ******
   2  ****** ****** ****** ****** ****** ****** ****** ****** ****** ******
      ****** ****** ****** ****** ****** ****** ****** ****** ****** ******
      ****** ****** ****** ****** ****** ****** ****** ****** ****** ******
   3  ****** ****** ****** ****** ****** ****** ****** ****** ****** ******
      ****** ****** ****** ****** ****** ****** ****** ****** ****** ******
      ****** ****** ****** ****** ****** ****** ****** ****** ****** ******
   4  ****** ****** ****** ****** ****** ****** ****** ****** ****** ******
      ****** ****** ****** ****** ****** ****** ****** ****** ****** ******
      ****** ****** ****** ****** ****** ****** ****** ****** ****** ******
   5  ****** ****** ****** ****** ****** ****** ****** ****** ****** ******
      ****** ****** ****** ****** ****** ****** ****** ****** ****** ******
      ****** ****** ****** ****** ****** ****** ****** ****** ****** ******
   6  ****** ****** ****** ****** ****** ****** ****** ****** ****** ******
      ****** ****** ****** ****** ****** ****** ****** ****** ****** ******
      ****** ****** ****** ****** ****** ****** ****** ****** ****** ******
   7  ****** ****** ****** ****** ****** ****** ****** ****** ****** ******
      ****** ****** ****** ****** ****** ****** ****** ****** ****** ******
      ****** ****** ****** ****** ****** ****** ****** ****** ****** ******
   8  ****** ****** ****** ****** ****** ****** ****** ****** ****** ******
      ****** ****** ****** ****** ****** ****** ****** ****** ****** ******
      ****** ****** ****** ****** ****** ****** ****** ****** ****** ******
   9  ****** ****** ****** ****** ****** ****** ****** ****** ****** ******
      ****** ****** ****** ****** ****** ****** ****** ****** ****** ******
      ****** ****** ****** ****** ****** ****** ****** ****** ****** ******
  10  ****** ****** ****** ****** ****** ****** ****** ****** ****** ******
      ****** ****** ****** ****** ****** ****** ****** ****** ****** ******
      ****** ****** ****** ****** ****** ****** ****** ****** ****** ******
  11  ****** ****** ****** ****** ****** ****** ****** ****** ****** ******
      ****** ****** ****** ****** ****** ****** ****** ****** ****** ******
      ****** ****** ****** ****** ****** ****** ****** ****** ****** ******
  12  ****** ****** ****** ****** ****** ****** ****** ****** ****** ******
      ****** ****** ****** ****** ****** ****** ****** ****** ****** ******
      ****** ****** ****** ****** ****** ****** ****** ****** ****** ******
  13  ****** ****** ****** ****** ****** ****** ****** ****** ****** ******
      ****** ****** ****** ****** ****** ****** ****** ****** ****** ******
      ****** ****** ****** ****** ****** ****** ****** ****** ****** ******
  14  ****** ****** ****** ****** ****** ****** ****** ****** ****** ******
      ****** ****** ****** ****** ****** ****** ****** ****** ****** ******
      ****** ****** ****** ****** ****** ****** ****** ****** ****** ******
  15  ****** ****** ****** ****** ****** ****** ****** ****** ****** ******
      ****** ****** ****** ****** ****** ****** ****** ****** ****** ******
      ****** ****** ****** ****** ****** ****** ****** ****** ****** ******
  16  ****** ****** ****** ****** ****** ****** ****** ****** ****** ******
      ****** ****** ****** ****** ****** ****** ****** ****** ****** ******
      ****** ****** ****** ****** ****** ****** ****** ****** ****** ******
  17  ****** ****** ****** ****** ****** ****** ****** ****** ****** ******
      ****** ****** ****** ****** ****** ****** ****** ****** ****** ******
      ****** ****** ****** ****** ****** ****** ****** ****** ****** ******
  18  ****** ****** ****** ****** ****** ****** ****** ****** ****** ******
      ****** ****** ****** ****** ****** ****** ****** ****** ****** ******
      ****** ****** ****** ****** ****** ****** ****** ****** ****** ******
  19  ****** ****** ****** ****** ****** ****** ****** ****** ****** ******
      ****** ****** ****** ****** ****** ****** ****** ****** ****** ******
      ****** ****** ****** ****** ****** ****** ****** ****** ****** ******
  20  ****** ****** ****** ****** ****** ****** ****** ****** ****** ******
      ****** ****** ****** ****** ****** ****** ****** ****** ****** ******
      ****** ****** ****** ****** ****** ****** ****** ****** ****** ******
  21  ****** ****** ****** ****** ****** ****** ****** ****** ****** ******
      ****** ****** ****** ****** ****** ****** ****** ****** ****** ******
      ****** ****** ****** ****** ****** ****** ****** ****** ****** ******
  22  ****** ****** ****** ****** ****** ****** ****** ****** ****** ******
      ****** ****** ****** ****** ****** ****** ****** ****** ****** ******
      ****** ****** ****** ****** ****** ****** ****** ****** ****** ******
  23  ****** ****** ****** ****** ****** ****** ****** ****** ****** ******
      ****** ****** ****** ****** ****** ****** ****** ****** ****** ******
      ****** ****** ****** ****** ****** ****** ****** ****** ****** ******
  24  ****** ****** ****** ****** ****** ****** ****** ****** ****** ******
      ****** ****** ****** ****** ****** ****** ****** ****** ****** ******
      ****** ****** ****** ****** ****** ****** ****** ****** ****** ******
  25  ****** ****** ****** ****** ****** ****** ****** ****** ****** ******
      ****** ****** ****** ****** ****** ****** ****** ****** ****** ******
      ****** ****** ****** ****** ****** ****** ****** ****** ****** ******

 HEAD WILL BE SAVED ON UNIT   51 AT END OF TIME STEP    1, STRESS PERIOD    9
1
  VOLUMETRIC BUDGET FOR ENTIRE MODEL AT END OF TIME STEP    1, STRESS PERIOD   9
  ------------------------------------------------------------------------------

     CUMULATIVE VOLUMES      L**3       RATES FOR THIS TIME STEP      L**3/T
     ------------------                 ------------------------

           IN:                                      IN:
           ---                                      ---
             STORAGE =    32908431.5139               STORAGE =        7046.7690
       CONSTANT HEAD =    21327856.4118         CONSTANT HEAD =       32572.4690
               WELLS =           0.0000                 WELLS =           0.0000
            RECHARGE =    18878400.0000              RECHARGE =       13800.0000
      STREAM LEAKAGE =    10913799.4453        STREAM LEAKAGE =       17739.9495

            TOTAL IN =    84028487.3709              TOTAL IN =       71159.1875

          OUT:                                     OUT:
          ----                                     ----
             STORAGE =      987844.4570               STORAGE =           0.0000
       CONSTANT HEAD =           0.0000         CONSTANT HEAD =           0.0000
               WELLS =    28311575.1479                 WELLS =       34442.3055
            RECHARGE =           0.0000              RECHARGE =           0.0000
      STREAM LEAKAGE =    54729069.6659        STREAM LEAKAGE =       36716.8827

           TOTAL OUT =    84028489.2708             TOTAL OUT =       71159.1883

            IN - OUT =          -1.8998              IN - OUT =      -7.6738E-04

 PERCENT DISCREPANCY =          -0.00     PERCENT DISCREPANCY =          -0.00






         TIME SUMMARY AT END OF TIME STEP    1 IN STRESS PERIOD    9
                    SECONDS     MINUTES      HOURS       DAYS        YEARS
                    -----------------------------------------------------------
   TIME STEP LENGTH 7.94880E+06 1.32480E+05  2208.0      92.000     0.25188    
 STRESS PERIOD TIME 7.94880E+06 1.32480E+05  2208.0      92.000     0.25188    
         TOTAL TIME 7.10208E+07 1.18368E+06  19728.      822.00      2.2505    
1
1
                            STRESS PERIOD NO.   10, LENGTH =   91.00000    
                            -----------------------------------------------

                              NUMBER OF TIME STEPS =     1

                               MULTIPLIER FOR DELT =     1.500

                            INITIAL TIME STEP SIZE =   91.00000    

 WELL NO.  LAYER   ROW   COL   STRESS RATE         
 --------------------------------------------------
      1      1     19     11     -0.1013E+05
      2      1     15     28      -7561.    
      3      1     15      7      -2227.    
      4      1     12     26     -0.1452E+05

      4 WELLS

                 RECHARGE =  2.000000E-03

 REUSING STREAM SEGMENT DATA FROM LAST STRESS PERIOD
 
 SOLVING FOR HEAD 


     7 CALLS TO PCG ROUTINE FOR TIME STEP   1 IN STRESS PERIOD   10
    26 TOTAL ITERATIONS

 OUTPUT CONTROL FOR STRESS PERIOD   10   TIME STEP    1
    SAVE BUDGET
    SAVE HEAD FOR ALL LAYERS
    PRINT HEAD FOR ALL LAYERS
 UBDSV2 SAVING "STREAMFLOW OUT  " ON UNIT  50 AT TIME STEP  1, STRESS PERIOD  10



 STREAM LISTING     PERIOD     10   STEP        1

 LAYER ROW COL. STREAM  RCH.  FLOW INTO     FLOW TO   FLOW OUT OF   OVRLND.     DIRECT     STREAM       STREAM     STREAM     STREAM   STREAMBED  STREAMBED
                SEG.NO.  NO.  STRM. RCH.    AQUIFER    STRM. RCH.    RUNOFF     PRECIP       ET          HEAD       DEPTH      WIDTH   CONDCTNC.   GRADIENT

   1   13    1     1     1    1.0000E+05 -2.0474E+03   1.0205E+05  0.000E+00  0.000E+00  0.000E+00  4.84069E+01  1.455E-01  2.000E+01  2.000E+04 -1.024E-01
   1   13    2     1     2    1.0205E+05 -3.0289E+03   1.0508E+05  0.000E+00  0.000E+00  0.000E+00  4.79318E+01  1.477E-01  2.000E+01  2.000E+04 -1.514E-01
   1   14    3     1     3    1.0508E+05 -5.3461E+02   1.0561E+05  0.000E+00  0.000E+00  0.000E+00  4.74561E+01  1.492E-01  2.000E+01  2.000E+04 -2.673E-02
   1   15    4     1     4    1.0561E+05 -4.5655E+02   1.0607E+05  0.000E+00  0.000E+00  0.000E+00  4.69792E+01  1.497E-01  2.000E+01  2.000E+04 -2.283E-02
   1   16    5     1     5    1.0607E+05 -1.5099E+03   1.0758E+05  0.000E+00  0.000E+00  0.000E+00  4.65028E+01  1.505E-01  2.000E+01  2.000E+04 -7.549E-02
   1   16    6     1     6    1.0758E+05 -6.4192E+02   1.0822E+05  0.000E+00  0.000E+00  0.000E+00  4.60264E+01  1.514E-01  2.000E+01  2.000E+04 -3.210E-02
   1   16    7     1     7    1.0822E+05  1.7684E+02   1.0804E+05  0.000E+00  0.000E+00  0.000E+00  4.55493E+01  1.516E-01  2.000E+01  2.000E+04  8.842E-03
   1   16    8     1     8    1.0804E+05 -3.7412E+02   1.0842E+05  0.000E+00  0.000E+00  0.000E+00  4.50721E+01  1.517E-01  2.000E+01  2.000E+04 -1.871E-02
   1   16    9     1     9    1.0842E+05 -3.7028E+02   1.0879E+05  0.000E+00  0.000E+00  0.000E+00  4.45952E+01  1.520E-01  2.000E+01  2.000E+04 -1.851E-02
   1   16   10     1    10    1.0879E+05 -1.7837E+02   1.0897E+05  0.000E+00  0.000E+00  0.000E+00  4.41181E+01  1.522E-01  2.000E+01  2.000E+04 -8.918E-03
   1   16   11     1    11    1.0897E+05 -1.8882E+01   1.0898E+05  0.000E+00  0.000E+00  0.000E+00  4.36409E+01  1.523E-01  2.000E+01  2.000E+04 -9.441E-04
   1   16   12     1    12    1.0898E+05 -7.2471E+02   1.0971E+05  0.000E+00  0.000E+00  0.000E+00  4.31640E+01  1.526E-01  2.000E+01  2.000E+04 -3.624E-02
   1   15   13     1    13    1.0971E+05 -1.5445E+03   1.1125E+05  0.000E+00  0.000E+00  0.000E+00  4.26877E+01  1.536E-01  2.000E+01  2.000E+04 -7.722E-02
   1   14   14     1    14    1.1125E+05 -2.1124E+03   1.1337E+05  0.000E+00  0.000E+00  0.000E+00  4.22119E+01  1.551E-01  2.000E+01  2.000E+04 -1.056E-01
   1   13   15     1    15    1.1337E+05 -2.5591E+03   1.1592E+05  0.000E+00  0.000E+00  0.000E+00  4.17366E+01  1.570E-01  2.000E+01  2.000E+04 -1.280E-01
   1   12   16     1    16    1.1592E+05 -3.2944E+03   1.1922E+05  0.000E+00  0.000E+00  0.000E+00  4.12617E+01  1.594E-01  2.000E+01  2.000E+04 -1.647E-01
   1   12   17     1    17    1.1922E+05 -2.1874E+03   1.2141E+05  0.000E+00  0.000E+00  0.000E+00  4.07866E+01  1.616E-01  2.000E+01  2.000E+04 -1.094E-01
   1   12   18     1    18    1.2141E+05 -2.1093E+03   1.2352E+05  0.000E+00  0.000E+00  0.000E+00  4.03111E+01  1.634E-01  2.000E+01  2.000E+04 -1.055E-01
   1   12   19     1    19    1.2352E+05 -2.7568E+03   1.2627E+05  0.000E+00  0.000E+00  0.000E+00  3.98357E+01  1.653E-01  2.000E+01  2.000E+04 -1.378E-01
   1   13   20     1    20    1.2627E+05 -2.1074E+03   1.2838E+05  0.000E+00  0.000E+00  0.000E+00  3.93604E+01  1.672E-01  2.000E+01  2.000E+04 -1.054E-01
   1   14   21     1    21    1.2838E+05 -1.8609E+03   1.3024E+05  0.000E+00  0.000E+00  0.000E+00  3.88847E+01  1.688E-01  2.000E+01  2.000E+04 -9.305E-02
   1   14   22     1    22    1.3024E+05  4.9084E+03   1.2533E+05  0.000E+00  0.000E+00  0.000E+00  3.84062E+01  1.676E-01  2.000E+01  2.000E+04  2.454E-01
   1    9   30     2     1    5.0000E+04 -5.2700E+01   5.0053E+04  0.000E+00  0.000E+00  0.000E+00  4.02409E+01  1.159E-01  2.000E+01  2.000E+04 -2.635E-03
   1    9   29     2     2    5.0053E+04 -3.0232E+02   5.0355E+04  0.000E+00  0.000E+00  0.000E+00  3.99911E+01  1.161E-01  2.000E+01  2.000E+04 -1.512E-02
   1    9   28     2     3    5.0355E+04 -5.0192E+02   5.0857E+04  0.000E+00  0.000E+00  0.000E+00  3.97417E+01  1.167E-01  2.000E+01  2.000E+04 -2.510E-02
   1    9   27     2     4    5.0857E+04 -1.9380E+03   5.2795E+04  0.000E+00  0.000E+00  0.000E+00  3.94934E+01  1.184E-01  2.000E+01  2.000E+04 -9.690E-02
   1   10   26     2     5    5.2795E+04  1.3459E+03   5.1449E+04  0.000E+00  0.000E+00  0.000E+00  3.92438E+01  1.188E-01  2.000E+01  2.000E+04  6.729E-02
   1   11   25     2     6    5.1449E+04  3.1900E+03   4.8259E+04  0.000E+00  0.000E+00  0.000E+00  3.89907E+01  1.157E-01  2.000E+01  2.000E+04  1.595E-01
   1   12   24     2     7    4.8259E+04  8.0568E+02   4.7453E+04  0.000E+00  0.000E+00  0.000E+00  3.87379E+01  1.129E-01  2.000E+01  2.000E+04  4.028E-02
   1   13   23     2     8    4.7453E+04 -2.9447E+02   4.7748E+04  0.000E+00  0.000E+00  0.000E+00  3.84875E+01  1.125E-01  2.000E+01  2.000E+04 -1.472E-02
   1   14   22     2     9    4.7748E+04  1.5166E+03   4.6231E+04  0.000E+00  0.000E+00  0.000E+00  3.82366E+01  1.116E-01  2.000E+01  2.000E+04  7.583E-02
   1   14   22     3     1    1.7156E+05 -8.7355E+03   1.8030E+05  0.000E+00  0.000E+00  0.000E+00  3.77240E+01  1.685E-01  2.000E+01  2.000E+04 -4.368E-01
   1   15   23     3     2    1.8030E+05 -6.1866E+02   1.8092E+05  0.000E+00  0.000E+00  0.000E+00  3.68378E+01  1.711E-01  2.000E+01  2.000E+04 -3.093E-02
   1   15   24     3     3    1.8092E+05 -3.1854E+02   1.8124E+05  0.000E+00  0.000E+00  0.000E+00  3.59492E+01  1.714E-01  2.000E+01  2.000E+04 -1.593E-02
   1   15   25     3     4    1.8124E+05 -2.3174E+02   1.8147E+05  0.000E+00  0.000E+00  0.000E+00  3.50604E+01  1.716E-01  2.000E+01  2.000E+04 -1.159E-02
   1   15   26     3     5    1.8147E+05  1.0057E+02   1.8137E+05  0.000E+00  0.000E+00  0.000E+00  3.41716E+01  1.716E-01  2.000E+01  2.000E+04  5.028E-03
   1   16   27     3     6    1.8137E+05  2.8338E+02   1.8108E+05  0.000E+00  0.000E+00  0.000E+00  3.32826E+01  1.715E-01  2.000E+01  2.000E+04  1.417E-02
   1   17   28     3     7    1.8108E+05  1.3742E+03   1.7971E+05  0.000E+00  0.000E+00  0.000E+00  3.23932E+01  1.710E-01  2.000E+01  2.000E+04  6.871E-02
   1   18   29     3     8    1.7971E+05 -2.3716E+03   1.8208E+05  0.000E+00  0.000E+00  0.000E+00  3.15046E+01  1.713E-01  2.000E+01  2.000E+04 -1.186E-01
   1   18   30     3     9    1.8208E+05 -2.4734E+03   1.8456E+05  0.000E+00  0.000E+00  0.000E+00  3.06171E+01  1.727E-01  2.000E+01  2.000E+04 -1.237E-01



1
              HEAD IN LAYER   1 AT END OF TIME STEP   1 IN STRESS PERIOD   10
  ---------------------------------------------------------------------------

          1      2      3      4      5      6      7      8      9     10
         11     12     13     14     15     16     17     18     19     20
         21     22     23     24     25     26     27     28     29     30
 .........................................................................
   1  ****** ****** ****** ****** ****** ****** ****** ****** ****** ******
      ****** ****** ****** ****** ****** ****** ****** ****** ****** ******
      ****** ****** ****** ****** ****** ****** ****** ****** ****** ******
   2  ****** ****** ****** ****** ****** ****** ****** ****** ****** ******
      ****** ****** ****** ****** ****** ****** ****** ****** ****** ******
      ****** ****** ****** ****** ****** ****** ****** ****** ****** ******
   3  ****** ****** ****** ****** ****** ****** ****** ****** ****** ******
      ****** ****** ****** ****** ****** ****** ****** ****** ****** ******
      ****** ****** ****** ****** ****** ****** ****** ****** ****** ******
   4  ****** ****** ****** ****** ****** ****** ****** ****** ****** ******
      ****** ****** ****** ****** ****** ****** ****** ****** ****** ******
      ****** ****** ****** ****** ****** ****** ****** ****** ****** ******
   5  ****** ****** ****** ****** ****** ****** ****** ****** ****** ******
      ****** ****** ****** ****** ****** ****** ****** ****** ****** ******
      ****** ****** ****** ****** ****** ****** ****** ****** ****** ******
   6  ****** ****** ****** ****** ****** ****** ****** ****** ****** ******
      ****** ****** ****** ****** ****** ****** ****** ****** ****** ******
      ****** ****** ****** ****** ****** ****** ****** ****** ****** ******
   7  ****** ****** ****** ****** ****** ****** ****** ****** ****** ******
      ****** ****** ****** ****** ****** ****** ****** ****** ****** ******
      ****** ****** ****** ****** ****** ****** ****** ****** ****** ******
   8  ****** ****** ****** ****** ****** ****** ****** ****** ****** ******
      ****** ****** ****** ****** ****** ****** ****** ****** ****** ******
      ****** ****** ****** ****** ****** ****** ****** ****** ****** ******
   9  ****** ****** ****** ****** ****** ****** ****** ****** ****** ******
      ****** ****** ****** ****** ****** ****** ****** ****** ****** ******
      ****** ****** ****** ****** ****** ****** ****** ****** ****** ******
  10  ****** ****** ****** ****** ****** ****** ****** ****** ****** ******
      ****** ****** ****** ****** ****** ****** ****** ****** ****** ******
      ****** ****** ****** ****** ****** ****** ****** ****** ****** ******
  11  ****** ****** ****** ****** ****** ****** ****** ****** ****** ******
      ****** ****** ****** ****** ****** ****** ****** ****** ****** ******
      ****** ****** ****** ****** ****** ****** ****** ****** ****** ******
  12  ****** ****** ****** ****** ****** ****** ****** ****** ****** ******
      ****** ****** ****** ****** ****** ****** ****** ****** ****** ******
      ****** ****** ****** ****** ****** ****** ****** ****** ****** ******
  13  ****** ****** ****** ****** ****** ****** ****** ****** ****** ******
      ****** ****** ****** ****** ****** ****** ****** ****** ****** ******
      ****** ****** ****** ****** ****** ****** ****** ****** ****** ******
  14  ****** ****** ****** ****** ****** ****** ****** ****** ****** ******
      ****** ****** ****** ****** ****** ****** ****** ****** ****** ******
      ****** ****** ****** ****** ****** ****** ****** ****** ****** ******
  15  ****** ****** ****** ****** ****** ****** ****** ****** ****** ******
      ****** ****** ****** ****** ****** ****** ****** ****** ****** ******
      ****** ****** ****** ****** ****** ****** ****** ****** ****** ******
  16  ****** ****** ****** ****** ****** ****** ****** ****** ****** ******
      ****** ****** ****** ****** ****** ****** ****** ****** ****** ******
      ****** ****** ****** ****** ****** ****** ****** ****** ****** ******
  17  ****** ****** ****** ****** ****** ****** ****** ****** ****** ******
      ****** ****** ****** ****** ****** ****** ****** ****** ****** ******
      ****** ****** ****** ****** ****** ****** ****** ****** ****** ******
  18  ****** ****** ****** ****** ****** ****** ****** ****** ****** ******
      ****** ****** ****** ****** ****** ****** ****** ****** ****** ******
      ****** ****** ****** ****** ****** ****** ****** ****** ****** ******
  19  ****** ****** ****** ****** ****** ****** ****** ****** ****** ******
      ****** ****** ****** ****** ****** ****** ****** ****** ****** ******
      ****** ****** ****** ****** ****** ****** ****** ****** ****** ******
  20  ****** ****** ****** ****** ****** ****** ****** ****** ****** ******
      ****** ****** ****** ****** ****** ****** ****** ****** ****** ******
      ****** ****** ****** ****** ****** ****** ****** ****** ****** ******
  21  ****** ****** ****** ****** ****** ****** ****** ****** ****** ******
      ****** ****** ****** ****** ****** ****** ****** ****** ****** ******
      ****** ****** ****** ****** ****** ****** ****** ****** ****** ******
  22  ****** ****** ****** ****** ****** ****** ****** ****** ****** ******
      ****** ****** ****** ****** ****** ****** ****** ****** ****** ******
      ****** ****** ****** ****** ****** ****** ****** ****** ****** ******
  23  ****** ****** ****** ****** ****** ****** ****** ****** ****** ******
      ****** ****** ****** ****** ****** ****** ****** ****** ****** ******
      ****** ****** ****** ****** ****** ****** ****** ****** ****** ******
  24  ****** ****** ****** ****** ****** ****** ****** ****** ****** ******
      ****** ****** ****** ****** ****** ****** ****** ****** ****** ******
      ****** ****** ****** ****** ****** ****** ****** ****** ****** ******
  25  ****** ****** ****** ****** ****** ****** ****** ****** ****** ******
      ****** ****** ****** ****** ****** ****** ****** ****** ****** ******
      ****** ****** ****** ****** ****** ****** ****** ****** ****** ******

 HEAD WILL BE SAVED ON UNIT   51 AT END OF TIME STEP    1, STRESS PERIOD   10
1
  VOLUMETRIC BUDGET FOR ENTIRE MODEL AT END OF TIME STEP    1, STRESS PERIOD  10
  ------------------------------------------------------------------------------

     CUMULATIVE VOLUMES      L**3       RATES FOR THIS TIME STEP      L**3/T
     ------------------                 ------------------------

           IN:                                      IN:
           ---                                      ---
             STORAGE =    32908431.5139               STORAGE =           0.0000
       CONSTANT HEAD =    24021922.3618         CONSTANT HEAD =       29605.1203
               WELLS =           0.0000                 WELLS =           0.0000
            RECHARGE =    23901600.0000              RECHARGE =       55200.0000
      STREAM LEAKAGE =    12160639.3430        STREAM LEAKAGE =       13701.5373

            TOTAL IN =    92992593.2187              TOTAL IN =       98506.6577

          OUT:                                     OUT:
          ----                                     ----
             STORAGE =     2426317.2586               STORAGE =       15807.3934
       CONSTANT HEAD =           0.0000         CONSTANT HEAD =           0.0000
               WELLS =    31445824.9513                 WELLS =       34442.3055
            RECHARGE =           0.0000              RECHARGE =           0.0000
      STREAM LEAKAGE =    59120452.6031        STREAM LEAKAGE =       48256.9554

           TOTAL OUT =    92992594.8130             TOTAL OUT =       98506.6543

            IN - OUT =          -1.5943              IN - OUT =       3.3571E-03

 PERCENT DISCREPANCY =          -0.00     PERCENT DISCREPANCY =           0.00






         TIME SUMMARY AT END OF TIME STEP    1 IN STRESS PERIOD   10
                    SECONDS     MINUTES      HOURS       DAYS        YEARS
                    -----------------------------------------------------------
   TIME STEP LENGTH 7.86240E+06 1.31040E+05  2184.0      91.000     0.24914    
 STRESS PERIOD TIME 7.86240E+06 1.31040E+05  2184.0      91.000     0.24914    
         TOTAL TIME 7.88832E+07 1.31472E+06  21912.      913.00      2.4997    
1
1
                            STRESS PERIOD NO.   11, LENGTH =   91.00000    
                            -----------------------------------------------

                              NUMBER OF TIME STEPS =     1

                               MULTIPLIER FOR DELT =     1.500

                            INITIAL TIME STEP SIZE =   91.00000    

 WELL NO.  LAYER   ROW   COL   STRESS RATE         
 --------------------------------------------------
      1      1     19     11     -0.1013E+05
      2      1     15     28      -7561.    
      3      1     15      7      -2227.    
      4      1     12     26     -0.1452E+05

      4 WELLS

                 RECHARGE =   0.00000    

 REUSING STREAM SEGMENT DATA FROM LAST STRESS PERIOD
 
 SOLVING FOR HEAD 


     7 CALLS TO PCG ROUTINE FOR TIME STEP   1 IN STRESS PERIOD   11
    26 TOTAL ITERATIONS

 OUTPUT CONTROL FOR STRESS PERIOD   11   TIME STEP    1
    SAVE BUDGET
    SAVE HEAD FOR ALL LAYERS
    PRINT HEAD FOR ALL LAYERS
 UBDSV2 SAVING "STREAMFLOW OUT  " ON UNIT  50 AT TIME STEP  1, STRESS PERIOD  11



 STREAM LISTING     PERIOD     11   STEP        1

 LAYER ROW COL. STREAM  RCH.  FLOW INTO     FLOW TO   FLOW OUT OF   OVRLND.     DIRECT     STREAM       STREAM     STREAM     STREAM   STREAMBED  STREAMBED
                SEG.NO.  NO.  STRM. RCH.    AQUIFER    STRM. RCH.    RUNOFF     PRECIP       ET          HEAD       DEPTH      WIDTH   CONDCTNC.   GRADIENT

   1   13    1     1     1    1.0000E+05 -1.4819E+03   1.0148E+05  0.000E+00  0.000E+00  0.000E+00  4.84067E+01  1.453E-01  2.000E+01  2.000E+04 -7.410E-02
   1   13    2     1     2    1.0148E+05 -2.3993E+03   1.0388E+05  0.000E+00  0.000E+00  0.000E+00  4.79311E+01  1.470E-01  2.000E+01  2.000E+04 -1.200E-01
   1   14    3     1     3    1.0388E+05 -3.0405E+02   1.0419E+05  0.000E+00  0.000E+00  0.000E+00  4.74549E+01  1.481E-01  2.000E+01  2.000E+04 -1.520E-02
   1   15    4     1     4    1.0419E+05 -2.1490E+02   1.0440E+05  0.000E+00  0.000E+00  0.000E+00  4.69779E+01  1.483E-01  2.000E+01  2.000E+04 -1.074E-02
   1   16    5     1     5    1.0440E+05 -8.2213E+02   1.0522E+05  0.000E+00  0.000E+00  0.000E+00  4.65011E+01  1.488E-01  2.000E+01  2.000E+04 -4.111E-02
   1   16    6     1     6    1.0522E+05 -2.2783E+02   1.0545E+05  0.000E+00  0.000E+00  0.000E+00  4.60242E+01  1.492E-01  2.000E+01  2.000E+04 -1.139E-02
   1   16    7     1     7    1.0545E+05  5.7329E+02   1.0488E+05  0.000E+00  0.000E+00  0.000E+00  4.55468E+01  1.491E-01  2.000E+01  2.000E+04  2.866E-02
   1   16    8     1     8    1.0488E+05  1.6804E+01   1.0486E+05  0.000E+00  0.000E+00  0.000E+00  4.50693E+01  1.488E-01  2.000E+01  2.000E+04  8.402E-04
   1   16    9     1     9    1.0486E+05  1.8425E+01   1.0484E+05  0.000E+00  0.000E+00  0.000E+00  4.45920E+01  1.488E-01  2.000E+01  2.000E+04  9.213E-04
   1   16   10     1    10    1.0484E+05  2.0930E+02   1.0463E+05  0.000E+00  0.000E+00  0.000E+00  4.41146E+01  1.487E-01  2.000E+01  2.000E+04  1.046E-02
   1   16   11     1    11    1.0463E+05  3.7063E+02   1.0426E+05  0.000E+00  0.000E+00  0.000E+00  4.36371E+01  1.485E-01  2.000E+01  2.000E+04  1.853E-02
   1   16   12     1    12    1.0426E+05 -7.9478E+01   1.0434E+05  0.000E+00  0.000E+00  0.000E+00  4.31597E+01  1.484E-01  2.000E+01  2.000E+04 -3.974E-03
   1   15   13     1    13    1.0434E+05 -8.5690E+02   1.0520E+05  0.000E+00  0.000E+00  0.000E+00  4.26828E+01  1.488E-01  2.000E+01  2.000E+04 -4.284E-02
   1   14   14     1    14    1.0520E+05 -1.4075E+03   1.0661E+05  0.000E+00  0.000E+00  0.000E+00  4.22065E+01  1.497E-01  2.000E+01  2.000E+04 -7.038E-02
   1   13   15     1    15    1.0661E+05 -1.8601E+03   1.0847E+05  0.000E+00  0.000E+00  0.000E+00  4.17306E+01  1.511E-01  2.000E+01  2.000E+04 -9.300E-02
   1   12   16     1    16    1.0847E+05 -2.6195E+03   1.1109E+05  0.000E+00  0.000E+00  0.000E+00  4.12553E+01  1.530E-01  2.000E+01  2.000E+04 -1.310E-01
   1   12   17     1    17    1.1109E+05 -1.6819E+03   1.1277E+05  0.000E+00  0.000E+00  0.000E+00  4.07798E+01  1.548E-01  2.000E+01  2.000E+04 -8.410E-02
   1   12   18     1    18    1.1277E+05 -1.6113E+03   1.1438E+05  0.000E+00  0.000E+00  0.000E+00  4.03039E+01  1.561E-01  2.000E+01  2.000E+04 -8.057E-02
   1   12   19     1    19    1.1438E+05 -2.1454E+03   1.1652E+05  0.000E+00  0.000E+00  0.000E+00  3.98281E+01  1.577E-01  2.000E+01  2.000E+04 -1.073E-01
   1   13   20     1    20    1.1652E+05 -1.4957E+03   1.1802E+05  0.000E+00  0.000E+00  0.000E+00  3.93523E+01  1.592E-01  2.000E+01  2.000E+04 -7.478E-02
   1   14   21     1    21    1.1802E+05 -1.2643E+03   1.1928E+05  0.000E+00  0.000E+00  0.000E+00  3.88762E+01  1.603E-01  2.000E+01  2.000E+04 -6.321E-02
   1   14   22     1    22    1.1928E+05  5.0597E+03   1.1422E+05  0.000E+00  0.000E+00  0.000E+00  3.83974E+01  1.587E-01  2.000E+01  2.000E+04  2.530E-01
   1    9   30     2     1    5.0000E+04  4.3505E+02   4.9565E+04  0.000E+00  0.000E+00  0.000E+00  4.02406E+01  1.156E-01  2.000E+01  2.000E+04  2.175E-02
   1    9   29     2     2    4.9565E+04  1.8235E+02   4.9383E+04  0.000E+00  0.000E+00  0.000E+00  3.99901E+01  1.151E-01  2.000E+01  2.000E+04  9.118E-03
   1    9   28     2     3    4.9383E+04 -1.9507E+01   4.9402E+04  0.000E+00  0.000E+00  0.000E+00  3.97400E+01  1.150E-01  2.000E+01  2.000E+04 -9.754E-04
   1    9   27     2     4    4.9402E+04 -1.2990E+03   5.0701E+04  0.000E+00  0.000E+00  0.000E+00  3.94909E+01  1.159E-01  2.000E+01  2.000E+04 -6.495E-02
   1   10   26     2     5    5.0701E+04  1.9994E+03   4.8702E+04  0.000E+00  0.000E+00  0.000E+00  3.92404E+01  1.154E-01  2.000E+01  2.000E+04  9.997E-02
   1   11   25     2     6    4.8702E+04  3.8196E+03   4.4882E+04  0.000E+00  0.000E+00  0.000E+00  3.89863E+01  1.113E-01  2.000E+01  2.000E+04  1.910E-01
   1   12   24     2     7    4.4882E+04  1.3781E+03   4.3504E+04  0.000E+00  0.000E+00  0.000E+00  3.87326E+01  1.076E-01  2.000E+01  2.000E+04  6.891E-02
   1   13   23     2     8    4.3504E+04 -1.0880E+02   4.3613E+04  0.000E+00  0.000E+00  0.000E+00  3.84817E+01  1.067E-01  2.000E+01  2.000E+04 -5.440E-03
   1   14   22     2     9    4.3613E+04  1.7217E+03   4.1891E+04  0.000E+00  0.000E+00  0.000E+00  3.82305E+01  1.055E-01  2.000E+01  2.000E+04  8.608E-02
   1   14   22     3     1    1.5612E+05 -8.5891E+03   1.6470E+05  0.000E+00  0.000E+00  0.000E+00  3.77149E+01  1.594E-01  2.000E+01  2.000E+04 -4.295E-01
   1   15   23     3     2    1.6470E+05 -4.2670E+02   1.6513E+05  0.000E+00  0.000E+00  0.000E+00  3.68287E+01  1.621E-01  2.000E+01  2.000E+04 -2.133E-02
   1   15   24     3     3    1.6513E+05 -1.5347E+02   1.6528E+05  0.000E+00  0.000E+00  0.000E+00  3.59400E+01  1.622E-01  2.000E+01  2.000E+04 -7.673E-03
   1   15   25     3     4    1.6528E+05 -6.2828E+01   1.6535E+05  0.000E+00  0.000E+00  0.000E+00  3.50512E+01  1.623E-01  2.000E+01  2.000E+04 -3.141E-03
   1   15   26     3     5    1.6535E+05  2.9622E+02   1.6505E+05  0.000E+00  0.000E+00  0.000E+00  3.41622E+01  1.622E-01  2.000E+01  2.000E+04  1.481E-02
   1   16   27     3     6    1.6505E+05  5.0632E+02   1.6454E+05  0.000E+00  0.000E+00  0.000E+00  3.32731E+01  1.620E-01  2.000E+01  2.000E+04  2.532E-02
   1   17   28     3     7    1.6454E+05  1.9837E+03   1.6256E+05  0.000E+00  0.000E+00  0.000E+00  3.23835E+01  1.612E-01  2.000E+01  2.000E+04  9.918E-02
   1   18   29     3     8    1.6256E+05 -1.7502E+03   1.6431E+05  0.000E+00  0.000E+00  0.000E+00  3.14945E+01  1.612E-01  2.000E+01  2.000E+04 -8.751E-02
   1   18   30     3     9    1.6431E+05 -1.9845E+03   1.6630E+05  0.000E+00  0.000E+00  0.000E+00  3.06067E+01  1.623E-01  2.000E+01  2.000E+04 -9.923E-02



1
              HEAD IN LAYER   1 AT END OF TIME STEP   1 IN STRESS PERIOD   11
  ---------------------------------------------------------------------------

          1      2      3      4      5      6      7      8      9     10
         11     12     13     14     15     16     17     18     19     20
         21     22     23     24     25     26     27     28     29     30
 .........................................................................
   1  ****** ****** ****** ****** ****** ****** ****** ****** ****** ******
      ****** ****** ****** ****** ****** ****** ****** ****** ****** ******
      ****** ****** ****** ****** ****** ****** ****** ****** ****** ******
   2  ****** ****** ****** ****** ****** ****** ****** ****** ****** ******
      ****** ****** ****** ****** ****** ****** ****** ****** ****** ******
      ****** ****** ****** ****** ****** ****** ****** ****** ****** ******
   3  ****** ****** ****** ****** ****** ****** ****** ****** ****** ******
      ****** ****** ****** ****** ****** ****** ****** ****** ****** ******
      ****** ****** ****** ****** ****** ****** ****** ****** ****** ******
   4  ****** ****** ****** ****** ****** ****** ****** ****** ****** ******
      ****** ****** ****** ****** ****** ****** ****** ****** ****** ******
      ****** ****** ****** ****** ****** ****** ****** ****** ****** ******
   5  ****** ****** ****** ****** ****** ****** ****** ****** ****** ******
      ****** ****** ****** ****** ****** ****** ****** ****** ****** ******
      ****** ****** ****** ****** ****** ****** ****** ****** ****** ******
   6  ****** ****** ****** ****** ****** ****** ****** ****** ****** ******
      ****** ****** ****** ****** ****** ****** ****** ****** ****** ******
      ****** ****** ****** ****** ****** ****** ****** ****** ****** ******
   7  ****** ****** ****** ****** ****** ****** ****** ****** ****** ******
      ****** ****** ****** ****** ****** ****** ****** ****** ****** ******
      ****** ****** ****** ****** ****** ****** ****** ****** ****** ******
   8  ****** ****** ****** ****** ****** ****** ****** ****** ****** ******
      ****** ****** ****** ****** ****** ****** ****** ****** ****** ******
      ****** ****** ****** ****** ****** ****** ****** ****** ****** ******
   9  ****** ****** ****** ****** ****** ****** ****** ****** ****** ******
      ****** ****** ****** ****** ****** ****** ****** ****** ****** ******
      ****** ****** ****** ****** ****** ****** ****** ****** ****** ******
  10  ****** ****** ****** ****** ****** ****** ****** ****** ****** ******
      ****** ****** ****** ****** ****** ****** ****** ****** ****** ******
      ****** ****** ****** ****** ****** ****** ****** ****** ****** ******
  11  ****** ****** ****** ****** ****** ****** ****** ****** ****** ******
      ****** ****** ****** ****** ****** ****** ****** ****** ****** ******
      ****** ****** ****** ****** ****** ****** ****** ****** ****** ******
  12  ****** ****** ****** ****** ****** ****** ****** ****** ****** ******
      ****** ****** ****** ****** ****** ****** ****** ****** ****** ******
      ****** ****** ****** ****** ****** ****** ****** ****** ****** ******
  13  ****** ****** ****** ****** ****** ****** ****** ****** ****** ******
      ****** ****** ****** ****** ****** ****** ****** ****** ****** ******
      ****** ****** ****** ****** ****** ****** ****** ****** ****** ******
  14  ****** ****** ****** ****** ****** ****** ****** ****** ****** ******
      ****** ****** ****** ****** ****** ****** ****** ****** ****** ******
      ****** ****** ****** ****** ****** ****** ****** ****** ****** ******
  15  ****** ****** ****** ****** ****** ****** ****** ****** ****** ******
      ****** ****** ****** ****** ****** ****** ****** ****** ****** ******
      ****** ****** ****** ****** ****** ****** ****** ****** ****** ******
  16  ****** ****** ****** ****** ****** ****** ****** ****** ****** ******
      ****** ****** ****** ****** ****** ****** ****** ****** ****** ******
      ****** ****** ****** ****** ****** ****** ****** ****** ****** ******
  17  ****** ****** ****** ****** ****** ****** ****** ****** ****** ******
      ****** ****** ****** ****** ****** ****** ****** ****** ****** ******
      ****** ****** ****** ****** ****** ****** ****** ****** ****** ******
  18  ****** ****** ****** ****** ****** ****** ****** ****** ****** ******
      ****** ****** ****** ****** ****** ****** ****** ****** ****** ******
      ****** ****** ****** ****** ****** ****** ****** ****** ****** ******
  19  ****** ****** ****** ****** ****** ****** ****** ****** ****** ******
      ****** ****** ****** ****** ****** ****** ****** ****** ****** ******
      ****** ****** ****** ****** ****** ****** ****** ****** ****** ******
  20  ****** ****** ****** ****** ****** ****** ****** ****** ****** ******
      ****** ****** ****** ****** ****** ****** ****** ****** ****** ******
      ****** ****** ****** ****** ****** ****** ****** ****** ****** ******
  21  ****** ****** ****** ****** ****** ****** ****** ****** ****** ******
      ****** ****** ****** ****** ****** ****** ****** ****** ****** ******
      ****** ****** ****** ****** ****** ****** ****** ****** ****** ******
  22  ****** ****** ****** ****** ****** ****** ****** ****** ****** ******
      ****** ****** ****** ****** ****** ****** ****** ****** ****** ******
      ****** ****** ****** ****** ****** ****** ****** ****** ****** ******
  23  ****** ****** ****** ****** ****** ****** ****** ****** ****** ******
      ****** ****** ****** ****** ****** ****** ****** ****** ****** ******
      ****** ****** ****** ****** ****** ****** ****** ****** ****** ******
  24  ****** ****** ****** ****** ****** ****** ****** ****** ****** ******
      ****** ****** ****** ****** ****** ****** ****** ****** ****** ******
      ****** ****** ****** ****** ****** ****** ****** ****** ****** ******
  25  ****** ****** ****** ****** ****** ****** ****** ****** ****** ******
      ****** ****** ****** ****** ****** ****** ****** ****** ****** ******
      ****** ****** ****** ****** ****** ****** ****** ****** ****** ******

 HEAD WILL BE SAVED ON UNIT   51 AT END OF TIME STEP    1, STRESS PERIOD   11
1
  VOLUMETRIC BUDGET FOR ENTIRE MODEL AT END OF TIME STEP    1, STRESS PERIOD  11
  ------------------------------------------------------------------------------

     CUMULATIVE VOLUMES      L**3       RATES FOR THIS TIME STEP      L**3/T
     ------------------                 ------------------------

           IN:                                      IN:
           ---                                      ---
             STORAGE =    34533434.6742               STORAGE =       17857.1776
       CONSTANT HEAD =    27014087.0321         CONSTANT HEAD =       32880.9304
               WELLS =           0.0000                 WELLS =           0.0000
            RECHARGE =    23901600.0000              RECHARGE =           0.0000
      STREAM LEAKAGE =    13850563.5410        STREAM LEAKAGE =       18570.5956

            TOTAL IN =    99299685.2473              TOTAL IN =       69308.7036

          OUT:                                     OUT:
          ----                                     ----
             STORAGE =     2426317.2586               STORAGE =           0.0000
       CONSTANT HEAD =           0.0000         CONSTANT HEAD =           0.0000
               WELLS =    34580074.7548                 WELLS =       34442.3055
            RECHARGE =           0.0000              RECHARGE =           0.0000
      STREAM LEAKAGE =    62293295.2770        STREAM LEAKAGE =       34866.4030

           TOTAL OUT =    99299687.2904             TOTAL OUT =       69308.7085

            IN - OUT =          -2.0431              IN - OUT =      -4.9318E-03

 PERCENT DISCREPANCY =          -0.00     PERCENT DISCREPANCY =          -0.00






         TIME SUMMARY AT END OF TIME STEP    1 IN STRESS PERIOD   11
                    SECONDS     MINUTES      HOURS       DAYS        YEARS
                    -----------------------------------------------------------
   TIME STEP LENGTH 7.86240E+06 1.31040E+05  2184.0      91.000     0.24914    
 STRESS PERIOD TIME 7.86240E+06 1.31040E+05  2184.0      91.000     0.24914    
         TOTAL TIME 8.67456E+07 1.44576E+06  24096.      1004.0      2.7488    
1
1
                            STRESS PERIOD NO.   12, LENGTH =   91.00000    
                            -----------------------------------------------

                              NUMBER OF TIME STEPS =     1

                               MULTIPLIER FOR DELT =     1.500

                            INITIAL TIME STEP SIZE =   91.00000    

 WELL NO.  LAYER   ROW   COL   STRESS RATE         
 --------------------------------------------------
      1      1     19     11     -0.1013E+05
      2      1     15     28      -7561.    
      3      1     15      7      -2227.    
      4      1     12     26     -0.1452E+05

      4 WELLS

                 RECHARGE =  1.000000E-03

 REUSING STREAM SEGMENT DATA FROM LAST STRESS PERIOD
 
 SOLVING FOR HEAD 


     7 CALLS TO PCG ROUTINE FOR TIME STEP   1 IN STRESS PERIOD   12
    24 TOTAL ITERATIONS

 OUTPUT CONTROL FOR STRESS PERIOD   12   TIME STEP    1
    SAVE BUDGET
    SAVE HEAD FOR ALL LAYERS
    PRINT HEAD FOR ALL LAYERS
 UBDSV2 SAVING "STREAMFLOW OUT  " ON UNIT  50 AT TIME STEP  1, STRESS PERIOD  12



 STREAM LISTING     PERIOD     12   STEP        1

 LAYER ROW COL. STREAM  RCH.  FLOW INTO     FLOW TO   FLOW OUT OF   OVRLND.     DIRECT     STREAM       STREAM     STREAM     STREAM   STREAMBED  STREAMBED
                SEG.NO.  NO.  STRM. RCH.    AQUIFER    STRM. RCH.    RUNOFF     PRECIP       ET          HEAD       DEPTH      WIDTH   CONDCTNC.   GRADIENT

   1   13    1     1     1    1.0000E+05 -1.6278E+03   1.0163E+05  0.000E+00  0.000E+00  0.000E+00  4.84067E+01  1.454E-01  2.000E+01  2.000E+04 -8.139E-02
   1   13    2     1     2    1.0163E+05 -2.5563E+03   1.0418E+05  0.000E+00  0.000E+00  0.000E+00  4.79313E+01  1.472E-01  2.000E+01  2.000E+04 -1.278E-01
   1   14    3     1     3    1.0418E+05 -3.8287E+02   1.0457E+05  0.000E+00  0.000E+00  0.000E+00  4.74552E+01  1.484E-01  2.000E+01  2.000E+04 -1.914E-02
   1   15    4     1     4    1.0457E+05 -2.9746E+02   1.0486E+05  0.000E+00  0.000E+00  0.000E+00  4.69783E+01  1.487E-01  2.000E+01  2.000E+04 -1.487E-02
   1   16    5     1     5    1.0486E+05 -1.0320E+03   1.0590E+05  0.000E+00  0.000E+00  0.000E+00  4.65015E+01  1.493E-01  2.000E+01  2.000E+04 -5.160E-02
   1   16    6     1     6    1.0590E+05 -3.5846E+02   1.0625E+05  0.000E+00  0.000E+00  0.000E+00  4.60249E+01  1.499E-01  2.000E+01  2.000E+04 -1.792E-02
   1   16    7     1     7    1.0625E+05  4.4771E+02   1.0581E+05  0.000E+00  0.000E+00  0.000E+00  4.55476E+01  1.498E-01  2.000E+01  2.000E+04  2.239E-02
   1   16    8     1     8    1.0581E+05 -1.0773E+02   1.0591E+05  0.000E+00  0.000E+00  0.000E+00  4.50701E+01  1.497E-01  2.000E+01  2.000E+04 -5.386E-03
   1   16    9     1     9    1.0591E+05 -1.0651E+02   1.0602E+05  0.000E+00  0.000E+00  0.000E+00  4.45930E+01  1.498E-01  2.000E+01  2.000E+04 -5.326E-03
   1   16   10     1    10    1.0602E+05  8.3074E+01   1.0594E+05  0.000E+00  0.000E+00  0.000E+00  4.41157E+01  1.498E-01  2.000E+01  2.000E+04  4.154E-03
   1   16   11     1    11    1.0594E+05  2.4223E+02   1.0570E+05  0.000E+00  0.000E+00  0.000E+00  4.36383E+01  1.496E-01  2.000E+01  2.000E+04  1.211E-02
   1   16   12     1    12    1.0570E+05 -2.8144E+02   1.0598E+05  0.000E+00  0.000E+00  0.000E+00  4.31610E+01  1.497E-01  2.000E+01  2.000E+04 -1.407E-02
   1   15   13     1    13    1.0598E+05 -1.0745E+03   1.0705E+05  0.000E+00  0.000E+00  0.000E+00  4.26843E+01  1.502E-01  2.000E+01  2.000E+04 -5.373E-02
   1   14   14     1    14    1.0705E+05 -1.6260E+03   1.0868E+05  0.000E+00  0.000E+00  0.000E+00  4.22082E+01  1.514E-01  2.000E+01  2.000E+04 -8.130E-02
   1   13   15     1    15    1.0868E+05 -2.0715E+03   1.1075E+05  0.000E+00  0.000E+00  0.000E+00  4.17325E+01  1.529E-01  2.000E+01  2.000E+04 -1.036E-01
   1   12   16     1    16    1.1075E+05 -2.8049E+03   1.1355E+05  0.000E+00  0.000E+00  0.000E+00  4.12572E+01  1.550E-01  2.000E+01  2.000E+04 -1.402E-01
   1   12   17     1    17    1.1355E+05 -1.8364E+03   1.1539E+05  0.000E+00  0.000E+00  0.000E+00  4.07819E+01  1.569E-01  2.000E+01  2.000E+04 -9.182E-02
   1   12   18     1    18    1.1539E+05 -1.7678E+03   1.1716E+05  0.000E+00  0.000E+00  0.000E+00  4.03061E+01  1.583E-01  2.000E+01  2.000E+04 -8.839E-02
   1   12   19     1    19    1.1716E+05 -2.3388E+03   1.1950E+05  0.000E+00  0.000E+00  0.000E+00  3.98305E+01  1.600E-01  2.000E+01  2.000E+04 -1.169E-01
   1   13   20     1    20    1.1950E+05 -1.7065E+03   1.2120E+05  0.000E+00  0.000E+00  0.000E+00  3.93548E+01  1.617E-01  2.000E+01  2.000E+04 -8.533E-02
   1   14   21     1    21    1.2120E+05 -1.4586E+03   1.2266E+05  0.000E+00  0.000E+00  0.000E+00  3.88788E+01  1.629E-01  2.000E+01  2.000E+04 -7.293E-02
   1   14   22     1    22    1.2266E+05  5.0050E+03   1.1766E+05  0.000E+00  0.000E+00  0.000E+00  3.84001E+01  1.615E-01  2.000E+01  2.000E+04  2.502E-01
   1    9   30     2     1    5.0000E+04  2.5842E+02   4.9742E+04  0.000E+00  0.000E+00  0.000E+00  4.02407E+01  1.157E-01  2.000E+01  2.000E+04  1.292E-02
   1    9   29     2     2    4.9742E+04  7.7528E+00   4.9734E+04  0.000E+00  0.000E+00  0.000E+00  3.99905E+01  1.155E-01  2.000E+01  2.000E+04  3.876E-04
   1    9   28     2     3    4.9734E+04 -1.9063E+02   4.9924E+04  0.000E+00  0.000E+00  0.000E+00  3.97406E+01  1.156E-01  2.000E+01  2.000E+04 -9.531E-03
   1    9   27     2     4    4.9924E+04 -1.5088E+03   5.1433E+04  0.000E+00  0.000E+00  0.000E+00  3.94918E+01  1.168E-01  2.000E+01  2.000E+04 -7.544E-02
   1   10   26     2     5    5.1433E+04  1.7691E+03   4.9664E+04  0.000E+00  0.000E+00  0.000E+00  3.92416E+01  1.166E-01  2.000E+01  2.000E+04  8.845E-02
   1   11   25     2     6    4.9664E+04  3.5932E+03   4.6071E+04  0.000E+00  0.000E+00  0.000E+00  3.89879E+01  1.129E-01  2.000E+01  2.000E+04  1.797E-01
   1   12   24     2     7    4.6071E+04  1.1716E+03   4.4899E+04  0.000E+00  0.000E+00  0.000E+00  3.87345E+01  1.095E-01  2.000E+01  2.000E+04  5.858E-02
   1   13   23     2     8    4.4899E+04 -1.8647E+02   4.5086E+04  0.000E+00  0.000E+00  0.000E+00  3.84838E+01  1.088E-01  2.000E+01  2.000E+04 -9.323E-03
   1   14   22     2     9    4.5086E+04  1.6559E+03   4.3430E+04  0.000E+00  0.000E+00  0.000E+00  3.82327E+01  1.077E-01  2.000E+01  2.000E+04  8.280E-02
   1   14   22     3     1    1.6109E+05 -8.6398E+03   1.6973E+05  0.000E+00  0.000E+00  0.000E+00  3.77179E+01  1.623E-01  2.000E+01  2.000E+04 -4.320E-01
   1   15   23     3     2    1.6973E+05 -4.9876E+02   1.7023E+05  0.000E+00  0.000E+00  0.000E+00  3.68317E+01  1.650E-01  2.000E+01  2.000E+04 -2.494E-02
   1   15   24     3     3    1.7023E+05 -2.1857E+02   1.7044E+05  0.000E+00  0.000E+00  0.000E+00  3.59430E+01  1.652E-01  2.000E+01  2.000E+04 -1.093E-02
   1   15   25     3     4    1.7044E+05 -1.2920E+02   1.7057E+05  0.000E+00  0.000E+00  0.000E+00  3.50542E+01  1.653E-01  2.000E+01  2.000E+04 -6.460E-03
   1   15   26     3     5    1.7057E+05  2.1873E+02   1.7036E+05  0.000E+00  0.000E+00  0.000E+00  3.41653E+01  1.653E-01  2.000E+01  2.000E+04  1.094E-02
   1   16   27     3     6    1.7036E+05  4.1952E+02   1.6994E+05  0.000E+00  0.000E+00  0.000E+00  3.32762E+01  1.651E-01  2.000E+01  2.000E+04  2.098E-02
   1   17   28     3     7    1.6994E+05  1.7629E+03   1.6817E+05  0.000E+00  0.000E+00  0.000E+00  3.23867E+01  1.645E-01  2.000E+01  2.000E+04  8.814E-02
   1   18   29     3     8    1.6817E+05 -1.9510E+03   1.7012E+05  0.000E+00  0.000E+00  0.000E+00  3.14979E+01  1.645E-01  2.000E+01  2.000E+04 -9.755E-02
   1   18   30     3     9    1.7012E+05 -2.1528E+03   1.7228E+05  0.000E+00  0.000E+00  0.000E+00  3.06102E+01  1.657E-01  2.000E+01  2.000E+04 -1.076E-01



1
              HEAD IN LAYER   1 AT END OF TIME STEP   1 IN STRESS PERIOD   12
  ---------------------------------------------------------------------------

          1      2      3      4      5      6      7      8      9     10
         11     12     13     14     15     16     17     18     19     20
         21     22     23     24     25     26     27     28     29     30
 .........................................................................
   1  ****** ****** ****** ****** ****** ****** ****** ****** ****** ******
      ****** ****** ****** ****** ****** ****** ****** ****** ****** ******
      ****** ****** ****** ****** ****** ****** ****** ****** ****** ******
   2  ****** ****** ****** ****** ****** ****** ****** ****** ****** ******
      ****** ****** ****** ****** ****** ****** ****** ****** ****** ******
      ****** ****** ****** ****** ****** ****** ****** ****** ****** ******
   3  ****** ****** ****** ****** ****** ****** ****** ****** ****** ******
      ****** ****** ****** ****** ****** ****** ****** ****** ****** ******
      ****** ****** ****** ****** ****** ****** ****** ****** ****** ******
   4  ****** ****** ****** ****** ****** ****** ****** ****** ****** ******
      ****** ****** ****** ****** ****** ****** ****** ****** ****** ******
      ****** ****** ****** ****** ****** ****** ****** ****** ****** ******
   5  ****** ****** ****** ****** ****** ****** ****** ****** ****** ******
      ****** ****** ****** ****** ****** ****** ****** ****** ****** ******
      ****** ****** ****** ****** ****** ****** ****** ****** ****** ******
   6  ****** ****** ****** ****** ****** ****** ****** ****** ****** ******
      ****** ****** ****** ****** ****** ****** ****** ****** ****** ******
      ****** ****** ****** ****** ****** ****** ****** ****** ****** ******
   7  ****** ****** ****** ****** ****** ****** ****** ****** ****** ******
      ****** ****** ****** ****** ****** ****** ****** ****** ****** ******
      ****** ****** ****** ****** ****** ****** ****** ****** ****** ******
   8  ****** ****** ****** ****** ****** ****** ****** ****** ****** ******
      ****** ****** ****** ****** ****** ****** ****** ****** ****** ******
      ****** ****** ****** ****** ****** ****** ****** ****** ****** ******
   9  ****** ****** ****** ****** ****** ****** ****** ****** ****** ******
      ****** ****** ****** ****** ****** ****** ****** ****** ****** ******
      ****** ****** ****** ****** ****** ****** ****** ****** ****** ******
  10  ****** ****** ****** ****** ****** ****** ****** ****** ****** ******
      ****** ****** ****** ****** ****** ****** ****** ****** ****** ******
      ****** ****** ****** ****** ****** ****** ****** ****** ****** ******
  11  ****** ****** ****** ****** ****** ****** ****** ****** ****** ******
      ****** ****** ****** ****** ****** ****** ****** ****** ****** ******
      ****** ****** ****** ****** ****** ****** ****** ****** ****** ******
  12  ****** ****** ****** ****** ****** ****** ****** ****** ****** ******
      ****** ****** ****** ****** ****** ****** ****** ****** ****** ******
      ****** ****** ****** ****** ****** ****** ****** ****** ****** ******
  13  ****** ****** ****** ****** ****** ****** ****** ****** ****** ******
      ****** ****** ****** ****** ****** ****** ****** ****** ****** ******
      ****** ****** ****** ****** ****** ****** ****** ****** ****** ******
  14  ****** ****** ****** ****** ****** ****** ****** ****** ****** ******
      ****** ****** ****** ****** ****** ****** ****** ****** ****** ******
      ****** ****** ****** ****** ****** ****** ****** ****** ****** ******
  15  ****** ****** ****** ****** ****** ****** ****** ****** ****** ******
      ****** ****** ****** ****** ****** ****** ****** ****** ****** ******
      ****** ****** ****** ****** ****** ****** ****** ****** ****** ******
  16  ****** ****** ****** ****** ****** ****** ****** ****** ****** ******
      ****** ****** ****** ****** ****** ****** ****** ****** ****** ******
      ****** ****** ****** ****** ****** ****** ****** ****** ****** ******
  17  ****** ****** ****** ****** ****** ****** ****** ****** ****** ******
      ****** ****** ****** ****** ****** ****** ****** ****** ****** ******
      ****** ****** ****** ****** ****** ****** ****** ****** ****** ******
  18  ****** ****** ****** ****** ****** ****** ****** ****** ****** ******
      ****** ****** ****** ****** ****** ****** ****** ****** ****** ******
      ****** ****** ****** ****** ****** ****** ****** ****** ****** ******
  19  ****** ****** ****** ****** ****** ****** ****** ****** ****** ******
      ****** ****** ****** ****** ****** ****** ****** ****** ****** ******
      ****** ****** ****** ****** ****** ****** ****** ****** ****** ******
  20  ****** ****** ****** ****** ****** ****** ****** ****** ****** ******
      ****** ****** ****** ****** ****** ****** ****** ****** ****** ******
      ****** ****** ****** ****** ****** ****** ****** ****** ****** ******
  21  ****** ****** ****** ****** ****** ****** ****** ****** ****** ******
      ****** ****** ****** ****** ****** ****** ****** ****** ****** ******
      ****** ****** ****** ****** ****** ****** ****** ****** ****** ******
  22  ****** ****** ****** ****** ****** ****** ****** ****** ****** ******
      ****** ****** ****** ****** ****** ****** ****** ****** ****** ******
      ****** ****** ****** ****** ****** ****** ****** ****** ****** ******
  23  ****** ****** ****** ****** ****** ****** ****** ****** ****** ******
      ****** ****** ****** ****** ****** ****** ****** ****** ****** ******
      ****** ****** ****** ****** ****** ****** ****** ****** ****** ******
  24  ****** ****** ****** ****** ****** ****** ****** ****** ****** ******
      ****** ****** ****** ****** ****** ****** ****** ****** ****** ******
      ****** ****** ****** ****** ****** ****** ****** ****** ****** ******
  25  ****** ****** ****** ****** ****** ****** ****** ****** ****** ******
      ****** ****** ****** ****** ****** ****** ****** ****** ****** ******
      ****** ****** ****** ****** ****** ****** ****** ****** ****** ******

 HEAD WILL BE SAVED ON UNIT   51 AT END OF TIME STEP    1, STRESS PERIOD   12
1
  VOLUMETRIC BUDGET FOR ENTIRE MODEL AT END OF TIME STEP    1, STRESS PERIOD  12
  ------------------------------------------------------------------------------

     CUMULATIVE VOLUMES      L**3       RATES FOR THIS TIME STEP      L**3/T
     ------------------                 ------------------------

           IN:                                      IN:
           ---                                      ---
             STORAGE =    34533982.0575               STORAGE =           6.0152
       CONSTANT HEAD =    29942275.4204         CONSTANT HEAD =       32177.8944
               WELLS =           0.0000                 WELLS =           0.0000
            RECHARGE =    26413200.0000              RECHARGE =       27600.0000
      STREAM LEAKAGE =    15364362.1364        STREAM LEAKAGE =       16635.1494

            TOTAL IN =   106253819.6143              TOTAL IN =       76419.0590

          OUT:                                     OUT:
          ----                                     ----
             STORAGE =     2705236.3740               STORAGE =        3065.0452
       CONSTANT HEAD =           0.0000         CONSTANT HEAD =           0.0000
               WELLS =    37714324.5583                 WELLS =       34442.3055
            RECHARGE =           0.0000              RECHARGE =           0.0000
      STREAM LEAKAGE =    65834260.6416        STREAM LEAKAGE =       38911.7073

           TOTAL OUT =   106253821.5739             TOTAL OUT =       76419.0581

            IN - OUT =          -1.9597              IN - OUT =       9.1723E-04

 PERCENT DISCREPANCY =          -0.00     PERCENT DISCREPANCY =           0.00






         TIME SUMMARY AT END OF TIME STEP    1 IN STRESS PERIOD   12
                    SECONDS     MINUTES      HOURS       DAYS        YEARS
                    -----------------------------------------------------------
   TIME STEP LENGTH 7.86240E+06 1.31040E+05  2184.0      91.000     0.24914    
 STRESS PERIOD TIME 7.86240E+06 1.31040E+05  2184.0      91.000     0.24914    
         TOTAL TIME 9.46080E+07 1.57680E+06  26280.      1095.0      2.9979    
1

 Run end date and time (yyyy/mm/dd hh:mm:ss): 2019/05/25 20:36:23
 Elapsed run time:  0.106 Seconds

