                                  MODFLOW-2005     
      U.S. GEOLOGICAL SURVEY MODULAR FINITE-DIFFERENCE GROUND-WATER FLOW MODEL
                            VERSION 1.11.00 8/8/2013

 LIST FILE: supply2.lst
                         UNIT   10

 OPENING ..\data\supply.dis
 FILE TYPE:DIS   UNIT   11   STATUS:OLD    
 FORMAT:FORMATTED              ACCESS:SEQUENTIAL          

 OPENING ..\data\supply.ba6
 FILE TYPE:BAS6   UNIT   12   STATUS:OLD    
 FORMAT:FORMATTED              ACCESS:SEQUENTIAL          

 OPENING ..\data\supply_het.bc6
 FILE TYPE:BCF6   UNIT   13   STATUS:OLD    
 FORMAT:FORMATTED              ACCESS:SEQUENTIAL          

 OPENING ..\data\supply.rch
 FILE TYPE:RCH   UNIT   15   STATUS:OLD    
 FORMAT:FORMATTED              ACCESS:SEQUENTIAL          

 OPENING ..\data\supply2.sfr
 FILE TYPE:SFR   UNIT   16   STATUS:OLD    
 FORMAT:FORMATTED              ACCESS:SEQUENTIAL          

 OPENING ..\data\supply.oc
 FILE TYPE:OC   UNIT   17   STATUS:OLD    
 FORMAT:FORMATTED              ACCESS:SEQUENTIAL          

 OPENING ..\data\supply.pcg
 FILE TYPE:PCG   UNIT   18   STATUS:OLD    
 FORMAT:FORMATTED              ACCESS:SEQUENTIAL          

 OPENING supply2.wel
 FILE TYPE:WEL   UNIT   19   STATUS:OLD    
 FORMAT:FORMATTED              ACCESS:SEQUENTIAL          

 OPENING supply2sf.cbc
 FILE TYPE:DATA(BINARY)   UNIT   50   STATUS:UNKNOWN
 FORMAT:BINARY                 ACCESS:SEQUENTIAL          

 OPENING supply2hd.bhd
 FILE TYPE:DATA(BINARY)   UNIT   51   STATUS:UNKNOWN
 FORMAT:BINARY                 ACCESS:SEQUENTIAL          

 BAS -- BASIC PACKAGE, VERSION 7, 5/2/2005 INPUT READ FROM UNIT   12
 
 MODFLOW was compiled using uniform precision
 Precision of REAL and DOUBLE PRECISION variables:          15

 DISCRETIZATION INPUT DATA READ FROM UNIT   11
    1 LAYERS        25 ROWS        30 COLUMNS
   12 STRESS PERIOD(S) IN SIMULATION
 MODEL TIME UNIT IS DAYS
 MODEL LENGTH UNIT IS UNDEFINED
  Confining bed flag for each layer:
   0

                     DELR =   200.000    

                     DELC =   200.000    

 TOP ELEVATION OF LAYER 1 =  100.0000    

   MODEL LAYER BOTTOM EL. =   0.00000     FOR LAYER   1


 STRESS PERIOD     LENGTH       TIME STEPS     MULTIPLIER FOR DELT    SS FLAG
 ----------------------------------------------------------------------------
        1         92.00000          1                    1.500         TR
        2         91.00000          1                    1.500         TR
        3         91.00000          1                    1.500         TR
        4         91.00000          1                    1.500         TR
        5         92.00000          1                    1.500         TR
        6         91.00000          1                    1.500         TR
        7         91.00000          1                    1.500         TR
        8         91.00000          1                    1.500         TR
        9         92.00000          1                    1.500         TR
       10         91.00000          1                    1.500         TR
       11         91.00000          1                    1.500         TR
       12         91.00000          1                    1.500         TR

 TRANSIENT SIMULATION



 
 #MODOFC transient water supply sample problem                                   
 #                                                                               
 THE FREE FORMAT OPTION HAS BEEN SELECTED



                     BOUNDARY ARRAY FOR LAYER   1
 READING ON UNIT   12 WITH FORMAT: (20I4)              

 AQUIFER HEAD WILL BE SET TO   0.0000     AT ALL NO-FLOW NODES (IBOUND=0).



                       INITIAL HEAD FOR LAYER   1
 READING ON UNIT   12 WITH FORMAT: (10F13.0)           

 OUTPUT CONTROL IS SPECIFIED ONLY AT TIME STEPS FOR WHICH OUTPUT IS DESIRED
 COMPACT CELL-BY-CELL BUDGET FILES WILL BE WRITTEN
 HEAD PRINT FORMAT CODE IS  18    DRAWDOWN PRINT FORMAT CODE IS   0
 HEADS WILL BE SAVED ON UNIT   51    DRAWDOWNS WILL BE SAVED ON UNIT    0

 BCF -- BLOCK-CENTERED FLOW PACKAGE, VERSION 7, 5/2/2005
         INPUT READ FROM UNIT 13
 TRANSIENT SIMULATION
 HEAD AT CELLS THAT CONVERT TO DRY=   0.0000    
 WETTING CAPABILITY IS NOT ACTIVE
      LAYER  LAYER-TYPE CODE     INTERBLOCK T
      --------------------------------------------
         1            0          0 -- HARMONIC    

 COLUMN TO ROW ANISOTROPY =  1.000000    

     PRIMARY STORAGE COEF =  5.000000E-02 FOR LAYER   1



               TRANSMIS. ALONG ROWS FOR LAYER   1
 READING ON UNIT   13 WITH FORMAT: (FREE)              

 WEL -- WELL PACKAGE, VERSION 7, 5/2/2005 INPUT READ FROM UNIT   19
 # Well package input file written by MMProc
 No named parameters
 MAXIMUM OF      4 ACTIVE WELLS AT ONE TIME


     0 Well parameters

 RCH -- RECHARGE PACKAGE, VERSION 7, 5/2/2005 INPUT READ FROM UNIT   15
 No named parameters
 OPTION 1 -- RECHARGE TO TOP LAYER


     0 Recharge parameters

 SFR7 -- STREAMFLOW ROUTING PACKAGE, VERSION 1.0.7, 2013-01-15
         INPUT READ FROM UNIT  16
 #  Supply2 test problem for GWM-VI
 #  The eighth entry in the first data line is ISTCB2 -
 #    Setting this to a negative number indicates that
 #    streamflows out of the reach will be saved to a
 #    binary file.  The absolute value of ISTCB2 is the
 #    unit to which unformatted flows will be written.
 #
 No named parameters
 Segment information will not be 
 read by reach
 No named parameters
 No specifed inflow files


 NUMBER OF STREAM REACHES IS   40

 NUMBER OF STREAM SEGMENTS IS    3

 NUMBER OF STREAM PARAMETERS IS    0

 NUMBER OF STREAM SEGMENTS DEFINED USING PARAMETERS IS              0

 MAXIMUM ERROR FOR STREAM LEAKAGE RATES IS  1.00E-04

 CONSTANT FOR MANNINGS EQUATION IS  1.2839E+05





   STREAM NETWORK DESCRIPTION: 

   LAYER    ROW    COL   SEGMENT   REACH     LENGTH
                          NUMBER   NUMBER    IN CELL        
   --------------------------------------------------
      1     13      1       1        1    2.0000E+02
      1     13      2       1        2    2.0000E+02
      1     14      3       1        3    2.0000E+02
      1     15      4       1        4    2.0000E+02
      1     16      5       1        5    2.0000E+02
      1     16      6       1        6    2.0000E+02
      1     16      7       1        7    2.0000E+02
      1     16      8       1        8    2.0000E+02
      1     16      9       1        9    2.0000E+02
      1     16     10       1       10    2.0000E+02
      1     16     11       1       11    2.0000E+02
      1     16     12       1       12    2.0000E+02
      1     15     13       1       13    2.0000E+02
      1     14     14       1       14    2.0000E+02
      1     13     15       1       15    2.0000E+02
      1     12     16       1       16    2.0000E+02
      1     12     17       1       17    2.0000E+02
      1     12     18       1       18    2.0000E+02
      1     12     19       1       19    2.0000E+02
      1     13     20       1       20    2.0000E+02
      1     14     21       1       21    2.0000E+02
      1     14     22       1       22    2.0000E+02
      1      9     30       2        1    2.0000E+02
      1      9     29       2        2    2.0000E+02
      1      9     28       2        3    2.0000E+02
      1      9     27       2        4    2.0000E+02
      1     10     26       2        5    2.0000E+02
      1     11     25       2        6    2.0000E+02
      1     12     24       2        7    2.0000E+02
      1     13     23       2        8    2.0000E+02
      1     14     22       2        9    2.0000E+02
      1     14     22       3        1    2.0000E+02
      1     15     23       3        2    2.0000E+02
      1     15     24       3        3    2.0000E+02
      1     15     25       3        4    2.0000E+02
      1     15     26       3        5    2.0000E+02
      1     16     27       3        6    2.0000E+02
      1     17     28       3        7    2.0000E+02
      1     18     29       3        8    2.0000E+02
      1     18     30       3        9    2.0000E+02




 PCG -- CONJUGATE-GRADIENT SOLUTION PACKAGE, VERSION 7, 5/2/2005
 MAXIMUM OF    500 CALLS OF SOLUTION ROUTINE
 MAXIMUM OF      5 INTERNAL ITERATIONS PER CALL TO SOLUTION ROUTINE
 MATRIX PRECONDITIONING TYPE :    1



                                    SOLUTION BY THE CONJUGATE-GRADIENT METHOD
                                   -------------------------------------------
                    MAXIMUM NUMBER OF CALLS TO PCG ROUTINE =      500
                        MAXIMUM ITERATIONS PER CALL TO PCG =        5
                               MATRIX PRECONDITIONING TYPE =        1
        RELAXATION FACTOR (ONLY USED WITH PRECOND. TYPE 1) =    0.10000E+01
 PARAMETER OF POLYNOMIAL PRECOND. = 2 (2) OR IS CALCULATED :        0
                         HEAD CHANGE CRITERION FOR CLOSURE =    0.10000E-05
                     RESIDUAL CHANGE CRITERION FOR CLOSURE =    0.10000E+01
            PCG HEAD AND RESIDUAL CHANGE PRINTOUT INTERVAL =        1
     PRINTING FROM SOLVER IS LIMITED(1) OR SUPPRESSED (>1) =        1
                            STEADY-STATE DAMPING PARAMETER =    0.10000E+01
                               TRANSIENT DAMPING PARAMETER =    0.10000E+01
1
                            STRESS PERIOD NO.    1, LENGTH =   92.00000    
                            -----------------------------------------------

                              NUMBER OF TIME STEPS =     1

                               MULTIPLIER FOR DELT =     1.500

                            INITIAL TIME STEP SIZE =   92.00000    

 WELL NO.  LAYER   ROW   COL   STRESS RATE         
 --------------------------------------------------
      1      1     16      2      -8562.    
      2      1     23     16      -2065.    
      3      1     13     14      -6003.    
      4      1      6     16     -0.1144E+05

      4 WELLS

                 RECHARGE =  5.000000E-04



 CLASSIFICATION & COUNT OF STREAM SEGMENTS BASED ON SOURCE OF INFLOW:

                HEADWATER     DIVERSION     RECEIVES TRIBUTARY FLOW
                ---------     ---------     -----------------------
                     2              0               1



                    INPUT DATA FOR EACH STREAM SEGMENT
 ---------------------------------------------------------------------------------------------

 SEGMENT    SEG.     INFLOW   OVERLAND   STREAM    STREAM   ICALC  OUTFLOW  DIVERSION PRIORITY
    NO.    LENGTH     RATE     RUNOFF      ET       PPT.    METH.  TO SEG.  FROM SEG.    NO.

      1  4.400E+03 1.000E+05 0.000E+00 0.000E+00 0.000E+00    1        3        0        0
      2  1.800E+03 5.000E+04 0.000E+00 0.000E+00 0.000E+00    1        3        0        0
      3  1.800E+03 0.000E+00 0.000E+00 0.000E+00 0.000E+00    1        0        0        0


         STREAMBED PROPERTIES AND STREAM DIMENSIONS

 SEGMENT     BED HYD. COND.      BED THICKNESS     ELEV.-TOP OF BED     WIDTH OF STREAM     DEPTH OF STREAM    STREAM ROUGHNESS
    No.     UPPER     LOWER     UPPER     LOWER     UPPER     LOWER     UPPER     LOWER     UPPER     LOWER   CHANNEL      BANK

     1  5.000E+00 5.000E+00 1.000E+00 1.000E+00 4.850E+01 3.800E+01 2.000E+01 2.000E+01                     5.000E-02
     2  5.000E+00 5.000E+00 1.000E+00 1.000E+00 4.025E+01 3.800E+01 2.000E+01 2.000E+01                     5.000E-02
     3  5.000E+00 5.000E+00 1.000E+00 1.000E+00 3.800E+01 3.000E+01 2.000E+01 2.000E+01                     5.000E-02



 
 SOLVING FOR HEAD 


     9 CALLS TO PCG ROUTINE FOR TIME STEP   1 IN STRESS PERIOD    1
    36 TOTAL ITERATIONS

 OUTPUT CONTROL FOR STRESS PERIOD    1   TIME STEP    1
    SAVE BUDGET
    SAVE HEAD FOR ALL LAYERS
    PRINT HEAD FOR ALL LAYERS
 UBDSV2 SAVING "STREAMFLOW OUT  " ON UNIT  50 AT TIME STEP  1, STRESS PERIOD   1



 STREAM LISTING     PERIOD      1   STEP        1

 LAYER ROW COL. STREAM  RCH.  FLOW INTO     FLOW TO   FLOW OUT OF   OVRLND.     DIRECT     STREAM       STREAM     STREAM     STREAM   STREAMBED  STREAMBED
                SEG.NO.  NO.  STRM. RCH.    AQUIFER    STRM. RCH.    RUNOFF     PRECIP       ET          HEAD       DEPTH      WIDTH   CONDCTNC.   GRADIENT

   1   13    1     1     1    1.0000E+05 -4.9377E+03   1.0494E+05  0.000E+00  0.000E+00  0.000E+00  4.84081E+01  1.468E-01  2.000E+01  2.000E+04 -2.469E-01
   1   13    2     1     2    1.0494E+05 -6.3771E+03   1.1131E+05  0.000E+00  0.000E+00  0.000E+00  4.79357E+01  1.516E-01  2.000E+01  2.000E+04 -3.189E-01
   1   14    3     1     3    1.1131E+05 -1.8122E+03   1.1313E+05  0.000E+00  0.000E+00  0.000E+00  4.74618E+01  1.550E-01  2.000E+01  2.000E+04 -9.061E-02
   1   15    4     1     4    1.1313E+05 -1.8893E+03   1.1502E+05  0.000E+00  0.000E+00  0.000E+00  4.69861E+01  1.565E-01  2.000E+01  2.000E+04 -9.447E-02
   1   16    5     1     5    1.1502E+05 -5.5563E+03   1.2057E+05  0.000E+00  0.000E+00  0.000E+00  4.65119E+01  1.596E-01  2.000E+01  2.000E+04 -2.778E-01
   1   16    6     1     6    1.2057E+05 -4.0076E+03   1.2458E+05  0.000E+00  0.000E+00  0.000E+00  4.60384E+01  1.634E-01  2.000E+01  2.000E+04 -2.004E-01
   1   16    7     1     7    1.2458E+05 -3.9825E+03   1.2856E+05  0.000E+00  0.000E+00  0.000E+00  4.55643E+01  1.666E-01  2.000E+01  2.000E+04 -1.991E-01
   1   16    8     1     8    1.2856E+05 -3.9981E+03   1.3256E+05  0.000E+00  0.000E+00  0.000E+00  4.50902E+01  1.698E-01  2.000E+01  2.000E+04 -1.999E-01
   1   16    9     1     9    1.3256E+05 -4.0153E+03   1.3658E+05  0.000E+00  0.000E+00  0.000E+00  4.46160E+01  1.729E-01  2.000E+01  2.000E+04 -2.008E-01
   1   16   10     1    10    1.3658E+05 -4.0242E+03   1.4060E+05  0.000E+00  0.000E+00  0.000E+00  4.41418E+01  1.759E-01  2.000E+01  2.000E+04 -2.012E-01
   1   16   11     1    11    1.4060E+05 -4.0563E+03   1.4466E+05  0.000E+00  0.000E+00  0.000E+00  4.36676E+01  1.790E-01  2.000E+01  2.000E+04 -2.028E-01
   1   16   12     1    12    1.4466E+05 -6.8149E+03   1.5147E+05  0.000E+00  0.000E+00  0.000E+00  4.31944E+01  1.831E-01  2.000E+01  2.000E+04 -3.407E-01
   1   15   13     1    13    1.5147E+05 -6.8283E+03   1.5830E+05  0.000E+00  0.000E+00  0.000E+00  4.27222E+01  1.881E-01  2.000E+01  2.000E+04 -3.414E-01
   1   14   14     1    14    1.5830E+05 -5.5969E+03   1.6390E+05  0.000E+00  0.000E+00  0.000E+00  4.22494E+01  1.926E-01  2.000E+01  2.000E+04 -2.798E-01
   1   13   15     1    15    1.6390E+05 -5.8607E+03   1.6976E+05  0.000E+00  0.000E+00  0.000E+00  4.17762E+01  1.966E-01  2.000E+01  2.000E+04 -2.930E-01
   1   12   16     1    16    1.6976E+05 -7.9407E+03   1.7770E+05  0.000E+00  0.000E+00  0.000E+00  4.13038E+01  2.015E-01  2.000E+01  2.000E+04 -3.970E-01
   1   12   17     1    17    1.7770E+05 -5.8900E+03   1.8359E+05  0.000E+00  0.000E+00  0.000E+00  4.08313E+01  2.063E-01  2.000E+01  2.000E+04 -2.945E-01
   1   12   18     1    18    1.8359E+05 -5.8202E+03   1.8941E+05  0.000E+00  0.000E+00  0.000E+00  4.03580E+01  2.102E-01  2.000E+01  2.000E+04 -2.910E-01
   1   12   19     1    19    1.8941E+05 -7.3998E+03   1.9681E+05  0.000E+00  0.000E+00  0.000E+00  3.98851E+01  2.147E-01  2.000E+01  2.000E+04 -3.700E-01
   1   13   20     1    20    1.9681E+05 -6.7277E+03   2.0354E+05  0.000E+00  0.000E+00  0.000E+00  3.94125E+01  2.194E-01  2.000E+01  2.000E+04 -3.364E-01
   1   14   21     1    21    2.0354E+05 -6.3858E+03   2.0992E+05  0.000E+00  0.000E+00  0.000E+00  3.89396E+01  2.236E-01  2.000E+01  2.000E+04 -3.193E-01
   1   14   22     1    22    2.0992E+05  3.5917E+03   2.0633E+05  0.000E+00  0.000E+00  0.000E+00  3.84632E+01  2.246E-01  2.000E+01  2.000E+04  1.796E-01
   1    9   30     2     1    5.0000E+04 -4.8353E+03   5.4835E+04  0.000E+00  0.000E+00  0.000E+00  4.02442E+01  1.192E-01  2.000E+01  2.000E+04 -2.418E-01
   1    9   29     2     2    5.4835E+04 -5.1270E+03   5.9962E+04  0.000E+00  0.000E+00  0.000E+00  4.00009E+01  1.259E-01  2.000E+01  2.000E+04 -2.564E-01
   1    9   28     2     3    5.9962E+04 -5.4023E+03   6.5365E+04  0.000E+00  0.000E+00  0.000E+00  3.97577E+01  1.327E-01  2.000E+01  2.000E+04 -2.701E-01
   1    9   27     2     4    6.5365E+04 -8.1990E+03   7.3564E+04  0.000E+00  0.000E+00  0.000E+00  3.95161E+01  1.411E-01  2.000E+01  2.000E+04 -4.099E-01
   1   10   26     2     5    7.3564E+04 -7.2360E+03   8.0800E+04  0.000E+00  0.000E+00  0.000E+00  3.92753E+01  1.503E-01  2.000E+01  2.000E+04 -3.618E-01
   1   11   25     2     6    8.0800E+04 -6.6857E+03   8.7485E+04  0.000E+00  0.000E+00  0.000E+00  3.90333E+01  1.583E-01  2.000E+01  2.000E+04 -3.343E-01
   1   12   24     2     7    8.7485E+04 -6.1910E+03   9.3676E+04  0.000E+00  0.000E+00  0.000E+00  3.87905E+01  1.655E-01  2.000E+01  2.000E+04 -3.095E-01
   1   13   23     2     8    9.3676E+04 -1.6349E+03   9.5311E+04  0.000E+00  0.000E+00  0.000E+00  3.85448E+01  1.698E-01  2.000E+01  2.000E+04 -8.175E-02
   1   14   22     2     9    9.5311E+04  2.3796E+02   9.5073E+04  0.000E+00  0.000E+00  0.000E+00  3.82955E+01  1.705E-01  2.000E+01  2.000E+04  1.190E-02
   1   14   22     3     1    3.0140E+05 -9.8615E+03   3.1126E+05  0.000E+00  0.000E+00  0.000E+00  3.77905E+01  2.350E-01  2.000E+01  2.000E+04 -4.931E-01
   1   15   23     3     2    3.1126E+05 -1.9840E+03   3.1325E+05  0.000E+00  0.000E+00  0.000E+00  3.69044E+01  2.377E-01  2.000E+01  2.000E+04 -9.920E-02
   1   15   24     3     3    3.1325E+05 -1.5292E+03   3.1478E+05  0.000E+00  0.000E+00  0.000E+00  3.60163E+01  2.385E-01  2.000E+01  2.000E+04 -7.646E-02
   1   15   25     3     4    3.1478E+05 -1.5792E+03   3.1636E+05  0.000E+00  0.000E+00  0.000E+00  3.51281E+01  2.392E-01  2.000E+01  2.000E+04 -7.896E-02
   1   15   26     3     5    3.1636E+05 -1.8829E+03   3.1824E+05  0.000E+00  0.000E+00  0.000E+00  3.42400E+01  2.400E-01  2.000E+01  2.000E+04 -9.415E-02
   1   16   27     3     6    3.1824E+05 -2.1644E+03   3.2040E+05  0.000E+00  0.000E+00  0.000E+00  3.33520E+01  2.409E-01  2.000E+01  2.000E+04 -1.082E-01
   1   17   28     3     7    3.2040E+05 -6.5784E+03   3.2698E+05  0.000E+00  0.000E+00  0.000E+00  3.24651E+01  2.429E-01  2.000E+01  2.000E+04 -3.289E-01
   1   18   29     3     8    3.2698E+05 -7.9887E+03   3.3497E+05  0.000E+00  0.000E+00  0.000E+00  3.15795E+01  2.461E-01  2.000E+01  2.000E+04 -3.994E-01
   1   18   30     3     9    3.3497E+05 -7.1716E+03   3.4214E+05  0.000E+00  0.000E+00  0.000E+00  3.06939E+01  2.495E-01  2.000E+01  2.000E+04 -3.586E-01



1
              HEAD IN LAYER   1 AT END OF TIME STEP   1 IN STRESS PERIOD    1
  ---------------------------------------------------------------------------

          1      2      3      4      5      6      7      8      9     10
         11     12     13     14     15     16     17     18     19     20
         21     22     23     24     25     26     27     28     29     30
 .........................................................................
   1  ****** ****** ****** ****** ****** ****** ****** ****** ****** ******
      ****** ****** ****** ****** ****** ****** ****** ****** ****** ******
      ****** ****** ****** ****** ****** ****** ****** ****** ****** ******
   2  ****** ****** ****** ****** ****** ****** ****** ****** ****** ******
      ****** ****** ****** ****** ****** ****** ****** ****** ****** ******
      ****** ****** ****** ****** ****** ****** ****** ****** ****** ******
   3  ****** ****** ****** ****** ****** ****** ****** ****** ****** ******
      ****** ****** ****** ****** ****** ****** ****** ****** ****** ******
      ****** ****** ****** ****** ****** ****** ****** ****** ****** ******
   4  ****** ****** ****** ****** ****** ****** ****** ****** ****** ******
      ****** ****** ****** ****** ****** ****** ****** ****** ****** ******
      ****** ****** ****** ****** ****** ****** ****** ****** ****** ******
   5  ****** ****** ****** ****** ****** ****** ****** ****** ****** ******
      ****** ****** ****** ****** ****** ****** ****** ****** ****** ******
      ****** ****** ****** ****** ****** ****** ****** ****** ****** ******
   6  ****** ****** ****** ****** ****** ****** ****** ****** ****** ******
      ****** ****** ****** ****** ****** ****** ****** ****** ****** ******
      ****** ****** ****** ****** ****** ****** ****** ****** ****** ******
   7  ****** ****** ****** ****** ****** ****** ****** ****** ****** ******
      ****** ****** ****** ****** ****** ****** ****** ****** ****** ******
      ****** ****** ****** ****** ****** ****** ****** ****** ****** ******
   8  ****** ****** ****** ****** ****** ****** ****** ****** ****** ******
      ****** ****** ****** ****** ****** ****** ****** ****** ****** ******
      ****** ****** ****** ****** ****** ****** ****** ****** ****** ******
   9  ****** ****** ****** ****** ****** ****** ****** ****** ****** ******
      ****** ****** ****** ****** ****** ****** ****** ****** ****** ******
      ****** ****** ****** ****** ****** ****** ****** ****** ****** ******
  10  ****** ****** ****** ****** ****** ****** ****** ****** ****** ******
      ****** ****** ****** ****** ****** ****** ****** ****** ****** ******
      ****** ****** ****** ****** ****** ****** ****** ****** ****** ******
  11  ****** ****** ****** ****** ****** ****** ****** ****** ****** ******
      ****** ****** ****** ****** ****** ****** ****** ****** ****** ******
      ****** ****** ****** ****** ****** ****** ****** ****** ****** ******
  12  ****** ****** ****** ****** ****** ****** ****** ****** ****** ******
      ****** ****** ****** ****** ****** ****** ****** ****** ****** ******
      ****** ****** ****** ****** ****** ****** ****** ****** ****** ******
  13  ****** ****** ****** ****** ****** ****** ****** ****** ****** ******
      ****** ****** ****** ****** ****** ****** ****** ****** ****** ******
      ****** ****** ****** ****** ****** ****** ****** ****** ****** ******
  14  ****** ****** ****** ****** ****** ****** ****** ****** ****** ******
      ****** ****** ****** ****** ****** ****** ****** ****** ****** ******
      ****** ****** ****** ****** ****** ****** ****** ****** ****** ******
  15  ****** ****** ****** ****** ****** ****** ****** ****** ****** ******
      ****** ****** ****** ****** ****** ****** ****** ****** ****** ******
      ****** ****** ****** ****** ****** ****** ****** ****** ****** ******
  16  ****** ****** ****** ****** ****** ****** ****** ****** ****** ******
      ****** ****** ****** ****** ****** ****** ****** ****** ****** ******
      ****** ****** ****** ****** ****** ****** ****** ****** ****** ******
  17  ****** ****** ****** ****** ****** ****** ****** ****** ****** ******
      ****** ****** ****** ****** ****** ****** ****** ****** ****** ******
      ****** ****** ****** ****** ****** ****** ****** ****** ****** ******
  18  ****** ****** ****** ****** ****** ****** ****** ****** ****** ******
      ****** ****** ****** ****** ****** ****** ****** ****** ****** ******
      ****** ****** ****** ****** ****** ****** ****** ****** ****** ******
  19  ****** ****** ****** ****** ****** ****** ****** ****** ****** ******
      ****** ****** ****** ****** ****** ****** ****** ****** ****** ******
      ****** ****** ****** ****** ****** ****** ****** ****** ****** ******
  20  ****** ****** ****** ****** ****** ****** ****** ****** ****** ******
      ****** ****** ****** ****** ****** ****** ****** ****** ****** ******
      ****** ****** ****** ****** ****** ****** ****** ****** ****** ******
  21  ****** ****** ****** ****** ****** ****** ****** ****** ****** ******
      ****** ****** ****** ****** ****** ****** ****** ****** ****** ******
      ****** ****** ****** ****** ****** ****** ****** ****** ****** ******
  22  ****** ****** ****** ****** ****** ****** ****** ****** ****** ******
      ****** ****** ****** ****** ****** ****** ****** ****** ****** ******
      ****** ****** ****** ****** ****** ****** ****** ****** ****** ******
  23  ****** ****** ****** ****** ****** ****** ****** ****** ****** ******
      ****** ****** ****** ****** ****** ****** ****** ****** ****** ******
      ****** ****** ****** ****** ****** ****** ****** ****** ****** ******
  24  ****** ****** ****** ****** ****** ****** ****** ****** ****** ******
      ****** ****** ****** ****** ****** ****** ****** ****** ****** ******
      ****** ****** ****** ****** ****** ****** ****** ****** ****** ******
  25  ****** ****** ****** ****** ****** ****** ****** ****** ****** ******
      ****** ****** ****** ****** ****** ****** ****** ****** ****** ******
      ****** ****** ****** ****** ****** ****** ****** ****** ****** ******

 HEAD WILL BE SAVED ON UNIT   51 AT END OF TIME STEP    1, STRESS PERIOD    1
1
  VOLUMETRIC BUDGET FOR ENTIRE MODEL AT END OF TIME STEP    1, STRESS PERIOD   1
  ------------------------------------------------------------------------------

     CUMULATIVE VOLUMES      L**3       RATES FOR THIS TIME STEP      L**3/T
     ------------------                 ------------------------

           IN:                                      IN:
           ---                                      ---
             STORAGE =    17794511.2316               STORAGE =      193418.6003
       CONSTANT HEAD =     1195584.3343         CONSTANT HEAD =       12995.4819
               WELLS =           0.0000                 WELLS =           0.0000
            RECHARGE =     1269600.0000              RECHARGE =       13800.0000
      STREAM LEAKAGE =      352327.9232        STREAM LEAKAGE =        3829.6513

            TOTAL IN =    20612023.4891              TOTAL IN =      224043.7336

          OUT:                                     OUT:
          ----                                     ----
             STORAGE =           0.0000               STORAGE =           0.0000
       CONSTANT HEAD =           0.0000         CONSTANT HEAD =           0.0000
               WELLS =     2582511.7242                 WELLS =       28070.7796
            RECHARGE =           0.0000              RECHARGE =           0.0000
      STREAM LEAKAGE =    18029512.0631        STREAM LEAKAGE =      195972.9572

           TOTAL OUT =    20612023.7873             TOTAL OUT =      224043.7368

            IN - OUT =          -0.2982              IN - OUT =      -3.2412E-03

 PERCENT DISCREPANCY =          -0.00     PERCENT DISCREPANCY =          -0.00






         TIME SUMMARY AT END OF TIME STEP    1 IN STRESS PERIOD    1
                    SECONDS     MINUTES      HOURS       DAYS        YEARS
                    -----------------------------------------------------------
   TIME STEP LENGTH 7.94880E+06 1.32480E+05  2208.0      92.000     0.25188    
 STRESS PERIOD TIME 7.94880E+06 1.32480E+05  2208.0      92.000     0.25188    
         TOTAL TIME 7.94880E+06 1.32480E+05  2208.0      92.000     0.25188    
1
1
                            STRESS PERIOD NO.    2, LENGTH =   91.00000    
                            -----------------------------------------------

                              NUMBER OF TIME STEPS =     1

                               MULTIPLIER FOR DELT =     1.500

                            INITIAL TIME STEP SIZE =   91.00000    

 WELL NO.  LAYER   ROW   COL   STRESS RATE         
 --------------------------------------------------
      1      1     16      2      -8562.    
      2      1     23     16      -2065.    
      3      1     13     14      -6003.    
      4      1      6     16     -0.1144E+05

      4 WELLS

                 RECHARGE =  2.000000E-03

 REUSING STREAM SEGMENT DATA FROM LAST STRESS PERIOD
 
 SOLVING FOR HEAD 


     7 CALLS TO PCG ROUTINE FOR TIME STEP   1 IN STRESS PERIOD    2
    27 TOTAL ITERATIONS

 OUTPUT CONTROL FOR STRESS PERIOD    2   TIME STEP    1
    SAVE BUDGET
    SAVE HEAD FOR ALL LAYERS
    PRINT HEAD FOR ALL LAYERS
 UBDSV2 SAVING "STREAMFLOW OUT  " ON UNIT  50 AT TIME STEP  1, STRESS PERIOD   2



 STREAM LISTING     PERIOD      2   STEP        1

 LAYER ROW COL. STREAM  RCH.  FLOW INTO     FLOW TO   FLOW OUT OF   OVRLND.     DIRECT     STREAM       STREAM     STREAM     STREAM   STREAMBED  STREAMBED
                SEG.NO.  NO.  STRM. RCH.    AQUIFER    STRM. RCH.    RUNOFF     PRECIP       ET          HEAD       DEPTH      WIDTH   CONDCTNC.   GRADIENT

   1   13    1     1     1    1.0000E+05 -2.5479E+03   1.0255E+05  0.000E+00  0.000E+00  0.000E+00  4.84071E+01  1.458E-01  2.000E+01  2.000E+04 -1.274E-01
   1   13    2     1     2    1.0255E+05 -3.7892E+03   1.0634E+05  0.000E+00  0.000E+00  0.000E+00  4.79326E+01  1.485E-01  2.000E+01  2.000E+04 -1.895E-01
   1   14    3     1     3    1.0634E+05 -6.4284E+02   1.0698E+05  0.000E+00  0.000E+00  0.000E+00  4.74572E+01  1.504E-01  2.000E+01  2.000E+04 -3.214E-02
   1   15    4     1     4    1.0698E+05 -6.6917E+02   1.0765E+05  0.000E+00  0.000E+00  0.000E+00  4.69805E+01  1.509E-01  2.000E+01  2.000E+04 -3.346E-02
   1   16    5     1     5    1.0765E+05 -2.1661E+03   1.0982E+05  0.000E+00  0.000E+00  0.000E+00  4.65044E+01  1.521E-01  2.000E+01  2.000E+04 -1.083E-01
   1   16    6     1     6    1.0982E+05 -2.0766E+03   1.1189E+05  0.000E+00  0.000E+00  0.000E+00  4.60289E+01  1.539E-01  2.000E+01  2.000E+04 -1.038E-01
   1   16    7     1     7    1.1189E+05 -2.1664E+03   1.1406E+05  0.000E+00  0.000E+00  0.000E+00  4.55534E+01  1.556E-01  2.000E+01  2.000E+04 -1.083E-01
   1   16    8     1     8    1.1406E+05 -2.2157E+03   1.1627E+05  0.000E+00  0.000E+00  0.000E+00  4.50779E+01  1.574E-01  2.000E+01  2.000E+04 -1.108E-01
   1   16    9     1     9    1.1627E+05 -2.2356E+03   1.1851E+05  0.000E+00  0.000E+00  0.000E+00  4.46024E+01  1.593E-01  2.000E+01  2.000E+04 -1.118E-01
   1   16   10     1    10    1.1851E+05 -2.2298E+03   1.2074E+05  0.000E+00  0.000E+00  0.000E+00  4.41270E+01  1.611E-01  2.000E+01  2.000E+04 -1.115E-01
   1   16   11     1    11    1.2074E+05 -2.2348E+03   1.2297E+05  0.000E+00  0.000E+00  0.000E+00  4.36515E+01  1.629E-01  2.000E+01  2.000E+04 -1.117E-01
   1   16   12     1    12    1.2297E+05 -3.8490E+03   1.2682E+05  0.000E+00  0.000E+00  0.000E+00  4.31767E+01  1.653E-01  2.000E+01  2.000E+04 -1.925E-01
   1   15   13     1    13    1.2682E+05 -3.4764E+03   1.3030E+05  0.000E+00  0.000E+00  0.000E+00  4.27023E+01  1.682E-01  2.000E+01  2.000E+04 -1.738E-01
   1   14   14     1    14    1.3030E+05 -2.0625E+03   1.3236E+05  0.000E+00  0.000E+00  0.000E+00  4.22272E+01  1.704E-01  2.000E+01  2.000E+04 -1.031E-01
   1   13   15     1    15    1.3236E+05 -2.2885E+03   1.3465E+05  0.000E+00  0.000E+00  0.000E+00  4.17516E+01  1.720E-01  2.000E+01  2.000E+04 -1.144E-01
   1   12   16     1    16    1.3465E+05 -4.4867E+03   1.3914E+05  0.000E+00  0.000E+00  0.000E+00  4.12769E+01  1.746E-01  2.000E+01  2.000E+04 -2.243E-01
   1   12   17     1    17    1.3914E+05 -3.2293E+03   1.4237E+05  0.000E+00  0.000E+00  0.000E+00  4.08026E+01  1.776E-01  2.000E+01  2.000E+04 -1.615E-01
   1   12   18     1    18    1.4237E+05 -3.1823E+03   1.4555E+05  0.000E+00  0.000E+00  0.000E+00  4.03277E+01  1.800E-01  2.000E+01  2.000E+04 -1.591E-01
   1   12   19     1    19    1.4555E+05 -4.1283E+03   1.4968E+05  0.000E+00  0.000E+00  0.000E+00  3.98532E+01  1.827E-01  2.000E+01  2.000E+04 -2.064E-01
   1   13   20     1    20    1.4968E+05 -3.5742E+03   1.5325E+05  0.000E+00  0.000E+00  0.000E+00  3.93788E+01  1.856E-01  2.000E+01  2.000E+04 -1.787E-01
   1   14   21     1    21    1.5325E+05 -3.6580E+03   1.5691E+05  0.000E+00  0.000E+00  0.000E+00  3.89041E+01  1.882E-01  2.000E+01  2.000E+04 -1.829E-01
   1   14   22     1    22    1.5691E+05  4.3279E+03   1.5258E+05  0.000E+00  0.000E+00  0.000E+00  3.84266E+01  1.880E-01  2.000E+01  2.000E+04  2.164E-01
   1    9   30     2     1    5.0000E+04 -2.1045E+03   5.2104E+04  0.000E+00  0.000E+00  0.000E+00  4.02423E+01  1.173E-01  2.000E+01  2.000E+04 -1.052E-01
   1    9   29     2     2    5.2104E+04 -2.4073E+03   5.4512E+04  0.000E+00  0.000E+00  0.000E+00  3.99954E+01  1.204E-01  2.000E+01  2.000E+04 -1.204E-01
   1    9   28     2     3    5.4512E+04 -2.6936E+03   5.7205E+04  0.000E+00  0.000E+00  0.000E+00  3.97488E+01  1.238E-01  2.000E+01  2.000E+04 -1.347E-01
   1    9   27     2     4    5.7205E+04 -4.6813E+03   6.1887E+04  0.000E+00  0.000E+00  0.000E+00  3.95037E+01  1.287E-01  2.000E+01  2.000E+04 -2.341E-01
   1   10   26     2     5    6.1887E+04 -3.5842E+03   6.5471E+04  0.000E+00  0.000E+00  0.000E+00  3.92590E+01  1.340E-01  2.000E+01  2.000E+04 -1.792E-01
   1   11   25     2     6    6.5471E+04 -3.1895E+03   6.8660E+04  0.000E+00  0.000E+00  0.000E+00  3.90132E+01  1.382E-01  2.000E+01  2.000E+04 -1.595E-01
   1   12   24     2     7    6.8660E+04 -3.0470E+03   7.1707E+04  0.000E+00  0.000E+00  0.000E+00  3.87670E+01  1.420E-01  2.000E+01  2.000E+04 -1.523E-01
   1   13   23     2     8    7.1707E+04 -5.8372E+02   7.2291E+04  0.000E+00  0.000E+00  0.000E+00  3.85192E+01  1.442E-01  2.000E+01  2.000E+04 -2.919E-02
   1   14   22     2     9    7.2291E+04  1.1727E+03   7.1119E+04  0.000E+00  0.000E+00  0.000E+00  3.82688E+01  1.438E-01  2.000E+01  2.000E+04  5.863E-02
   1   14   22     3     1    2.2370E+05 -9.1540E+03   2.3285E+05  0.000E+00  0.000E+00  0.000E+00  3.77525E+01  1.970E-01  2.000E+01  2.000E+04 -4.577E-01
   1   15   23     3     2    2.3285E+05 -1.0442E+03   2.3390E+05  0.000E+00  0.000E+00  0.000E+00  3.68663E+01  1.996E-01  2.000E+01  2.000E+04 -5.221E-02
   1   15   24     3     3    2.3390E+05 -6.6331E+02   2.3456E+05  0.000E+00  0.000E+00  0.000E+00  3.59778E+01  2.000E-01  2.000E+01  2.000E+04 -3.317E-02
   1   15   25     3     4    2.3456E+05 -6.7044E+02   2.3523E+05  0.000E+00  0.000E+00  0.000E+00  3.50893E+01  2.004E-01  2.000E+01  2.000E+04 -3.352E-02
   1   15   26     3     5    2.3523E+05 -7.7280E+02   2.3600E+05  0.000E+00  0.000E+00  0.000E+00  3.42007E+01  2.007E-01  2.000E+01  2.000E+04 -3.864E-02
   1   16   27     3     6    2.3600E+05 -8.9787E+02   2.3690E+05  0.000E+00  0.000E+00  0.000E+00  3.33123E+01  2.012E-01  2.000E+01  2.000E+04 -4.489E-02
   1   17   28     3     7    2.3690E+05 -3.2537E+03   2.4016E+05  0.000E+00  0.000E+00  0.000E+00  3.24244E+01  2.022E-01  2.000E+01  2.000E+04 -1.627E-01
   1   18   29     3     8    2.4016E+05 -5.0418E+03   2.4520E+05  0.000E+00  0.000E+00  0.000E+00  3.15377E+01  2.043E-01  2.000E+01  2.000E+04 -2.521E-01
   1   18   30     3     9    2.4520E+05 -4.6769E+03   2.4988E+05  0.000E+00  0.000E+00  0.000E+00  3.06512E+01  2.068E-01  2.000E+01  2.000E+04 -2.338E-01



1
              HEAD IN LAYER   1 AT END OF TIME STEP   1 IN STRESS PERIOD    2
  ---------------------------------------------------------------------------

          1      2      3      4      5      6      7      8      9     10
         11     12     13     14     15     16     17     18     19     20
         21     22     23     24     25     26     27     28     29     30
 .........................................................................
   1  ****** ****** ****** ****** ****** ****** ****** ****** ****** ******
      ****** ****** ****** ****** ****** ****** ****** ****** ****** ******
      ****** ****** ****** ****** ****** ****** ****** ****** ****** ******
   2  ****** ****** ****** ****** ****** ****** ****** ****** ****** ******
      ****** ****** ****** ****** ****** ****** ****** ****** ****** ******
      ****** ****** ****** ****** ****** ****** ****** ****** ****** ******
   3  ****** ****** ****** ****** ****** ****** ****** ****** ****** ******
      ****** ****** ****** ****** ****** ****** ****** ****** ****** ******
      ****** ****** ****** ****** ****** ****** ****** ****** ****** ******
   4  ****** ****** ****** ****** ****** ****** ****** ****** ****** ******
      ****** ****** ****** ****** ****** ****** ****** ****** ****** ******
      ****** ****** ****** ****** ****** ****** ****** ****** ****** ******
   5  ****** ****** ****** ****** ****** ****** ****** ****** ****** ******
      ****** ****** ****** ****** ****** ****** ****** ****** ****** ******
      ****** ****** ****** ****** ****** ****** ****** ****** ****** ******
   6  ****** ****** ****** ****** ****** ****** ****** ****** ****** ******
      ****** ****** ****** ****** ****** ****** ****** ****** ****** ******
      ****** ****** ****** ****** ****** ****** ****** ****** ****** ******
   7  ****** ****** ****** ****** ****** ****** ****** ****** ****** ******
      ****** ****** ****** ****** ****** ****** ****** ****** ****** ******
      ****** ****** ****** ****** ****** ****** ****** ****** ****** ******
   8  ****** ****** ****** ****** ****** ****** ****** ****** ****** ******
      ****** ****** ****** ****** ****** ****** ****** ****** ****** ******
      ****** ****** ****** ****** ****** ****** ****** ****** ****** ******
   9  ****** ****** ****** ****** ****** ****** ****** ****** ****** ******
      ****** ****** ****** ****** ****** ****** ****** ****** ****** ******
      ****** ****** ****** ****** ****** ****** ****** ****** ****** ******
  10  ****** ****** ****** ****** ****** ****** ****** ****** ****** ******
      ****** ****** ****** ****** ****** ****** ****** ****** ****** ******
      ****** ****** ****** ****** ****** ****** ****** ****** ****** ******
  11  ****** ****** ****** ****** ****** ****** ****** ****** ****** ******
      ****** ****** ****** ****** ****** ****** ****** ****** ****** ******
      ****** ****** ****** ****** ****** ****** ****** ****** ****** ******
  12  ****** ****** ****** ****** ****** ****** ****** ****** ****** ******
      ****** ****** ****** ****** ****** ****** ****** ****** ****** ******
      ****** ****** ****** ****** ****** ****** ****** ****** ****** ******
  13  ****** ****** ****** ****** ****** ****** ****** ****** ****** ******
      ****** ****** ****** ****** ****** ****** ****** ****** ****** ******
      ****** ****** ****** ****** ****** ****** ****** ****** ****** ******
  14  ****** ****** ****** ****** ****** ****** ****** ****** ****** ******
      ****** ****** ****** ****** ****** ****** ****** ****** ****** ******
      ****** ****** ****** ****** ****** ****** ****** ****** ****** ******
  15  ****** ****** ****** ****** ****** ****** ****** ****** ****** ******
      ****** ****** ****** ****** ****** ****** ****** ****** ****** ******
      ****** ****** ****** ****** ****** ****** ****** ****** ****** ******
  16  ****** ****** ****** ****** ****** ****** ****** ****** ****** ******
      ****** ****** ****** ****** ****** ****** ****** ****** ****** ******
      ****** ****** ****** ****** ****** ****** ****** ****** ****** ******
  17  ****** ****** ****** ****** ****** ****** ****** ****** ****** ******
      ****** ****** ****** ****** ****** ****** ****** ****** ****** ******
      ****** ****** ****** ****** ****** ****** ****** ****** ****** ******
  18  ****** ****** ****** ****** ****** ****** ****** ****** ****** ******
      ****** ****** ****** ****** ****** ****** ****** ****** ****** ******
      ****** ****** ****** ****** ****** ****** ****** ****** ****** ******
  19  ****** ****** ****** ****** ****** ****** ****** ****** ****** ******
      ****** ****** ****** ****** ****** ****** ****** ****** ****** ******
      ****** ****** ****** ****** ****** ****** ****** ****** ****** ******
  20  ****** ****** ****** ****** ****** ****** ****** ****** ****** ******
      ****** ****** ****** ****** ****** ****** ****** ****** ****** ******
      ****** ****** ****** ****** ****** ****** ****** ****** ****** ******
  21  ****** ****** ****** ****** ****** ****** ****** ****** ****** ******
      ****** ****** ****** ****** ****** ****** ****** ****** ****** ******
      ****** ****** ****** ****** ****** ****** ****** ****** ****** ******
  22  ****** ****** ****** ****** ****** ****** ****** ****** ****** ******
      ****** ****** ****** ****** ****** ****** ****** ****** ****** ******
      ****** ****** ****** ****** ****** ****** ****** ****** ****** ******
  23  ****** ****** ****** ****** ****** ****** ****** ****** ****** ******
      ****** ****** ****** ****** ****** ****** ****** ****** ****** ******
      ****** ****** ****** ****** ****** ****** ****** ****** ****** ******
  24  ****** ****** ****** ****** ****** ****** ****** ****** ****** ******
      ****** ****** ****** ****** ****** ****** ****** ****** ****** ******
      ****** ****** ****** ****** ****** ****** ****** ****** ****** ******
  25  ****** ****** ****** ****** ****** ****** ****** ****** ****** ******
      ****** ****** ****** ****** ****** ****** ****** ****** ****** ******
      ****** ****** ****** ****** ****** ****** ****** ****** ****** ******

 HEAD WILL BE SAVED ON UNIT   51 AT END OF TIME STEP    1, STRESS PERIOD    2
1
  VOLUMETRIC BUDGET FOR ENTIRE MODEL AT END OF TIME STEP    1, STRESS PERIOD   2
  ------------------------------------------------------------------------------

     CUMULATIVE VOLUMES      L**3       RATES FOR THIS TIME STEP      L**3/T
     ------------------                 ------------------------

           IN:                                      IN:
           ---                                      ---
             STORAGE =    22795971.5906               STORAGE =       54961.1028
       CONSTANT HEAD =     2813989.4710         CONSTANT HEAD =       17784.6718
               WELLS =           0.0000                 WELLS =           0.0000
            RECHARGE =     6292800.0000              RECHARGE =       55200.0000
      STREAM LEAKAGE =      852882.0808        STREAM LEAKAGE =        5500.5951

            TOTAL IN =    32755643.1424              TOTAL IN =      133446.3698

          OUT:                                     OUT:
          ----                                     ----
             STORAGE =           0.0000               STORAGE =           0.0000
       CONSTANT HEAD =           0.0000         CONSTANT HEAD =           0.0000
               WELLS =     5136952.6688                 WELLS =       28070.7796
            RECHARGE =           0.0000              RECHARGE =           0.0000
      STREAM LEAKAGE =    27618691.8068        STREAM LEAKAGE =      105375.6016

           TOTAL OUT =    32755644.4755             TOTAL OUT =      133446.3812

            IN - OUT =          -1.3331              IN - OUT =      -1.1372E-02

 PERCENT DISCREPANCY =          -0.00     PERCENT DISCREPANCY =          -0.00






         TIME SUMMARY AT END OF TIME STEP    1 IN STRESS PERIOD    2
                    SECONDS     MINUTES      HOURS       DAYS        YEARS
                    -----------------------------------------------------------
   TIME STEP LENGTH 7.86240E+06 1.31040E+05  2184.0      91.000     0.24914    
 STRESS PERIOD TIME 7.86240E+06 1.31040E+05  2184.0      91.000     0.24914    
         TOTAL TIME 1.58112E+07 2.63520E+05  4392.0      183.00     0.50103    
1
1
                            STRESS PERIOD NO.    3, LENGTH =   91.00000    
                            -----------------------------------------------

                              NUMBER OF TIME STEPS =     1

                               MULTIPLIER FOR DELT =     1.500

                            INITIAL TIME STEP SIZE =   91.00000    

 WELL NO.  LAYER   ROW   COL   STRESS RATE         
 --------------------------------------------------
      1      1     16      2      -8562.    
      2      1     23     16      -2065.    
      3      1     13     14      -6003.    
      4      1      6     16     -0.1144E+05

      4 WELLS

                 RECHARGE =   0.00000    

 REUSING STREAM SEGMENT DATA FROM LAST STRESS PERIOD
 
 SOLVING FOR HEAD 


     7 CALLS TO PCG ROUTINE FOR TIME STEP   1 IN STRESS PERIOD    3
    27 TOTAL ITERATIONS

 OUTPUT CONTROL FOR STRESS PERIOD    3   TIME STEP    1
    SAVE BUDGET
    SAVE HEAD FOR ALL LAYERS
    PRINT HEAD FOR ALL LAYERS
 UBDSV2 SAVING "STREAMFLOW OUT  " ON UNIT  50 AT TIME STEP  1, STRESS PERIOD   3



 STREAM LISTING     PERIOD      3   STEP        1

 LAYER ROW COL. STREAM  RCH.  FLOW INTO     FLOW TO   FLOW OUT OF   OVRLND.     DIRECT     STREAM       STREAM     STREAM     STREAM   STREAMBED  STREAMBED
                SEG.NO.  NO.  STRM. RCH.    AQUIFER    STRM. RCH.    RUNOFF     PRECIP       ET          HEAD       DEPTH      WIDTH   CONDCTNC.   GRADIENT

   1   13    1     1     1    1.0000E+05 -1.2099E+03   1.0121E+05  0.000E+00  0.000E+00  0.000E+00  4.84065E+01  1.452E-01  2.000E+01  2.000E+04 -6.050E-02
   1   13    2     1     2    1.0121E+05 -2.2986E+03   1.0351E+05  0.000E+00  0.000E+00  0.000E+00  4.79308E+01  1.467E-01  2.000E+01  2.000E+04 -1.149E-01
   1   14    3     1     3    1.0351E+05 -1.5808E+02   1.0367E+05  0.000E+00  0.000E+00  0.000E+00  4.74546E+01  1.477E-01  2.000E+01  2.000E+04 -7.904E-03
   1   15    4     1     4    1.0367E+05 -1.3598E+02   1.0380E+05  0.000E+00  0.000E+00  0.000E+00  4.69774E+01  1.479E-01  2.000E+01  2.000E+04 -6.799E-03
   1   16    5     1     5    1.0380E+05 -2.1639E+02   1.0402E+05  0.000E+00  0.000E+00  0.000E+00  4.65003E+01  1.480E-01  2.000E+01  2.000E+04 -1.082E-02
   1   16    6     1     6    1.0402E+05 -1.0156E+03   1.0503E+05  0.000E+00  0.000E+00  0.000E+00  4.60235E+01  1.485E-01  2.000E+01  2.000E+04 -5.078E-02
   1   16    7     1     7    1.0503E+05 -1.1772E+03   1.0621E+05  0.000E+00  0.000E+00  0.000E+00  4.55472E+01  1.495E-01  2.000E+01  2.000E+04 -5.886E-02
   1   16    8     1     8    1.0621E+05 -1.2521E+03   1.0746E+05  0.000E+00  0.000E+00  0.000E+00  4.50710E+01  1.505E-01  2.000E+01  2.000E+04 -6.260E-02
   1   16    9     1     9    1.0746E+05 -1.2815E+03   1.0875E+05  0.000E+00  0.000E+00  0.000E+00  4.45948E+01  1.516E-01  2.000E+01  2.000E+04 -6.407E-02
   1   16   10     1    10    1.0875E+05 -1.2796E+03   1.1002E+05  0.000E+00  0.000E+00  0.000E+00  4.41186E+01  1.527E-01  2.000E+01  2.000E+04 -6.398E-02
   1   16   11     1    11    1.1002E+05 -1.2813E+03   1.1131E+05  0.000E+00  0.000E+00  0.000E+00  4.36424E+01  1.537E-01  2.000E+01  2.000E+04 -6.406E-02
   1   16   12     1    12    1.1131E+05 -2.1944E+03   1.1350E+05  0.000E+00  0.000E+00  0.000E+00  4.31665E+01  1.552E-01  2.000E+01  2.000E+04 -1.097E-01
   1   15   13     1    13    1.1350E+05 -1.7701E+03   1.1527E+05  0.000E+00  0.000E+00  0.000E+00  4.26909E+01  1.568E-01  2.000E+01  2.000E+04 -8.850E-02
   1   14   14     1    14    1.1527E+05 -2.9133E+02   1.1556E+05  0.000E+00  0.000E+00  0.000E+00  4.22145E+01  1.576E-01  2.000E+01  2.000E+04 -1.457E-02
   1   13   15     1    15    1.1556E+05 -4.9179E+02   1.1605E+05  0.000E+00  0.000E+00  0.000E+00  4.17375E+01  1.580E-01  2.000E+01  2.000E+04 -2.459E-02
   1   12   16     1    16    1.1605E+05 -2.5827E+03   1.1864E+05  0.000E+00  0.000E+00  0.000E+00  4.12615E+01  1.592E-01  2.000E+01  2.000E+04 -1.291E-01
   1   12   17     1    17    1.1864E+05 -1.8758E+03   1.2051E+05  0.000E+00  0.000E+00  0.000E+00  4.07860E+01  1.610E-01  2.000E+01  2.000E+04 -9.379E-02
   1   12   18     1    18    1.2051E+05 -1.8578E+03   1.2237E+05  0.000E+00  0.000E+00  0.000E+00  4.03103E+01  1.625E-01  2.000E+01  2.000E+04 -9.289E-02
   1   12   19     1    19    1.2237E+05 -2.4673E+03   1.2484E+05  0.000E+00  0.000E+00  0.000E+00  3.98347E+01  1.643E-01  2.000E+01  2.000E+04 -1.234E-01
   1   13   20     1    20    1.2484E+05 -2.0953E+03   1.2693E+05  0.000E+00  0.000E+00  0.000E+00  3.93593E+01  1.661E-01  2.000E+01  2.000E+04 -1.048E-01
   1   14   21     1    21    1.2693E+05 -2.1817E+03   1.2911E+05  0.000E+00  0.000E+00  0.000E+00  3.88837E+01  1.678E-01  2.000E+01  2.000E+04 -1.091E-01
   1   14   22     1    22    1.2911E+05  4.6722E+03   1.2444E+05  0.000E+00  0.000E+00  0.000E+00  3.84054E+01  1.668E-01  2.000E+01  2.000E+04  2.336E-01
   1    9   30     2     1    5.0000E+04 -8.9477E+02   5.0895E+04  0.000E+00  0.000E+00  0.000E+00  4.02415E+01  1.165E-01  2.000E+01  2.000E+04 -4.474E-02
   1    9   29     2     2    5.0895E+04 -1.1977E+03   5.2092E+04  0.000E+00  0.000E+00  0.000E+00  3.99929E+01  1.179E-01  2.000E+01  2.000E+04 -5.989E-02
   1    9   28     2     3    5.2092E+04 -1.4666E+03   5.3559E+04  0.000E+00  0.000E+00  0.000E+00  3.97448E+01  1.198E-01  2.000E+01  2.000E+04 -7.333E-02
   1    9   27     2     4    5.3559E+04 -2.8978E+03   5.6457E+04  0.000E+00  0.000E+00  0.000E+00  3.94977E+01  1.227E-01  2.000E+01  2.000E+04 -1.449E-01
   1   10   26     2     5    5.6457E+04 -1.9206E+03   5.8377E+04  0.000E+00  0.000E+00  0.000E+00  3.92509E+01  1.259E-01  2.000E+01  2.000E+04 -9.603E-02
   1   11   25     2     6    5.8377E+04 -1.6377E+03   6.0015E+04  0.000E+00  0.000E+00  0.000E+00  3.90032E+01  1.282E-01  2.000E+01  2.000E+04 -8.188E-02
   1   12   24     2     7    6.0015E+04 -1.6543E+03   6.1669E+04  0.000E+00  0.000E+00  0.000E+00  3.87553E+01  1.303E-01  2.000E+01  2.000E+04 -8.271E-02
   1   13   23     2     8    6.1669E+04 -2.4192E+02   6.1911E+04  0.000E+00  0.000E+00  0.000E+00  3.85066E+01  1.316E-01  2.000E+01  2.000E+04 -1.210E-02
   1   14   22     2     9    6.1911E+04  1.6766E+03   6.0235E+04  0.000E+00  0.000E+00  0.000E+00  3.82556E+01  1.306E-01  2.000E+01  2.000E+04  8.383E-02
   1   14   22     3     1    1.8468E+05 -8.8069E+03   1.9348E+05  0.000E+00  0.000E+00  0.000E+00  3.77315E+01  1.759E-01  2.000E+01  2.000E+04 -4.403E-01
   1   15   23     3     2    1.9348E+05 -6.5401E+02   1.9414E+05  0.000E+00  0.000E+00  0.000E+00  3.68452E+01  1.785E-01  2.000E+01  2.000E+04 -3.270E-02
   1   15   24     3     3    1.9414E+05 -3.4203E+02   1.9448E+05  0.000E+00  0.000E+00  0.000E+00  3.59566E+01  1.788E-01  2.000E+01  2.000E+04 -1.710E-02
   1   15   25     3     4    1.9448E+05 -3.3249E+02   1.9481E+05  0.000E+00  0.000E+00  0.000E+00  3.50679E+01  1.790E-01  2.000E+01  2.000E+04 -1.662E-02
   1   15   26     3     5    1.9481E+05 -3.6980E+02   1.9518E+05  0.000E+00  0.000E+00  0.000E+00  3.41792E+01  1.792E-01  2.000E+01  2.000E+04 -1.849E-02
   1   16   27     3     6    1.9518E+05 -4.3349E+02   1.9562E+05  0.000E+00  0.000E+00  0.000E+00  3.32905E+01  1.794E-01  2.000E+01  2.000E+04 -2.167E-02
   1   17   28     3     7    1.9562E+05 -1.8449E+03   1.9746E+05  0.000E+00  0.000E+00  0.000E+00  3.24023E+01  1.800E-01  2.000E+01  2.000E+04 -9.224E-02
   1   18   29     3     8    1.9746E+05 -3.5295E+03   2.0099E+05  0.000E+00  0.000E+00  0.000E+00  3.15148E+01  1.815E-01  2.000E+01  2.000E+04 -1.765E-01
   1   18   30     3     9    2.0099E+05 -3.5434E+03   2.0453E+05  0.000E+00  0.000E+00  0.000E+00  3.06279E+01  1.834E-01  2.000E+01  2.000E+04 -1.772E-01



1
              HEAD IN LAYER   1 AT END OF TIME STEP   1 IN STRESS PERIOD    3
  ---------------------------------------------------------------------------

          1      2      3      4      5      6      7      8      9     10
         11     12     13     14     15     16     17     18     19     20
         21     22     23     24     25     26     27     28     29     30
 .........................................................................
   1  ****** ****** ****** ****** ****** ****** ****** ****** ****** ******
      ****** ****** ****** ****** ****** ****** ****** ****** ****** ******
      ****** ****** ****** ****** ****** ****** ****** ****** ****** ******
   2  ****** ****** ****** ****** ****** ****** ****** ****** ****** ******
      ****** ****** ****** ****** ****** ****** ****** ****** ****** ******
      ****** ****** ****** ****** ****** ****** ****** ****** ****** ******
   3  ****** ****** ****** ****** ****** ****** ****** ****** ****** ******
      ****** ****** ****** ****** ****** ****** ****** ****** ****** ******
      ****** ****** ****** ****** ****** ****** ****** ****** ****** ******
   4  ****** ****** ****** ****** ****** ****** ****** ****** ****** ******
      ****** ****** ****** ****** ****** ****** ****** ****** ****** ******
      ****** ****** ****** ****** ****** ****** ****** ****** ****** ******
   5  ****** ****** ****** ****** ****** ****** ****** ****** ****** ******
      ****** ****** ****** ****** ****** ****** ****** ****** ****** ******
      ****** ****** ****** ****** ****** ****** ****** ****** ****** ******
   6  ****** ****** ****** ****** ****** ****** ****** ****** ****** ******
      ****** ****** ****** ****** ****** ****** ****** ****** ****** ******
      ****** ****** ****** ****** ****** ****** ****** ****** ****** ******
   7  ****** ****** ****** ****** ****** ****** ****** ****** ****** ******
      ****** ****** ****** ****** ****** ****** ****** ****** ****** ******
      ****** ****** ****** ****** ****** ****** ****** ****** ****** ******
   8  ****** ****** ****** ****** ****** ****** ****** ****** ****** ******
      ****** ****** ****** ****** ****** ****** ****** ****** ****** ******
      ****** ****** ****** ****** ****** ****** ****** ****** ****** ******
   9  ****** ****** ****** ****** ****** ****** ****** ****** ****** ******
      ****** ****** ****** ****** ****** ****** ****** ****** ****** ******
      ****** ****** ****** ****** ****** ****** ****** ****** ****** ******
  10  ****** ****** ****** ****** ****** ****** ****** ****** ****** ******
      ****** ****** ****** ****** ****** ****** ****** ****** ****** ******
      ****** ****** ****** ****** ****** ****** ****** ****** ****** ******
  11  ****** ****** ****** ****** ****** ****** ****** ****** ****** ******
      ****** ****** ****** ****** ****** ****** ****** ****** ****** ******
      ****** ****** ****** ****** ****** ****** ****** ****** ****** ******
  12  ****** ****** ****** ****** ****** ****** ****** ****** ****** ******
      ****** ****** ****** ****** ****** ****** ****** ****** ****** ******
      ****** ****** ****** ****** ****** ****** ****** ****** ****** ******
  13  ****** ****** ****** ****** ****** ****** ****** ****** ****** ******
      ****** ****** ****** ****** ****** ****** ****** ****** ****** ******
      ****** ****** ****** ****** ****** ****** ****** ****** ****** ******
  14  ****** ****** ****** ****** ****** ****** ****** ****** ****** ******
      ****** ****** ****** ****** ****** ****** ****** ****** ****** ******
      ****** ****** ****** ****** ****** ****** ****** ****** ****** ******
  15  ****** ****** ****** ****** ****** ****** ****** ****** ****** ******
      ****** ****** ****** ****** ****** ****** ****** ****** ****** ******
      ****** ****** ****** ****** ****** ****** ****** ****** ****** ******
  16  ****** ****** ****** ****** ****** ****** ****** ****** ****** ******
      ****** ****** ****** ****** ****** ****** ****** ****** ****** ******
      ****** ****** ****** ****** ****** ****** ****** ****** ****** ******
  17  ****** ****** ****** ****** ****** ****** ****** ****** ****** ******
      ****** ****** ****** ****** ****** ****** ****** ****** ****** ******
      ****** ****** ****** ****** ****** ****** ****** ****** ****** ******
  18  ****** ****** ****** ****** ****** ****** ****** ****** ****** ******
      ****** ****** ****** ****** ****** ****** ****** ****** ****** ******
      ****** ****** ****** ****** ****** ****** ****** ****** ****** ******
  19  ****** ****** ****** ****** ****** ****** ****** ****** ****** ******
      ****** ****** ****** ****** ****** ****** ****** ****** ****** ******
      ****** ****** ****** ****** ****** ****** ****** ****** ****** ******
  20  ****** ****** ****** ****** ****** ****** ****** ****** ****** ******
      ****** ****** ****** ****** ****** ****** ****** ****** ****** ******
      ****** ****** ****** ****** ****** ****** ****** ****** ****** ******
  21  ****** ****** ****** ****** ****** ****** ****** ****** ****** ******
      ****** ****** ****** ****** ****** ****** ****** ****** ****** ******
      ****** ****** ****** ****** ****** ****** ****** ****** ****** ******
  22  ****** ****** ****** ****** ****** ****** ****** ****** ****** ******
      ****** ****** ****** ****** ****** ****** ****** ****** ****** ******
      ****** ****** ****** ****** ****** ****** ****** ****** ****** ******
  23  ****** ****** ****** ****** ****** ****** ****** ****** ****** ******
      ****** ****** ****** ****** ****** ****** ****** ****** ****** ******
      ****** ****** ****** ****** ****** ****** ****** ****** ****** ******
  24  ****** ****** ****** ****** ****** ****** ****** ****** ****** ******
      ****** ****** ****** ****** ****** ****** ****** ****** ****** ******
      ****** ****** ****** ****** ****** ****** ****** ****** ****** ******
  25  ****** ****** ****** ****** ****** ****** ****** ****** ****** ******
      ****** ****** ****** ****** ****** ****** ****** ****** ****** ******
      ****** ****** ****** ****** ****** ****** ****** ****** ****** ******

 HEAD WILL BE SAVED ON UNIT   51 AT END OF TIME STEP    1, STRESS PERIOD    3
1
  VOLUMETRIC BUDGET FOR ENTIRE MODEL AT END OF TIME STEP    1, STRESS PERIOD   3
  ------------------------------------------------------------------------------

     CUMULATIVE VOLUMES      L**3       RATES FOR THIS TIME STEP      L**3/T
     ------------------                 ------------------------

           IN:                                      IN:
           ---                                      ---
             STORAGE =    27900643.3860               STORAGE =       56095.2945
       CONSTANT HEAD =     5226293.0232         CONSTANT HEAD =       26508.8302
               WELLS =           0.0000                 WELLS =           0.0000
            RECHARGE =     6292800.0000              RECHARGE =           0.0000
      STREAM LEAKAGE =     1430626.6844        STREAM LEAKAGE =        6348.8418

            TOTAL IN =    40850363.0937              TOTAL IN =       88952.9665

          OUT:                                     OUT:
          ----                                     ----
             STORAGE =           0.0000               STORAGE =           0.0000
       CONSTANT HEAD =           0.0000         CONSTANT HEAD =           0.0000
               WELLS =     7691393.6134                 WELLS =       28070.7796
            RECHARGE =           0.0000              RECHARGE =           0.0000
      STREAM LEAKAGE =    33158971.5422        STREAM LEAKAGE =       60882.1949

           TOTAL OUT =    40850365.1556             TOTAL OUT =       88952.9745

            IN - OUT =          -2.0619              IN - OUT =      -8.0088E-03

 PERCENT DISCREPANCY =          -0.00     PERCENT DISCREPANCY =          -0.00






         TIME SUMMARY AT END OF TIME STEP    1 IN STRESS PERIOD    3
                    SECONDS     MINUTES      HOURS       DAYS        YEARS
                    -----------------------------------------------------------
   TIME STEP LENGTH 7.86240E+06 1.31040E+05  2184.0      91.000     0.24914    
 STRESS PERIOD TIME 7.86240E+06 1.31040E+05  2184.0      91.000     0.24914    
         TOTAL TIME 2.36736E+07 3.94560E+05  6576.0      274.00     0.75017    
1
1
                            STRESS PERIOD NO.    4, LENGTH =   91.00000    
                            -----------------------------------------------

                              NUMBER OF TIME STEPS =     1

                               MULTIPLIER FOR DELT =     1.500

                            INITIAL TIME STEP SIZE =   91.00000    

 WELL NO.  LAYER   ROW   COL   STRESS RATE         
 --------------------------------------------------
      1      1     16      2      -8562.    
      2      1     23     16      -2065.    
      3      1     13     14      -6003.    
      4      1      6     16     -0.1144E+05

      4 WELLS

                 RECHARGE =  1.000000E-03

 REUSING STREAM SEGMENT DATA FROM LAST STRESS PERIOD
 
 SOLVING FOR HEAD 


     6 CALLS TO PCG ROUTINE FOR TIME STEP   1 IN STRESS PERIOD    4
    23 TOTAL ITERATIONS

 OUTPUT CONTROL FOR STRESS PERIOD    4   TIME STEP    1
    SAVE BUDGET
    SAVE HEAD FOR ALL LAYERS
    PRINT HEAD FOR ALL LAYERS
 UBDSV2 SAVING "STREAMFLOW OUT  " ON UNIT  50 AT TIME STEP  1, STRESS PERIOD   4



 STREAM LISTING     PERIOD      4   STEP        1

 LAYER ROW COL. STREAM  RCH.  FLOW INTO     FLOW TO   FLOW OUT OF   OVRLND.     DIRECT     STREAM       STREAM     STREAM     STREAM   STREAMBED  STREAMBED
                SEG.NO.  NO.  STRM. RCH.    AQUIFER    STRM. RCH.    RUNOFF     PRECIP       ET          HEAD       DEPTH      WIDTH   CONDCTNC.   GRADIENT

   1   13    1     1     1    1.0000E+05 -9.3115E+02   1.0093E+05  0.000E+00  0.000E+00  0.000E+00  4.84064E+01  1.451E-01  2.000E+01  2.000E+04 -4.656E-02
   1   13    2     1     2    1.0093E+05 -1.9801E+03   1.0291E+05  0.000E+00  0.000E+00  0.000E+00  4.79304E+01  1.463E-01  2.000E+01  2.000E+04 -9.900E-02
   1   14    3     1     3    1.0291E+05 -1.2003E+02   1.0303E+05  0.000E+00  0.000E+00  0.000E+00  4.74540E+01  1.472E-01  2.000E+01  2.000E+04 -6.002E-03
   1   15    4     1     4    1.0303E+05 -8.6520E+01   1.0312E+05  0.000E+00  0.000E+00  0.000E+00  4.69768E+01  1.473E-01  2.000E+01  2.000E+04 -4.326E-03
   1   16    5     1     5    1.0312E+05  1.4604E+02   1.0297E+05  0.000E+00  0.000E+00  0.000E+00  4.64996E+01  1.473E-01  2.000E+01  2.000E+04  7.302E-03
   1   16    6     1     6    1.0297E+05 -8.4170E+02   1.0381E+05  0.000E+00  0.000E+00  0.000E+00  4.60226E+01  1.476E-01  2.000E+01  2.000E+04 -4.209E-02
   1   16    7     1     7    1.0381E+05 -1.0196E+03   1.0483E+05  0.000E+00  0.000E+00  0.000E+00  4.55461E+01  1.484E-01  2.000E+01  2.000E+04 -5.098E-02
   1   16    8     1     8    1.0483E+05 -1.1017E+03   1.0593E+05  0.000E+00  0.000E+00  0.000E+00  4.50697E+01  1.493E-01  2.000E+01  2.000E+04 -5.509E-02
   1   16    9     1     9    1.0593E+05 -1.1365E+03   1.0707E+05  0.000E+00  0.000E+00  0.000E+00  4.45934E+01  1.502E-01  2.000E+01  2.000E+04 -5.682E-02
   1   16   10     1    10    1.0707E+05 -1.1404E+03   1.0821E+05  0.000E+00  0.000E+00  0.000E+00  4.41171E+01  1.512E-01  2.000E+01  2.000E+04 -5.702E-02
   1   16   11     1    11    1.0821E+05 -1.1445E+03   1.0936E+05  0.000E+00  0.000E+00  0.000E+00  4.36408E+01  1.521E-01  2.000E+01  2.000E+04 -5.722E-02
   1   16   12     1    12    1.0936E+05 -1.9134E+03   1.1127E+05  0.000E+00  0.000E+00  0.000E+00  4.31648E+01  1.534E-01  2.000E+01  2.000E+04 -9.567E-02
   1   15   13     1    13    1.1127E+05 -1.5010E+03   1.1277E+05  0.000E+00  0.000E+00  0.000E+00  4.26889E+01  1.548E-01  2.000E+01  2.000E+04 -7.505E-02
   1   14   14     1    14    1.1277E+05  8.7082E+00   1.1276E+05  0.000E+00  0.000E+00  0.000E+00  4.22123E+01  1.555E-01  2.000E+01  2.000E+04  4.354E-04
   1   13   15     1    15    1.1276E+05 -1.5651E+02   1.1292E+05  0.000E+00  0.000E+00  0.000E+00  4.17351E+01  1.555E-01  2.000E+01  2.000E+04 -7.825E-03
   1   12   16     1    16    1.1292E+05 -2.1293E+03   1.1505E+05  0.000E+00  0.000E+00  0.000E+00  4.12587E+01  1.565E-01  2.000E+01  2.000E+04 -1.065E-01
   1   12   17     1    17    1.1505E+05 -1.6093E+03   1.1666E+05  0.000E+00  0.000E+00  0.000E+00  4.07830E+01  1.580E-01  2.000E+01  2.000E+04 -8.047E-02
   1   12   18     1    18    1.1666E+05 -1.6128E+03   1.1827E+05  0.000E+00  0.000E+00  0.000E+00  4.03070E+01  1.593E-01  2.000E+01  2.000E+04 -8.064E-02
   1   12   19     1    19    1.1827E+05 -2.1622E+03   1.2043E+05  0.000E+00  0.000E+00  0.000E+00  3.98313E+01  1.608E-01  2.000E+01  2.000E+04 -1.081E-01
   1   13   20     1    20    1.2043E+05 -1.9126E+03   1.2234E+05  0.000E+00  0.000E+00  0.000E+00  3.93557E+01  1.625E-01  2.000E+01  2.000E+04 -9.563E-02
   1   14   21     1    21    1.2234E+05 -1.9547E+03   1.2430E+05  0.000E+00  0.000E+00  0.000E+00  3.88799E+01  1.640E-01  2.000E+01  2.000E+04 -9.773E-02
   1   14   22     1    22    1.2430E+05  4.7033E+03   1.1960E+05  0.000E+00  0.000E+00  0.000E+00  3.84016E+01  1.629E-01  2.000E+01  2.000E+04  2.352E-01
   1    9   30     2     1    5.0000E+04 -7.9980E+02   5.0800E+04  0.000E+00  0.000E+00  0.000E+00  4.02414E+01  1.164E-01  2.000E+01  2.000E+04 -3.999E-02
   1    9   29     2     2    5.0800E+04 -1.0948E+03   5.1895E+04  0.000E+00  0.000E+00  0.000E+00  3.99927E+01  1.177E-01  2.000E+01  2.000E+04 -5.474E-02
   1    9   28     2     3    5.1895E+04 -1.3409E+03   5.3235E+04  0.000E+00  0.000E+00  0.000E+00  3.97444E+01  1.194E-01  2.000E+01  2.000E+04 -6.705E-02
   1    9   27     2     4    5.3235E+04 -2.6072E+03   5.5843E+04  0.000E+00  0.000E+00  0.000E+00  3.94971E+01  1.221E-01  2.000E+01  2.000E+04 -1.304E-01
   1   10   26     2     5    5.5843E+04 -1.7439E+03   5.7587E+04  0.000E+00  0.000E+00  0.000E+00  3.92500E+01  1.250E-01  2.000E+01  2.000E+04 -8.719E-02
   1   11   25     2     6    5.7587E+04 -1.5016E+03   5.9088E+04  0.000E+00  0.000E+00  0.000E+00  3.90021E+01  1.271E-01  2.000E+01  2.000E+04 -7.508E-02
   1   12   24     2     7    5.9088E+04 -1.5348E+03   6.0623E+04  0.000E+00  0.000E+00  0.000E+00  3.87541E+01  1.291E-01  2.000E+01  2.000E+04 -7.674E-02
   1   13   23     2     8    6.0623E+04 -2.6417E+02   6.0887E+04  0.000E+00  0.000E+00  0.000E+00  3.85052E+01  1.302E-01  2.000E+01  2.000E+04 -1.321E-02
   1   14   22     2     9    6.0887E+04  1.7572E+03   5.9130E+04  0.000E+00  0.000E+00  0.000E+00  3.82543E+01  1.293E-01  2.000E+01  2.000E+04  8.786E-02
   1   14   22     3     1    1.7873E+05 -8.7660E+03   1.8749E+05  0.000E+00  0.000E+00  0.000E+00  3.77281E+01  1.726E-01  2.000E+01  2.000E+04 -4.383E-01
   1   15   23     3     2    1.8749E+05 -6.3255E+02   1.8812E+05  0.000E+00  0.000E+00  0.000E+00  3.68419E+01  1.752E-01  2.000E+01  2.000E+04 -3.163E-02
   1   15   24     3     3    1.8812E+05 -3.4265E+02   1.8847E+05  0.000E+00  0.000E+00  0.000E+00  3.59532E+01  1.755E-01  2.000E+01  2.000E+04 -1.713E-02
   1   15   25     3     4    1.8847E+05 -3.3285E+02   1.8880E+05  0.000E+00  0.000E+00  0.000E+00  3.50645E+01  1.757E-01  2.000E+01  2.000E+04 -1.664E-02
   1   15   26     3     5    1.8880E+05 -3.7966E+02   1.8918E+05  0.000E+00  0.000E+00  0.000E+00  3.41759E+01  1.759E-01  2.000E+01  2.000E+04 -1.898E-02
   1   16   27     3     6    1.8918E+05 -4.3512E+02   1.8961E+05  0.000E+00  0.000E+00  0.000E+00  3.32872E+01  1.761E-01  2.000E+01  2.000E+04 -2.176E-02
   1   17   28     3     7    1.8961E+05 -1.7857E+03   1.9140E+05  0.000E+00  0.000E+00  0.000E+00  3.23989E+01  1.767E-01  2.000E+01  2.000E+04 -8.929E-02
   1   18   29     3     8    1.9140E+05 -3.3207E+03   1.9472E+05  0.000E+00  0.000E+00  0.000E+00  3.15115E+01  1.781E-01  2.000E+01  2.000E+04 -1.660E-01
   1   18   30     3     9    1.9472E+05 -3.4408E+03   1.9816E+05  0.000E+00  0.000E+00  0.000E+00  3.06244E+01  1.800E-01  2.000E+01  2.000E+04 -1.720E-01



1
              HEAD IN LAYER   1 AT END OF TIME STEP   1 IN STRESS PERIOD    4
  ---------------------------------------------------------------------------

          1      2      3      4      5      6      7      8      9     10
         11     12     13     14     15     16     17     18     19     20
         21     22     23     24     25     26     27     28     29     30
 .........................................................................
   1  ****** ****** ****** ****** ****** ****** ****** ****** ****** ******
      ****** ****** ****** ****** ****** ****** ****** ****** ****** ******
      ****** ****** ****** ****** ****** ****** ****** ****** ****** ******
   2  ****** ****** ****** ****** ****** ****** ****** ****** ****** ******
      ****** ****** ****** ****** ****** ****** ****** ****** ****** ******
      ****** ****** ****** ****** ****** ****** ****** ****** ****** ******
   3  ****** ****** ****** ****** ****** ****** ****** ****** ****** ******
      ****** ****** ****** ****** ****** ****** ****** ****** ****** ******
      ****** ****** ****** ****** ****** ****** ****** ****** ****** ******
   4  ****** ****** ****** ****** ****** ****** ****** ****** ****** ******
      ****** ****** ****** ****** ****** ****** ****** ****** ****** ******
      ****** ****** ****** ****** ****** ****** ****** ****** ****** ******
   5  ****** ****** ****** ****** ****** ****** ****** ****** ****** ******
      ****** ****** ****** ****** ****** ****** ****** ****** ****** ******
      ****** ****** ****** ****** ****** ****** ****** ****** ****** ******
   6  ****** ****** ****** ****** ****** ****** ****** ****** ****** ******
      ****** ****** ****** ****** ****** ****** ****** ****** ****** ******
      ****** ****** ****** ****** ****** ****** ****** ****** ****** ******
   7  ****** ****** ****** ****** ****** ****** ****** ****** ****** ******
      ****** ****** ****** ****** ****** ****** ****** ****** ****** ******
      ****** ****** ****** ****** ****** ****** ****** ****** ****** ******
   8  ****** ****** ****** ****** ****** ****** ****** ****** ****** ******
      ****** ****** ****** ****** ****** ****** ****** ****** ****** ******
      ****** ****** ****** ****** ****** ****** ****** ****** ****** ******
   9  ****** ****** ****** ****** ****** ****** ****** ****** ****** ******
      ****** ****** ****** ****** ****** ****** ****** ****** ****** ******
      ****** ****** ****** ****** ****** ****** ****** ****** ****** ******
  10  ****** ****** ****** ****** ****** ****** ****** ****** ****** ******
      ****** ****** ****** ****** ****** ****** ****** ****** ****** ******
      ****** ****** ****** ****** ****** ****** ****** ****** ****** ******
  11  ****** ****** ****** ****** ****** ****** ****** ****** ****** ******
      ****** ****** ****** ****** ****** ****** ****** ****** ****** ******
      ****** ****** ****** ****** ****** ****** ****** ****** ****** ******
  12  ****** ****** ****** ****** ****** ****** ****** ****** ****** ******
      ****** ****** ****** ****** ****** ****** ****** ****** ****** ******
      ****** ****** ****** ****** ****** ****** ****** ****** ****** ******
  13  ****** ****** ****** ****** ****** ****** ****** ****** ****** ******
      ****** ****** ****** ****** ****** ****** ****** ****** ****** ******
      ****** ****** ****** ****** ****** ****** ****** ****** ****** ******
  14  ****** ****** ****** ****** ****** ****** ****** ****** ****** ******
      ****** ****** ****** ****** ****** ****** ****** ****** ****** ******
      ****** ****** ****** ****** ****** ****** ****** ****** ****** ******
  15  ****** ****** ****** ****** ****** ****** ****** ****** ****** ******
      ****** ****** ****** ****** ****** ****** ****** ****** ****** ******
      ****** ****** ****** ****** ****** ****** ****** ****** ****** ******
  16  ****** ****** ****** ****** ****** ****** ****** ****** ****** ******
      ****** ****** ****** ****** ****** ****** ****** ****** ****** ******
      ****** ****** ****** ****** ****** ****** ****** ****** ****** ******
  17  ****** ****** ****** ****** ****** ****** ****** ****** ****** ******
      ****** ****** ****** ****** ****** ****** ****** ****** ****** ******
      ****** ****** ****** ****** ****** ****** ****** ****** ****** ******
  18  ****** ****** ****** ****** ****** ****** ****** ****** ****** ******
      ****** ****** ****** ****** ****** ****** ****** ****** ****** ******
      ****** ****** ****** ****** ****** ****** ****** ****** ****** ******
  19  ****** ****** ****** ****** ****** ****** ****** ****** ****** ******
      ****** ****** ****** ****** ****** ****** ****** ****** ****** ******
      ****** ****** ****** ****** ****** ****** ****** ****** ****** ******
  20  ****** ****** ****** ****** ****** ****** ****** ****** ****** ******
      ****** ****** ****** ****** ****** ****** ****** ****** ****** ******
      ****** ****** ****** ****** ****** ****** ****** ****** ****** ******
  21  ****** ****** ****** ****** ****** ****** ****** ****** ****** ******
      ****** ****** ****** ****** ****** ****** ****** ****** ****** ******
      ****** ****** ****** ****** ****** ****** ****** ****** ****** ******
  22  ****** ****** ****** ****** ****** ****** ****** ****** ****** ******
      ****** ****** ****** ****** ****** ****** ****** ****** ****** ******
      ****** ****** ****** ****** ****** ****** ****** ****** ****** ******
  23  ****** ****** ****** ****** ****** ****** ****** ****** ****** ******
      ****** ****** ****** ****** ****** ****** ****** ****** ****** ******
      ****** ****** ****** ****** ****** ****** ****** ****** ****** ******
  24  ****** ****** ****** ****** ****** ****** ****** ****** ****** ******
      ****** ****** ****** ****** ****** ****** ****** ****** ****** ******
      ****** ****** ****** ****** ****** ****** ****** ****** ****** ******
  25  ****** ****** ****** ****** ****** ****** ****** ****** ****** ******
      ****** ****** ****** ****** ****** ****** ****** ****** ****** ******
      ****** ****** ****** ****** ****** ****** ****** ****** ****** ******

 HEAD WILL BE SAVED ON UNIT   51 AT END OF TIME STEP    1, STRESS PERIOD    4
1
  VOLUMETRIC BUDGET FOR ENTIRE MODEL AT END OF TIME STEP    1, STRESS PERIOD   4
  ------------------------------------------------------------------------------

     CUMULATIVE VOLUMES      L**3       RATES FOR THIS TIME STEP      L**3/T
     ------------------                 ------------------------

           IN:                                      IN:
           ---                                      ---
             STORAGE =    29667290.8077               STORAGE =       19413.7079
       CONSTANT HEAD =     7886429.3598         CONSTANT HEAD =       29232.2674
               WELLS =           0.0000                 WELLS =           0.0000
            RECHARGE =     8804400.0000              RECHARGE =       27600.0000
      STREAM LEAKAGE =     2032619.4205        STREAM LEAKAGE =        6615.3048

            TOTAL IN =    48390739.5880              TOTAL IN =       82861.2802

          OUT:                                     OUT:
          ----                                     ----
             STORAGE =        1210.2109               STORAGE =          13.2990
       CONSTANT HEAD =           0.0000         CONSTANT HEAD =           0.0000
               WELLS =    10245834.5579                 WELLS =       28070.7796
            RECHARGE =           0.0000              RECHARGE =           0.0000
      STREAM LEAKAGE =    38143696.9698        STREAM LEAKAGE =       54777.2025

           TOTAL OUT =    48390741.7386             TOTAL OUT =       82861.2811

            IN - OUT =          -2.1506              IN - OUT =      -9.7509E-04

 PERCENT DISCREPANCY =          -0.00     PERCENT DISCREPANCY =          -0.00






         TIME SUMMARY AT END OF TIME STEP    1 IN STRESS PERIOD    4
                    SECONDS     MINUTES      HOURS       DAYS        YEARS
                    -----------------------------------------------------------
   TIME STEP LENGTH 7.86240E+06 1.31040E+05  2184.0      91.000     0.24914    
 STRESS PERIOD TIME 7.86240E+06 1.31040E+05  2184.0      91.000     0.24914    
         TOTAL TIME 3.15360E+07 5.25600E+05  8760.0      365.00     0.99932    
1
1
                            STRESS PERIOD NO.    5, LENGTH =   92.00000    
                            -----------------------------------------------

                              NUMBER OF TIME STEPS =     1

                               MULTIPLIER FOR DELT =     1.500

                            INITIAL TIME STEP SIZE =   92.00000    

 WELL NO.  LAYER   ROW   COL   STRESS RATE         
 --------------------------------------------------
      1      1     16      2      -8562.    
      2      1     23     16      -2065.    
      3      1     13     14      -6003.    
      4      1      6     16     -0.1144E+05

      4 WELLS

                 RECHARGE =  5.000000E-04

 REUSING STREAM SEGMENT DATA FROM LAST STRESS PERIOD
 
 SOLVING FOR HEAD 


     7 CALLS TO PCG ROUTINE FOR TIME STEP   1 IN STRESS PERIOD    5
    26 TOTAL ITERATIONS

 OUTPUT CONTROL FOR STRESS PERIOD    5   TIME STEP    1
    SAVE BUDGET
    SAVE HEAD FOR ALL LAYERS
    PRINT HEAD FOR ALL LAYERS
 UBDSV2 SAVING "STREAMFLOW OUT  " ON UNIT  50 AT TIME STEP  1, STRESS PERIOD   5



 STREAM LISTING     PERIOD      5   STEP        1

 LAYER ROW COL. STREAM  RCH.  FLOW INTO     FLOW TO   FLOW OUT OF   OVRLND.     DIRECT     STREAM       STREAM     STREAM     STREAM   STREAMBED  STREAMBED
                SEG.NO.  NO.  STRM. RCH.    AQUIFER    STRM. RCH.    RUNOFF     PRECIP       ET          HEAD       DEPTH      WIDTH   CONDCTNC.   GRADIENT

   1   13    1     1     1    1.0000E+05 -4.8866E+02   1.0049E+05  0.000E+00  0.000E+00  0.000E+00  4.84062E+01  1.449E-01  2.000E+01  2.000E+04 -2.443E-02
   1   13    2     1     2    1.0049E+05 -1.4814E+03   1.0197E+05  0.000E+00  0.000E+00  0.000E+00  4.79298E+01  1.457E-01  2.000E+01  2.000E+04 -7.407E-02
   1   14    3     1     3    1.0197E+05  7.3708E+00   1.0196E+05  0.000E+00  0.000E+00  0.000E+00  4.74532E+01  1.464E-01  2.000E+01  2.000E+04  3.685E-04
   1   15    4     1     4    1.0196E+05  4.7815E+01   1.0191E+05  0.000E+00  0.000E+00  0.000E+00  4.69759E+01  1.463E-01  2.000E+01  2.000E+04  2.391E-03
   1   16    5     1     5    1.0191E+05  6.0299E+02   1.0131E+05  0.000E+00  0.000E+00  0.000E+00  4.64983E+01  1.460E-01  2.000E+01  2.000E+04  3.015E-02
   1   16    6     1     6    1.0131E+05 -5.7756E+02   1.0189E+05  0.000E+00  0.000E+00  0.000E+00  4.60210E+01  1.460E-01  2.000E+01  2.000E+04 -2.888E-02
   1   16    7     1     7    1.0189E+05 -7.6776E+02   1.0266E+05  0.000E+00  0.000E+00  0.000E+00  4.55443E+01  1.466E-01  2.000E+01  2.000E+04 -3.839E-02
   1   16    8     1     8    1.0266E+05 -8.5486E+02   1.0351E+05  0.000E+00  0.000E+00  0.000E+00  4.50678E+01  1.473E-01  2.000E+01  2.000E+04 -4.274E-02
   1   16    9     1     9    1.0351E+05 -8.9380E+02   1.0441E+05  0.000E+00  0.000E+00  0.000E+00  4.45912E+01  1.481E-01  2.000E+01  2.000E+04 -4.469E-02
   1   16   10     1    10    1.0441E+05 -9.0255E+02   1.0531E+05  0.000E+00  0.000E+00  0.000E+00  4.41147E+01  1.488E-01  2.000E+01  2.000E+04 -4.513E-02
   1   16   11     1    11    1.0531E+05 -9.0777E+02   1.0622E+05  0.000E+00  0.000E+00  0.000E+00  4.36382E+01  1.496E-01  2.000E+01  2.000E+04 -4.539E-02
   1   16   12     1    12    1.0622E+05 -1.4912E+03   1.0771E+05  0.000E+00  0.000E+00  0.000E+00  4.31620E+01  1.506E-01  2.000E+01  2.000E+04 -7.456E-02
   1   15   13     1    13    1.0771E+05 -1.0515E+03   1.0876E+05  0.000E+00  0.000E+00  0.000E+00  4.26858E+01  1.517E-01  2.000E+01  2.000E+04 -5.258E-02
   1   14   14     1    14    1.0876E+05  4.9125E+02   1.0827E+05  0.000E+00  0.000E+00  0.000E+00  4.22087E+01  1.519E-01  2.000E+01  2.000E+04  2.456E-02
   1   13   15     1    15    1.0827E+05  3.4926E+02   1.0792E+05  0.000E+00  0.000E+00  0.000E+00  4.17311E+01  1.516E-01  2.000E+01  2.000E+04  1.746E-02
   1   12   16     1    16    1.0792E+05 -1.5655E+03   1.0948E+05  0.000E+00  0.000E+00  0.000E+00  4.12544E+01  1.521E-01  2.000E+01  2.000E+04 -7.828E-02
   1   12   17     1    17    1.0948E+05 -1.2365E+03   1.1072E+05  0.000E+00  0.000E+00  0.000E+00  4.07783E+01  1.533E-01  2.000E+01  2.000E+04 -6.183E-02
   1   12   18     1    18    1.1072E+05 -1.2598E+03   1.1198E+05  0.000E+00  0.000E+00  0.000E+00  4.03020E+01  1.543E-01  2.000E+01  2.000E+04 -6.299E-02
   1   12   19     1    19    1.1198E+05 -1.7335E+03   1.1371E+05  0.000E+00  0.000E+00  0.000E+00  3.98260E+01  1.555E-01  2.000E+01  2.000E+04 -8.668E-02
   1   13   20     1    20    1.1371E+05 -1.5506E+03   1.1526E+05  0.000E+00  0.000E+00  0.000E+00  3.93501E+01  1.569E-01  2.000E+01  2.000E+04 -7.753E-02
   1   14   21     1    21    1.1526E+05 -1.5775E+03   1.1684E+05  0.000E+00  0.000E+00  0.000E+00  3.88741E+01  1.582E-01  2.000E+01  2.000E+04 -7.888E-02
   1   14   22     1    22    1.1684E+05  4.7790E+03   1.1206E+05  0.000E+00  0.000E+00  0.000E+00  3.83955E+01  1.569E-01  2.000E+01  2.000E+04  2.390E-01
   1    9   30     2     1    5.0000E+04 -5.6423E+02   5.0564E+04  0.000E+00  0.000E+00  0.000E+00  4.02413E+01  1.163E-01  2.000E+01  2.000E+04 -2.821E-02
   1    9   29     2     2    5.0564E+04 -8.5516E+02   5.1419E+04  0.000E+00  0.000E+00  0.000E+00  3.99922E+01  1.172E-01  2.000E+01  2.000E+04 -4.276E-02
   1    9   28     2     3    5.1419E+04 -1.0882E+03   5.2508E+04  0.000E+00  0.000E+00  0.000E+00  3.97436E+01  1.186E-01  2.000E+01  2.000E+04 -5.441E-02
   1    9   27     2     4    5.2508E+04 -2.2045E+03   5.4712E+04  0.000E+00  0.000E+00  0.000E+00  3.94958E+01  1.208E-01  2.000E+01  2.000E+04 -1.102E-01
   1   10   26     2     5    5.4712E+04 -1.3926E+03   5.6105E+04  0.000E+00  0.000E+00  0.000E+00  3.92482E+01  1.232E-01  2.000E+01  2.000E+04 -6.963E-02
   1   11   25     2     6    5.6105E+04 -1.1787E+03   5.7283E+04  0.000E+00  0.000E+00  0.000E+00  3.89999E+01  1.249E-01  2.000E+01  2.000E+04 -5.893E-02
   1   12   24     2     7    5.7283E+04 -1.2386E+03   5.8522E+04  0.000E+00  0.000E+00  0.000E+00  3.87515E+01  1.265E-01  2.000E+01  2.000E+04 -6.193E-02
   1   13   23     2     8    5.8522E+04 -1.9384E+02   5.8716E+04  0.000E+00  0.000E+00  0.000E+00  3.85025E+01  1.275E-01  2.000E+01  2.000E+04 -9.692E-03
   1   14   22     2     9    5.8716E+04  1.8962E+03   5.6820E+04  0.000E+00  0.000E+00  0.000E+00  3.82514E+01  1.264E-01  2.000E+01  2.000E+04  9.481E-02
   1   14   22     3     1    1.6888E+05 -8.6816E+03   1.7756E+05  0.000E+00  0.000E+00  0.000E+00  3.77225E+01  1.669E-01  2.000E+01  2.000E+04 -4.341E-01
   1   15   23     3     2    1.7756E+05 -5.3479E+02   1.7810E+05  0.000E+00  0.000E+00  0.000E+00  3.68362E+01  1.696E-01  2.000E+01  2.000E+04 -2.674E-02
   1   15   24     3     3    1.7810E+05 -2.7103E+02   1.7837E+05  0.000E+00  0.000E+00  0.000E+00  3.59476E+01  1.698E-01  2.000E+01  2.000E+04 -1.355E-02
   1   15   25     3     4    1.7837E+05 -2.6183E+02   1.7863E+05  0.000E+00  0.000E+00  0.000E+00  3.50588E+01  1.699E-01  2.000E+01  2.000E+04 -1.309E-02
   1   15   26     3     5    1.7863E+05 -3.0775E+02   1.7894E+05  0.000E+00  0.000E+00  0.000E+00  3.41701E+01  1.701E-01  2.000E+01  2.000E+04 -1.539E-02
   1   16   27     3     6    1.7894E+05 -3.4492E+02   1.7928E+05  0.000E+00  0.000E+00  0.000E+00  3.32814E+01  1.703E-01  2.000E+01  2.000E+04 -1.725E-02
   1   17   28     3     7    1.7928E+05 -1.5188E+03   1.8080E+05  0.000E+00  0.000E+00  0.000E+00  3.23930E+01  1.708E-01  2.000E+01  2.000E+04 -7.594E-02
   1   18   29     3     8    1.8080E+05 -2.9485E+03   1.8375E+05  0.000E+00  0.000E+00  0.000E+00  3.15054E+01  1.721E-01  2.000E+01  2.000E+04 -1.474E-01
   1   18   30     3     9    1.8375E+05 -3.1844E+03   1.8694E+05  0.000E+00  0.000E+00  0.000E+00  3.06183E+01  1.738E-01  2.000E+01  2.000E+04 -1.592E-01



1
              HEAD IN LAYER   1 AT END OF TIME STEP   1 IN STRESS PERIOD    5
  ---------------------------------------------------------------------------

          1      2      3      4      5      6      7      8      9     10
         11     12     13     14     15     16     17     18     19     20
         21     22     23     24     25     26     27     28     29     30
 .........................................................................
   1  ****** ****** ****** ****** ****** ****** ****** ****** ****** ******
      ****** ****** ****** ****** ****** ****** ****** ****** ****** ******
      ****** ****** ****** ****** ****** ****** ****** ****** ****** ******
   2  ****** ****** ****** ****** ****** ****** ****** ****** ****** ******
      ****** ****** ****** ****** ****** ****** ****** ****** ****** ******
      ****** ****** ****** ****** ****** ****** ****** ****** ****** ******
   3  ****** ****** ****** ****** ****** ****** ****** ****** ****** ******
      ****** ****** ****** ****** ****** ****** ****** ****** ****** ******
      ****** ****** ****** ****** ****** ****** ****** ****** ****** ******
   4  ****** ****** ****** ****** ****** ****** ****** ****** ****** ******
      ****** ****** ****** ****** ****** ****** ****** ****** ****** ******
      ****** ****** ****** ****** ****** ****** ****** ****** ****** ******
   5  ****** ****** ****** ****** ****** ****** ****** ****** ****** ******
      ****** ****** ****** ****** ****** ****** ****** ****** ****** ******
      ****** ****** ****** ****** ****** ****** ****** ****** ****** ******
   6  ****** ****** ****** ****** ****** ****** ****** ****** ****** ******
      ****** ****** ****** ****** ****** ****** ****** ****** ****** ******
      ****** ****** ****** ****** ****** ****** ****** ****** ****** ******
   7  ****** ****** ****** ****** ****** ****** ****** ****** ****** ******
      ****** ****** ****** ****** ****** ****** ****** ****** ****** ******
      ****** ****** ****** ****** ****** ****** ****** ****** ****** ******
   8  ****** ****** ****** ****** ****** ****** ****** ****** ****** ******
      ****** ****** ****** ****** ****** ****** ****** ****** ****** ******
      ****** ****** ****** ****** ****** ****** ****** ****** ****** ******
   9  ****** ****** ****** ****** ****** ****** ****** ****** ****** ******
      ****** ****** ****** ****** ****** ****** ****** ****** ****** ******
      ****** ****** ****** ****** ****** ****** ****** ****** ****** ******
  10  ****** ****** ****** ****** ****** ****** ****** ****** ****** ******
      ****** ****** ****** ****** ****** ****** ****** ****** ****** ******
      ****** ****** ****** ****** ****** ****** ****** ****** ****** ******
  11  ****** ****** ****** ****** ****** ****** ****** ****** ****** ******
      ****** ****** ****** ****** ****** ****** ****** ****** ****** ******
      ****** ****** ****** ****** ****** ****** ****** ****** ****** ******
  12  ****** ****** ****** ****** ****** ****** ****** ****** ****** ******
      ****** ****** ****** ****** ****** ****** ****** ****** ****** ******
      ****** ****** ****** ****** ****** ****** ****** ****** ****** ******
  13  ****** ****** ****** ****** ****** ****** ****** ****** ****** ******
      ****** ****** ****** ****** ****** ****** ****** ****** ****** ******
      ****** ****** ****** ****** ****** ****** ****** ****** ****** ******
  14  ****** ****** ****** ****** ****** ****** ****** ****** ****** ******
      ****** ****** ****** ****** ****** ****** ****** ****** ****** ******
      ****** ****** ****** ****** ****** ****** ****** ****** ****** ******
  15  ****** ****** ****** ****** ****** ****** ****** ****** ****** ******
      ****** ****** ****** ****** ****** ****** ****** ****** ****** ******
      ****** ****** ****** ****** ****** ****** ****** ****** ****** ******
  16  ****** ****** ****** ****** ****** ****** ****** ****** ****** ******
      ****** ****** ****** ****** ****** ****** ****** ****** ****** ******
      ****** ****** ****** ****** ****** ****** ****** ****** ****** ******
  17  ****** ****** ****** ****** ****** ****** ****** ****** ****** ******
      ****** ****** ****** ****** ****** ****** ****** ****** ****** ******
      ****** ****** ****** ****** ****** ****** ****** ****** ****** ******
  18  ****** ****** ****** ****** ****** ****** ****** ****** ****** ******
      ****** ****** ****** ****** ****** ****** ****** ****** ****** ******
      ****** ****** ****** ****** ****** ****** ****** ****** ****** ******
  19  ****** ****** ****** ****** ****** ****** ****** ****** ****** ******
      ****** ****** ****** ****** ****** ****** ****** ****** ****** ******
      ****** ****** ****** ****** ****** ****** ****** ****** ****** ******
  20  ****** ****** ****** ****** ****** ****** ****** ****** ****** ******
      ****** ****** ****** ****** ****** ****** ****** ****** ****** ******
      ****** ****** ****** ****** ****** ****** ****** ****** ****** ******
  21  ****** ****** ****** ****** ****** ****** ****** ****** ****** ******
      ****** ****** ****** ****** ****** ****** ****** ****** ****** ******
      ****** ****** ****** ****** ****** ****** ****** ****** ****** ******
  22  ****** ****** ****** ****** ****** ****** ****** ****** ****** ******
      ****** ****** ****** ****** ****** ****** ****** ****** ****** ******
      ****** ****** ****** ****** ****** ****** ****** ****** ****** ******
  23  ****** ****** ****** ****** ****** ****** ****** ****** ****** ******
      ****** ****** ****** ****** ****** ****** ****** ****** ****** ******
      ****** ****** ****** ****** ****** ****** ****** ****** ****** ******
  24  ****** ****** ****** ****** ****** ****** ****** ****** ****** ******
      ****** ****** ****** ****** ****** ****** ****** ****** ****** ******
      ****** ****** ****** ****** ****** ****** ****** ****** ****** ******
  25  ****** ****** ****** ****** ****** ****** ****** ****** ****** ******
      ****** ****** ****** ****** ****** ****** ****** ****** ****** ******
      ****** ****** ****** ****** ****** ****** ****** ****** ****** ******

 HEAD WILL BE SAVED ON UNIT   51 AT END OF TIME STEP    1, STRESS PERIOD    5
1
  VOLUMETRIC BUDGET FOR ENTIRE MODEL AT END OF TIME STEP    1, STRESS PERIOD   5
  ------------------------------------------------------------------------------

     CUMULATIVE VOLUMES      L**3       RATES FOR THIS TIME STEP      L**3/T
     ------------------                 ------------------------

           IN:                                      IN:
           ---                                      ---
             STORAGE =    31412188.3958               STORAGE =       18966.2781
       CONSTANT HEAD =    10852559.4305         CONSTANT HEAD =       32240.5442
               WELLS =           0.0000                 WELLS =           0.0000
            RECHARGE =    10074000.0000              RECHARGE =       13800.0000
      STREAM LEAKAGE =     2784621.9658        STREAM LEAKAGE =        8173.9407

            TOTAL IN =    55123369.7921              TOTAL IN =       73180.7631

          OUT:                                     OUT:
          ----                                     ----
             STORAGE =        1210.2109               STORAGE =           0.0000
       CONSTANT HEAD =           0.0000         CONSTANT HEAD =           0.0000
               WELLS =    12828346.2821                 WELLS =       28070.7796
            RECHARGE =           0.0000              RECHARGE =           0.0000
      STREAM LEAKAGE =    42293815.7667        STREAM LEAKAGE =       45109.9869

           TOTAL OUT =    55123372.2598             TOTAL OUT =       73180.7665

            IN - OUT =          -2.4676              IN - OUT =      -3.4458E-03

 PERCENT DISCREPANCY =          -0.00     PERCENT DISCREPANCY =          -0.00






         TIME SUMMARY AT END OF TIME STEP    1 IN STRESS PERIOD    5
                    SECONDS     MINUTES      HOURS       DAYS        YEARS
                    -----------------------------------------------------------
   TIME STEP LENGTH 7.94880E+06 1.32480E+05  2208.0      92.000     0.25188    
 STRESS PERIOD TIME 7.94880E+06 1.32480E+05  2208.0      92.000     0.25188    
         TOTAL TIME 3.94848E+07 6.58080E+05  10968.      457.00      1.2512    
1
1
                            STRESS PERIOD NO.    6, LENGTH =   91.00000    
                            -----------------------------------------------

                              NUMBER OF TIME STEPS =     1

                               MULTIPLIER FOR DELT =     1.500

                            INITIAL TIME STEP SIZE =   91.00000    

 WELL NO.  LAYER   ROW   COL   STRESS RATE         
 --------------------------------------------------
      1      1     16      2      -8562.    
      2      1     23     16      -2065.    
      3      1     13     14      -6003.    
      4      1      6     16     -0.1144E+05

      4 WELLS

                 RECHARGE =  2.000000E-03

 REUSING STREAM SEGMENT DATA FROM LAST STRESS PERIOD
 
 SOLVING FOR HEAD 


     7 CALLS TO PCG ROUTINE FOR TIME STEP   1 IN STRESS PERIOD    6
    26 TOTAL ITERATIONS

 OUTPUT CONTROL FOR STRESS PERIOD    6   TIME STEP    1
    SAVE BUDGET
    SAVE HEAD FOR ALL LAYERS
    PRINT HEAD FOR ALL LAYERS
 UBDSV2 SAVING "STREAMFLOW OUT  " ON UNIT  50 AT TIME STEP  1, STRESS PERIOD   6



 STREAM LISTING     PERIOD      6   STEP        1

 LAYER ROW COL. STREAM  RCH.  FLOW INTO     FLOW TO   FLOW OUT OF   OVRLND.     DIRECT     STREAM       STREAM     STREAM     STREAM   STREAMBED  STREAMBED
                SEG.NO.  NO.  STRM. RCH.    AQUIFER    STRM. RCH.    RUNOFF     PRECIP       ET          HEAD       DEPTH      WIDTH   CONDCTNC.   GRADIENT

   1   13    1     1     1    1.0000E+05 -7.8526E+02   1.0079E+05  0.000E+00  0.000E+00  0.000E+00  4.84064E+01  1.450E-01  2.000E+01  2.000E+04 -3.926E-02
   1   13    2     1     2    1.0079E+05 -1.8060E+03   1.0259E+05  0.000E+00  0.000E+00  0.000E+00  4.79302E+01  1.461E-01  2.000E+01  2.000E+04 -9.030E-02
   1   14    3     1     3    1.0259E+05 -1.4431E+02   1.0274E+05  0.000E+00  0.000E+00  0.000E+00  4.74538E+01  1.470E-01  2.000E+01  2.000E+04 -7.216E-03
   1   15    4     1     4    1.0274E+05 -1.1537E+02   1.0285E+05  0.000E+00  0.000E+00  0.000E+00  4.69766E+01  1.471E-01  2.000E+01  2.000E+04 -5.769E-03
   1   16    5     1     5    1.0285E+05  1.1829E+02   1.0273E+05  0.000E+00  0.000E+00  0.000E+00  4.64993E+01  1.471E-01  2.000E+01  2.000E+04  5.915E-03
   1   16    6     1     6    1.0273E+05 -8.6286E+02   1.0360E+05  0.000E+00  0.000E+00  0.000E+00  4.60224E+01  1.474E-01  2.000E+01  2.000E+04 -4.314E-02
   1   16    7     1     7    1.0360E+05 -1.0385E+03   1.0463E+05  0.000E+00  0.000E+00  0.000E+00  4.55459E+01  1.482E-01  2.000E+01  2.000E+04 -5.193E-02
   1   16    8     1     8    1.0463E+05 -1.1216E+03   1.0576E+05  0.000E+00  0.000E+00  0.000E+00  4.50696E+01  1.491E-01  2.000E+01  2.000E+04 -5.608E-02
   1   16    9     1     9    1.0576E+05 -1.1608E+03   1.0692E+05  0.000E+00  0.000E+00  0.000E+00  4.45933E+01  1.501E-01  2.000E+01  2.000E+04 -5.804E-02
   1   16   10     1    10    1.0692E+05 -1.1720E+03   1.0809E+05  0.000E+00  0.000E+00  0.000E+00  4.41170E+01  1.511E-01  2.000E+01  2.000E+04 -5.860E-02
   1   16   11     1    11    1.0809E+05 -1.1814E+03   1.0927E+05  0.000E+00  0.000E+00  0.000E+00  4.36407E+01  1.521E-01  2.000E+01  2.000E+04 -5.907E-02
   1   16   12     1    12    1.0927E+05 -1.9333E+03   1.1120E+05  0.000E+00  0.000E+00  0.000E+00  4.31647E+01  1.534E-01  2.000E+01  2.000E+04 -9.666E-02
   1   15   13     1    13    1.1120E+05 -1.4998E+03   1.1270E+05  0.000E+00  0.000E+00  0.000E+00  4.26889E+01  1.548E-01  2.000E+01  2.000E+04 -7.499E-02
   1   14   14     1    14    1.1270E+05  5.1352E+01   1.1265E+05  0.000E+00  0.000E+00  0.000E+00  4.22122E+01  1.554E-01  2.000E+01  2.000E+04  2.568E-03
   1   13   15     1    15    1.1265E+05 -6.7717E+01   1.1272E+05  0.000E+00  0.000E+00  0.000E+00  4.17349E+01  1.554E-01  2.000E+01  2.000E+04 -3.386E-03
   1   12   16     1    16    1.1272E+05 -1.9295E+03   1.1465E+05  0.000E+00  0.000E+00  0.000E+00  4.12585E+01  1.562E-01  2.000E+01  2.000E+04 -9.648E-02
   1   12   17     1    17    1.1465E+05 -1.5398E+03   1.1619E+05  0.000E+00  0.000E+00  0.000E+00  4.07826E+01  1.576E-01  2.000E+01  2.000E+04 -7.699E-02
   1   12   18     1    18    1.1619E+05 -1.5684E+03   1.1776E+05  0.000E+00  0.000E+00  0.000E+00  4.03066E+01  1.589E-01  2.000E+01  2.000E+04 -7.842E-02
   1   12   19     1    19    1.1776E+05 -2.1169E+03   1.1987E+05  0.000E+00  0.000E+00  0.000E+00  3.98309E+01  1.604E-01  2.000E+01  2.000E+04 -1.058E-01
   1   13   20     1    20    1.1987E+05 -1.9692E+03   1.2184E+05  0.000E+00  0.000E+00  0.000E+00  3.93552E+01  1.621E-01  2.000E+01  2.000E+04 -9.846E-02
   1   14   21     1    21    1.2184E+05 -1.9906E+03   1.2383E+05  0.000E+00  0.000E+00  0.000E+00  3.88796E+01  1.637E-01  2.000E+01  2.000E+04 -9.953E-02
   1   14   22     1    22    1.2383E+05  4.6732E+03   1.1916E+05  0.000E+00  0.000E+00  0.000E+00  3.84012E+01  1.626E-01  2.000E+01  2.000E+04  2.337E-01
   1    9   30     2     1    5.0000E+04 -9.2553E+02   5.0926E+04  0.000E+00  0.000E+00  0.000E+00  4.02415E+01  1.165E-01  2.000E+01  2.000E+04 -4.628E-02
   1    9   29     2     2    5.0926E+04 -1.2118E+03   5.2137E+04  0.000E+00  0.000E+00  0.000E+00  3.99930E+01  1.180E-01  2.000E+01  2.000E+04 -6.059E-02
   1    9   28     2     3    5.2137E+04 -1.4375E+03   5.3575E+04  0.000E+00  0.000E+00  0.000E+00  3.97448E+01  1.198E-01  2.000E+01  2.000E+04 -7.187E-02
   1    9   27     2     4    5.3575E+04 -2.6430E+03   5.6218E+04  0.000E+00  0.000E+00  0.000E+00  3.94975E+01  1.225E-01  2.000E+01  2.000E+04 -1.321E-01
   1   10   26     2     5    5.6218E+04 -1.8563E+03   5.8074E+04  0.000E+00  0.000E+00  0.000E+00  3.92505E+01  1.255E-01  2.000E+01  2.000E+04 -9.281E-02
   1   11   25     2     6    5.8074E+04 -1.6280E+03   5.9702E+04  0.000E+00  0.000E+00  0.000E+00  3.90028E+01  1.278E-01  2.000E+01  2.000E+04 -8.140E-02
   1   12   24     2     7    5.9702E+04 -1.6431E+03   6.1345E+04  0.000E+00  0.000E+00  0.000E+00  3.87549E+01  1.299E-01  2.000E+01  2.000E+04 -8.216E-02
   1   13   23     2     8    6.1345E+04 -3.3087E+02   6.1676E+04  0.000E+00  0.000E+00  0.000E+00  3.85062E+01  1.312E-01  2.000E+01  2.000E+04 -1.654E-02
   1   14   22     2     9    6.1676E+04  1.7547E+03   5.9921E+04  0.000E+00  0.000E+00  0.000E+00  3.82553E+01  1.303E-01  2.000E+01  2.000E+04  8.773E-02
   1   14   22     3     1    1.7908E+05 -8.7848E+03   1.8787E+05  0.000E+00  0.000E+00  0.000E+00  3.77283E+01  1.728E-01  2.000E+01  2.000E+04 -4.392E-01
   1   15   23     3     2    1.8787E+05 -6.7293E+02   1.8854E+05  0.000E+00  0.000E+00  0.000E+00  3.68421E+01  1.754E-01  2.000E+01  2.000E+04 -3.365E-02
   1   15   24     3     3    1.8854E+05 -3.9355E+02   1.8893E+05  0.000E+00  0.000E+00  0.000E+00  3.59535E+01  1.757E-01  2.000E+01  2.000E+04 -1.968E-02
   1   15   25     3     4    1.8893E+05 -3.8878E+02   1.8932E+05  0.000E+00  0.000E+00  0.000E+00  3.50648E+01  1.759E-01  2.000E+01  2.000E+04 -1.944E-02
   1   15   26     3     5    1.8932E+05 -4.5951E+02   1.8978E+05  0.000E+00  0.000E+00  0.000E+00  3.41762E+01  1.762E-01  2.000E+01  2.000E+04 -2.298E-02
   1   16   27     3     6    1.8978E+05 -5.1431E+02   1.9030E+05  0.000E+00  0.000E+00  0.000E+00  3.32876E+01  1.764E-01  2.000E+01  2.000E+04 -2.572E-02
   1   17   28     3     7    1.9030E+05 -1.9840E+03   1.9228E+05  0.000E+00  0.000E+00  0.000E+00  3.23994E+01  1.771E-01  2.000E+01  2.000E+04 -9.920E-02
   1   18   29     3     8    1.9228E+05 -3.3933E+03   1.9567E+05  0.000E+00  0.000E+00  0.000E+00  3.15120E+01  1.786E-01  2.000E+01  2.000E+04 -1.697E-01
   1   18   30     3     9    1.9567E+05 -3.5439E+03   1.9922E+05  0.000E+00  0.000E+00  0.000E+00  3.06250E+01  1.805E-01  2.000E+01  2.000E+04 -1.772E-01



1
              HEAD IN LAYER   1 AT END OF TIME STEP   1 IN STRESS PERIOD    6
  ---------------------------------------------------------------------------

          1      2      3      4      5      6      7      8      9     10
         11     12     13     14     15     16     17     18     19     20
         21     22     23     24     25     26     27     28     29     30
 .........................................................................
   1  ****** ****** ****** ****** ****** ****** ****** ****** ****** ******
      ****** ****** ****** ****** ****** ****** ****** ****** ****** ******
      ****** ****** ****** ****** ****** ****** ****** ****** ****** ******
   2  ****** ****** ****** ****** ****** ****** ****** ****** ****** ******
      ****** ****** ****** ****** ****** ****** ****** ****** ****** ******
      ****** ****** ****** ****** ****** ****** ****** ****** ****** ******
   3  ****** ****** ****** ****** ****** ****** ****** ****** ****** ******
      ****** ****** ****** ****** ****** ****** ****** ****** ****** ******
      ****** ****** ****** ****** ****** ****** ****** ****** ****** ******
   4  ****** ****** ****** ****** ****** ****** ****** ****** ****** ******
      ****** ****** ****** ****** ****** ****** ****** ****** ****** ******
      ****** ****** ****** ****** ****** ****** ****** ****** ****** ******
   5  ****** ****** ****** ****** ****** ****** ****** ****** ****** ******
      ****** ****** ****** ****** ****** ****** ****** ****** ****** ******
      ****** ****** ****** ****** ****** ****** ****** ****** ****** ******
   6  ****** ****** ****** ****** ****** ****** ****** ****** ****** ******
      ****** ****** ****** ****** ****** ****** ****** ****** ****** ******
      ****** ****** ****** ****** ****** ****** ****** ****** ****** ******
   7  ****** ****** ****** ****** ****** ****** ****** ****** ****** ******
      ****** ****** ****** ****** ****** ****** ****** ****** ****** ******
      ****** ****** ****** ****** ****** ****** ****** ****** ****** ******
   8  ****** ****** ****** ****** ****** ****** ****** ****** ****** ******
      ****** ****** ****** ****** ****** ****** ****** ****** ****** ******
      ****** ****** ****** ****** ****** ****** ****** ****** ****** ******
   9  ****** ****** ****** ****** ****** ****** ****** ****** ****** ******
      ****** ****** ****** ****** ****** ****** ****** ****** ****** ******
      ****** ****** ****** ****** ****** ****** ****** ****** ****** ******
  10  ****** ****** ****** ****** ****** ****** ****** ****** ****** ******
      ****** ****** ****** ****** ****** ****** ****** ****** ****** ******
      ****** ****** ****** ****** ****** ****** ****** ****** ****** ******
  11  ****** ****** ****** ****** ****** ****** ****** ****** ****** ******
      ****** ****** ****** ****** ****** ****** ****** ****** ****** ******
      ****** ****** ****** ****** ****** ****** ****** ****** ****** ******
  12  ****** ****** ****** ****** ****** ****** ****** ****** ****** ******
      ****** ****** ****** ****** ****** ****** ****** ****** ****** ******
      ****** ****** ****** ****** ****** ****** ****** ****** ****** ******
  13  ****** ****** ****** ****** ****** ****** ****** ****** ****** ******
      ****** ****** ****** ****** ****** ****** ****** ****** ****** ******
      ****** ****** ****** ****** ****** ****** ****** ****** ****** ******
  14  ****** ****** ****** ****** ****** ****** ****** ****** ****** ******
      ****** ****** ****** ****** ****** ****** ****** ****** ****** ******
      ****** ****** ****** ****** ****** ****** ****** ****** ****** ******
  15  ****** ****** ****** ****** ****** ****** ****** ****** ****** ******
      ****** ****** ****** ****** ****** ****** ****** ****** ****** ******
      ****** ****** ****** ****** ****** ****** ****** ****** ****** ******
  16  ****** ****** ****** ****** ****** ****** ****** ****** ****** ******
      ****** ****** ****** ****** ****** ****** ****** ****** ****** ******
      ****** ****** ****** ****** ****** ****** ****** ****** ****** ******
  17  ****** ****** ****** ****** ****** ****** ****** ****** ****** ******
      ****** ****** ****** ****** ****** ****** ****** ****** ****** ******
      ****** ****** ****** ****** ****** ****** ****** ****** ****** ******
  18  ****** ****** ****** ****** ****** ****** ****** ****** ****** ******
      ****** ****** ****** ****** ****** ****** ****** ****** ****** ******
      ****** ****** ****** ****** ****** ****** ****** ****** ****** ******
  19  ****** ****** ****** ****** ****** ****** ****** ****** ****** ******
      ****** ****** ****** ****** ****** ****** ****** ****** ****** ******
      ****** ****** ****** ****** ****** ****** ****** ****** ****** ******
  20  ****** ****** ****** ****** ****** ****** ****** ****** ****** ******
      ****** ****** ****** ****** ****** ****** ****** ****** ****** ******
      ****** ****** ****** ****** ****** ****** ****** ****** ****** ******
  21  ****** ****** ****** ****** ****** ****** ****** ****** ****** ******
      ****** ****** ****** ****** ****** ****** ****** ****** ****** ******
      ****** ****** ****** ****** ****** ****** ****** ****** ****** ******
  22  ****** ****** ****** ****** ****** ****** ****** ****** ****** ******
      ****** ****** ****** ****** ****** ****** ****** ****** ****** ******
      ****** ****** ****** ****** ****** ****** ****** ****** ****** ******
  23  ****** ****** ****** ****** ****** ****** ****** ****** ****** ******
      ****** ****** ****** ****** ****** ****** ****** ****** ****** ******
      ****** ****** ****** ****** ****** ****** ****** ****** ****** ******
  24  ****** ****** ****** ****** ****** ****** ****** ****** ****** ******
      ****** ****** ****** ****** ****** ****** ****** ****** ****** ******
      ****** ****** ****** ****** ****** ****** ****** ****** ****** ******
  25  ****** ****** ****** ****** ****** ****** ****** ****** ****** ******
      ****** ****** ****** ****** ****** ****** ****** ****** ****** ******
      ****** ****** ****** ****** ****** ****** ****** ****** ****** ******

 HEAD WILL BE SAVED ON UNIT   51 AT END OF TIME STEP    1, STRESS PERIOD    6
1
  VOLUMETRIC BUDGET FOR ENTIRE MODEL AT END OF TIME STEP    1, STRESS PERIOD   6
  ------------------------------------------------------------------------------

     CUMULATIVE VOLUMES      L**3       RATES FOR THIS TIME STEP      L**3/T
     ------------------                 ------------------------

           IN:                                      IN:
           ---                                      ---
             STORAGE =    31412558.6995               STORAGE =           4.0693
       CONSTANT HEAD =    13618253.5366         CONSTANT HEAD =       30392.2429
               WELLS =           0.0000                 WELLS =           0.0000
            RECHARGE =    15097200.0000              RECHARGE =       55200.0000
      STREAM LEAKAGE =     3384997.6071        STREAM LEAKAGE =        6597.5345

            TOTAL IN =    63513009.8432              TOTAL IN =       92193.8467

          OUT:                                     OUT:
          ----                                     ----
             STORAGE =      757285.0509               STORAGE =        8308.5147
       CONSTANT HEAD =           0.0000         CONSTANT HEAD =           0.0000
               WELLS =    15382787.2267                 WELLS =       28070.7796
            RECHARGE =           0.0000              RECHARGE =           0.0000
      STREAM LEAKAGE =    47372939.7655        STREAM LEAKAGE =       55814.5494

           TOTAL OUT =    63513012.0430             TOTAL OUT =       92193.8438

            IN - OUT =          -2.1998              IN - OUT =       2.9433E-03

 PERCENT DISCREPANCY =          -0.00     PERCENT DISCREPANCY =           0.00






         TIME SUMMARY AT END OF TIME STEP    1 IN STRESS PERIOD    6
                    SECONDS     MINUTES      HOURS       DAYS        YEARS
                    -----------------------------------------------------------
   TIME STEP LENGTH 7.86240E+06 1.31040E+05  2184.0      91.000     0.24914    
 STRESS PERIOD TIME 7.86240E+06 1.31040E+05  2184.0      91.000     0.24914    
         TOTAL TIME 4.73472E+07 7.89120E+05  13152.      548.00      1.5003    
1
1
                            STRESS PERIOD NO.    7, LENGTH =   91.00000    
                            -----------------------------------------------

                              NUMBER OF TIME STEPS =     1

                               MULTIPLIER FOR DELT =     1.500

                            INITIAL TIME STEP SIZE =   91.00000    

 WELL NO.  LAYER   ROW   COL   STRESS RATE         
 --------------------------------------------------
      1      1     16      2      -8562.    
      2      1     23     16      -2065.    
      3      1     13     14      -6003.    
      4      1      6     16     -0.1144E+05

      4 WELLS

                 RECHARGE =   0.00000    

 REUSING STREAM SEGMENT DATA FROM LAST STRESS PERIOD
 
 SOLVING FOR HEAD 


     7 CALLS TO PCG ROUTINE FOR TIME STEP   1 IN STRESS PERIOD    7
    26 TOTAL ITERATIONS

 OUTPUT CONTROL FOR STRESS PERIOD    7   TIME STEP    1
    SAVE BUDGET
    SAVE HEAD FOR ALL LAYERS
    PRINT HEAD FOR ALL LAYERS
 UBDSV2 SAVING "STREAMFLOW OUT  " ON UNIT  50 AT TIME STEP  1, STRESS PERIOD   7



 STREAM LISTING     PERIOD      7   STEP        1

 LAYER ROW COL. STREAM  RCH.  FLOW INTO     FLOW TO   FLOW OUT OF   OVRLND.     DIRECT     STREAM       STREAM     STREAM     STREAM   STREAMBED  STREAMBED
                SEG.NO.  NO.  STRM. RCH.    AQUIFER    STRM. RCH.    RUNOFF     PRECIP       ET          HEAD       DEPTH      WIDTH   CONDCTNC.   GRADIENT

   1   13    1     1     1    1.0000E+05 -1.0686E+02   1.0011E+05  0.000E+00  0.000E+00  0.000E+00  4.84061E+01  1.447E-01  2.000E+01  2.000E+04 -5.343E-03
   1   13    2     1     2    1.0011E+05 -1.0468E+03   1.0115E+05  0.000E+00  0.000E+00  0.000E+00  4.79293E+01  1.452E-01  2.000E+01  2.000E+04 -5.234E-02
   1   14    3     1     3    1.0115E+05  1.0979E+02   1.0104E+05  0.000E+00  0.000E+00  0.000E+00  4.74524E+01  1.456E-01  2.000E+01  2.000E+04  5.489E-03
   1   15    4     1     4    1.0104E+05  1.4932E+02   1.0089E+05  0.000E+00  0.000E+00  0.000E+00  4.69750E+01  1.455E-01  2.000E+01  2.000E+04  7.466E-03
   1   16    5     1     5    1.0089E+05  8.7720E+02   1.0002E+05  0.000E+00  0.000E+00  0.000E+00  4.64973E+01  1.450E-01  2.000E+01  2.000E+04  4.386E-02
   1   16    6     1     6    1.0002E+05 -4.0529E+02   1.0042E+05  0.000E+00  0.000E+00  0.000E+00  4.60198E+01  1.448E-01  2.000E+01  2.000E+04 -2.026E-02
   1   16    7     1     7    1.0042E+05 -5.9962E+02   1.0102E+05  0.000E+00  0.000E+00  0.000E+00  4.55430E+01  1.453E-01  2.000E+01  2.000E+04 -2.998E-02
   1   16    8     1     8    1.0102E+05 -6.8893E+02   1.0171E+05  0.000E+00  0.000E+00  0.000E+00  4.50663E+01  1.458E-01  2.000E+01  2.000E+04 -3.445E-02
   1   16    9     1     9    1.0171E+05 -7.3156E+02   1.0244E+05  0.000E+00  0.000E+00  0.000E+00  4.45896E+01  1.464E-01  2.000E+01  2.000E+04 -3.658E-02
   1   16   10     1    10    1.0244E+05 -7.4568E+02   1.0319E+05  0.000E+00  0.000E+00  0.000E+00  4.41130E+01  1.471E-01  2.000E+01  2.000E+04 -3.728E-02
   1   16   11     1    11    1.0319E+05 -7.5455E+02   1.0394E+05  0.000E+00  0.000E+00  0.000E+00  4.36364E+01  1.477E-01  2.000E+01  2.000E+04 -3.773E-02
   1   16   12     1    12    1.0394E+05 -1.2158E+03   1.0516E+05  0.000E+00  0.000E+00  0.000E+00  4.31599E+01  1.486E-01  2.000E+01  2.000E+04 -6.079E-02
   1   15   13     1    13    1.0516E+05 -7.2776E+02   1.0589E+05  0.000E+00  0.000E+00  0.000E+00  4.26835E+01  1.494E-01  2.000E+01  2.000E+04 -3.639E-02
   1   14   14     1    14    1.0589E+05  8.5332E+02   1.0503E+05  0.000E+00  0.000E+00  0.000E+00  4.22062E+01  1.493E-01  2.000E+01  2.000E+04  4.267E-02
   1   13   15     1    15    1.0503E+05  7.3826E+02   1.0429E+05  0.000E+00  0.000E+00  0.000E+00  4.17282E+01  1.487E-01  2.000E+01  2.000E+04  3.691E-02
   1   12   16     1    16    1.0429E+05 -1.1260E+03   1.0542E+05  0.000E+00  0.000E+00  0.000E+00  4.12511E+01  1.488E-01  2.000E+01  2.000E+04 -5.630E-02
   1   12   17     1    17    1.0542E+05 -9.5806E+02   1.0638E+05  0.000E+00  0.000E+00  0.000E+00  4.07747E+01  1.497E-01  2.000E+01  2.000E+04 -4.790E-02
   1   12   18     1    18    1.0638E+05 -1.0017E+03   1.0738E+05  0.000E+00  0.000E+00  0.000E+00  4.02983E+01  1.505E-01  2.000E+01  2.000E+04 -5.009E-02
   1   12   19     1    19    1.0738E+05 -1.4244E+03   1.0881E+05  0.000E+00  0.000E+00  0.000E+00  3.98220E+01  1.516E-01  2.000E+01  2.000E+04 -7.122E-02
   1   13   20     1    20    1.0881E+05 -1.2985E+03   1.1010E+05  0.000E+00  0.000E+00  0.000E+00  3.93459E+01  1.527E-01  2.000E+01  2.000E+04 -6.493E-02
   1   14   21     1    21    1.1010E+05 -1.3314E+03   1.1144E+05  0.000E+00  0.000E+00  0.000E+00  3.88697E+01  1.538E-01  2.000E+01  2.000E+04 -6.657E-02
   1   14   22     1    22    1.1144E+05  4.8265E+03   1.0661E+05  0.000E+00  0.000E+00  0.000E+00  3.83910E+01  1.523E-01  2.000E+01  2.000E+04  2.413E-01
   1    9   30     2     1    5.0000E+04 -4.1049E+02   5.0410E+04  0.000E+00  0.000E+00  0.000E+00  4.02412E+01  1.162E-01  2.000E+01  2.000E+04 -2.052E-02
   1    9   29     2     2    5.0410E+04 -6.9845E+02   5.1109E+04  0.000E+00  0.000E+00  0.000E+00  3.99919E+01  1.169E-01  2.000E+01  2.000E+04 -3.492E-02
   1    9   28     2     3    5.1109E+04 -9.2237E+02   5.2031E+04  0.000E+00  0.000E+00  0.000E+00  3.97430E+01  1.180E-01  2.000E+01  2.000E+04 -4.612E-02
   1    9   27     2     4    5.2031E+04 -1.9415E+03   5.3973E+04  0.000E+00  0.000E+00  0.000E+00  3.94950E+01  1.200E-01  2.000E+01  2.000E+04 -9.707E-02
   1   10   26     2     5    5.3973E+04 -1.1535E+03   5.5126E+04  0.000E+00  0.000E+00  0.000E+00  3.92471E+01  1.221E-01  2.000E+01  2.000E+04 -5.768E-02
   1   11   25     2     6    5.5126E+04 -9.5414E+02   5.6080E+04  0.000E+00  0.000E+00  0.000E+00  3.89985E+01  1.235E-01  2.000E+01  2.000E+04 -4.771E-02
   1   12   24     2     7    5.6080E+04 -1.0285E+03   5.7109E+04  0.000E+00  0.000E+00  0.000E+00  3.87498E+01  1.248E-01  2.000E+01  2.000E+04 -5.142E-02
   1   13   23     2     8    5.7109E+04 -1.3847E+02   5.7247E+04  0.000E+00  0.000E+00  0.000E+00  3.85006E+01  1.256E-01  2.000E+01  2.000E+04 -6.924E-03
   1   14   22     2     9    5.7247E+04  1.9939E+03   5.5254E+04  0.000E+00  0.000E+00  0.000E+00  3.82494E+01  1.244E-01  2.000E+01  2.000E+04  9.969E-02
   1   14   22     3     1    1.6186E+05 -8.6261E+03   1.7049E+05  0.000E+00  0.000E+00  0.000E+00  3.77184E+01  1.628E-01  2.000E+01  2.000E+04 -4.313E-01
   1   15   23     3     2    1.7049E+05 -4.6739E+02   1.7096E+05  0.000E+00  0.000E+00  0.000E+00  3.68321E+01  1.655E-01  2.000E+01  2.000E+04 -2.337E-02
   1   15   24     3     3    1.7096E+05 -2.2050E+02   1.7118E+05  0.000E+00  0.000E+00  0.000E+00  3.59434E+01  1.657E-01  2.000E+01  2.000E+04 -1.102E-02
   1   15   25     3     4    1.7118E+05 -2.1262E+02   1.7139E+05  0.000E+00  0.000E+00  0.000E+00  3.50547E+01  1.658E-01  2.000E+01  2.000E+04 -1.063E-02
   1   15   26     3     5    1.7139E+05 -2.5869E+02   1.7165E+05  0.000E+00  0.000E+00  0.000E+00  3.41659E+01  1.659E-01  2.000E+01  2.000E+04 -1.293E-02
   1   16   27     3     6    1.7165E+05 -2.8265E+02   1.7193E+05  0.000E+00  0.000E+00  0.000E+00  3.32772E+01  1.661E-01  2.000E+01  2.000E+04 -1.413E-02
   1   17   28     3     7    1.7193E+05 -1.3449E+03   1.7327E+05  0.000E+00  0.000E+00  0.000E+00  3.23888E+01  1.665E-01  2.000E+01  2.000E+04 -6.724E-02
   1   18   29     3     8    1.7327E+05 -2.7119E+03   1.7599E+05  0.000E+00  0.000E+00  0.000E+00  3.15010E+01  1.677E-01  2.000E+01  2.000E+04 -1.356E-01
   1   18   30     3     9    1.7599E+05 -3.0182E+03   1.7901E+05  0.000E+00  0.000E+00  0.000E+00  3.06138E+01  1.694E-01  2.000E+01  2.000E+04 -1.509E-01



1
              HEAD IN LAYER   1 AT END OF TIME STEP   1 IN STRESS PERIOD    7
  ---------------------------------------------------------------------------

          1      2      3      4      5      6      7      8      9     10
         11     12     13     14     15     16     17     18     19     20
         21     22     23     24     25     26     27     28     29     30
 .........................................................................
   1  ****** ****** ****** ****** ****** ****** ****** ****** ****** ******
      ****** ****** ****** ****** ****** ****** ****** ****** ****** ******
      ****** ****** ****** ****** ****** ****** ****** ****** ****** ******
   2  ****** ****** ****** ****** ****** ****** ****** ****** ****** ******
      ****** ****** ****** ****** ****** ****** ****** ****** ****** ******
      ****** ****** ****** ****** ****** ****** ****** ****** ****** ******
   3  ****** ****** ****** ****** ****** ****** ****** ****** ****** ******
      ****** ****** ****** ****** ****** ****** ****** ****** ****** ******
      ****** ****** ****** ****** ****** ****** ****** ****** ****** ******
   4  ****** ****** ****** ****** ****** ****** ****** ****** ****** ******
      ****** ****** ****** ****** ****** ****** ****** ****** ****** ******
      ****** ****** ****** ****** ****** ****** ****** ****** ****** ******
   5  ****** ****** ****** ****** ****** ****** ****** ****** ****** ******
      ****** ****** ****** ****** ****** ****** ****** ****** ****** ******
      ****** ****** ****** ****** ****** ****** ****** ****** ****** ******
   6  ****** ****** ****** ****** ****** ****** ****** ****** ****** ******
      ****** ****** ****** ****** ****** ****** ****** ****** ****** ******
      ****** ****** ****** ****** ****** ****** ****** ****** ****** ******
   7  ****** ****** ****** ****** ****** ****** ****** ****** ****** ******
      ****** ****** ****** ****** ****** ****** ****** ****** ****** ******
      ****** ****** ****** ****** ****** ****** ****** ****** ****** ******
   8  ****** ****** ****** ****** ****** ****** ****** ****** ****** ******
      ****** ****** ****** ****** ****** ****** ****** ****** ****** ******
      ****** ****** ****** ****** ****** ****** ****** ****** ****** ******
   9  ****** ****** ****** ****** ****** ****** ****** ****** ****** ******
      ****** ****** ****** ****** ****** ****** ****** ****** ****** ******
      ****** ****** ****** ****** ****** ****** ****** ****** ****** ******
  10  ****** ****** ****** ****** ****** ****** ****** ****** ****** ******
      ****** ****** ****** ****** ****** ****** ****** ****** ****** ******
      ****** ****** ****** ****** ****** ****** ****** ****** ****** ******
  11  ****** ****** ****** ****** ****** ****** ****** ****** ****** ******
      ****** ****** ****** ****** ****** ****** ****** ****** ****** ******
      ****** ****** ****** ****** ****** ****** ****** ****** ****** ******
  12  ****** ****** ****** ****** ****** ****** ****** ****** ****** ******
      ****** ****** ****** ****** ****** ****** ****** ****** ****** ******
      ****** ****** ****** ****** ****** ****** ****** ****** ****** ******
  13  ****** ****** ****** ****** ****** ****** ****** ****** ****** ******
      ****** ****** ****** ****** ****** ****** ****** ****** ****** ******
      ****** ****** ****** ****** ****** ****** ****** ****** ****** ******
  14  ****** ****** ****** ****** ****** ****** ****** ****** ****** ******
      ****** ****** ****** ****** ****** ****** ****** ****** ****** ******
      ****** ****** ****** ****** ****** ****** ****** ****** ****** ******
  15  ****** ****** ****** ****** ****** ****** ****** ****** ****** ******
      ****** ****** ****** ****** ****** ****** ****** ****** ****** ******
      ****** ****** ****** ****** ****** ****** ****** ****** ****** ******
  16  ****** ****** ****** ****** ****** ****** ****** ****** ****** ******
      ****** ****** ****** ****** ****** ****** ****** ****** ****** ******
      ****** ****** ****** ****** ****** ****** ****** ****** ****** ******
  17  ****** ****** ****** ****** ****** ****** ****** ****** ****** ******
      ****** ****** ****** ****** ****** ****** ****** ****** ****** ******
      ****** ****** ****** ****** ****** ****** ****** ****** ****** ******
  18  ****** ****** ****** ****** ****** ****** ****** ****** ****** ******
      ****** ****** ****** ****** ****** ****** ****** ****** ****** ******
      ****** ****** ****** ****** ****** ****** ****** ****** ****** ******
  19  ****** ****** ****** ****** ****** ****** ****** ****** ****** ******
      ****** ****** ****** ****** ****** ****** ****** ****** ****** ******
      ****** ****** ****** ****** ****** ****** ****** ****** ****** ******
  20  ****** ****** ****** ****** ****** ****** ****** ****** ****** ******
      ****** ****** ****** ****** ****** ****** ****** ****** ****** ******
      ****** ****** ****** ****** ****** ****** ****** ****** ****** ******
  21  ****** ****** ****** ****** ****** ****** ****** ****** ****** ******
      ****** ****** ****** ****** ****** ****** ****** ****** ****** ******
      ****** ****** ****** ****** ****** ****** ****** ****** ****** ******
  22  ****** ****** ****** ****** ****** ****** ****** ****** ****** ******
      ****** ****** ****** ****** ****** ****** ****** ****** ****** ******
      ****** ****** ****** ****** ****** ****** ****** ****** ****** ******
  23  ****** ****** ****** ****** ****** ****** ****** ****** ****** ******
      ****** ****** ****** ****** ****** ****** ****** ****** ****** ******
      ****** ****** ****** ****** ****** ****** ****** ****** ****** ******
  24  ****** ****** ****** ****** ****** ****** ****** ****** ****** ******
      ****** ****** ****** ****** ****** ****** ****** ****** ****** ******
      ****** ****** ****** ****** ****** ****** ****** ****** ****** ******
  25  ****** ****** ****** ****** ****** ****** ****** ****** ****** ******
      ****** ****** ****** ****** ****** ****** ****** ****** ****** ******
      ****** ****** ****** ****** ****** ****** ****** ****** ****** ******

 HEAD WILL BE SAVED ON UNIT   51 AT END OF TIME STEP    1, STRESS PERIOD    7
1
  VOLUMETRIC BUDGET FOR ENTIRE MODEL AT END OF TIME STEP    1, STRESS PERIOD   7
  ------------------------------------------------------------------------------

     CUMULATIVE VOLUMES      L**3       RATES FOR THIS TIME STEP      L**3/T
     ------------------                 ------------------------

           IN:                                      IN:
           ---                                      ---
             STORAGE =    33479764.9861               STORAGE =       22716.5526
       CONSTANT HEAD =    16744954.8054         CONSTANT HEAD =       34359.3546
               WELLS =           0.0000                 WELLS =           0.0000
            RECHARGE =    15097200.0000              RECHARGE =           0.0000
      STREAM LEAKAGE =     4253889.9234        STREAM LEAKAGE =        9548.2672

            TOTAL IN =    69575809.7149              TOTAL IN =       66624.1744

          OUT:                                     OUT:
          ----                                     ----
             STORAGE =      757285.0509               STORAGE =           0.0000
       CONSTANT HEAD =           0.0000         CONSTANT HEAD =           0.0000
               WELLS =    17937228.1713                 WELLS =       28070.7796
            RECHARGE =           0.0000              RECHARGE =           0.0000
      STREAM LEAKAGE =    50881299.2230        STREAM LEAKAGE =       38553.4006

           TOTAL OUT =    69575812.4452             TOTAL OUT =       66624.1802

            IN - OUT =          -2.7303              IN - OUT =      -5.8293E-03

 PERCENT DISCREPANCY =          -0.00     PERCENT DISCREPANCY =          -0.00






         TIME SUMMARY AT END OF TIME STEP    1 IN STRESS PERIOD    7
                    SECONDS     MINUTES      HOURS       DAYS        YEARS
                    -----------------------------------------------------------
   TIME STEP LENGTH 7.86240E+06 1.31040E+05  2184.0      91.000     0.24914    
 STRESS PERIOD TIME 7.86240E+06 1.31040E+05  2184.0      91.000     0.24914    
         TOTAL TIME 5.52096E+07 9.20160E+05  15336.      639.00      1.7495    
1
1
                            STRESS PERIOD NO.    8, LENGTH =   91.00000    
                            -----------------------------------------------

                              NUMBER OF TIME STEPS =     1

                               MULTIPLIER FOR DELT =     1.500

                            INITIAL TIME STEP SIZE =   91.00000    

 WELL NO.  LAYER   ROW   COL   STRESS RATE         
 --------------------------------------------------
      1      1     16      2      -8562.    
      2      1     23     16      -2065.    
      3      1     13     14      -6003.    
      4      1      6     16     -0.1144E+05

      4 WELLS

                 RECHARGE =  1.000000E-03

 REUSING STREAM SEGMENT DATA FROM LAST STRESS PERIOD
 
 SOLVING FOR HEAD 


     6 CALLS TO PCG ROUTINE FOR TIME STEP   1 IN STRESS PERIOD    8
    22 TOTAL ITERATIONS

 OUTPUT CONTROL FOR STRESS PERIOD    8   TIME STEP    1
    SAVE BUDGET
    SAVE HEAD FOR ALL LAYERS
    PRINT HEAD FOR ALL LAYERS
 UBDSV2 SAVING "STREAMFLOW OUT  " ON UNIT  50 AT TIME STEP  1, STRESS PERIOD   8



 STREAM LISTING     PERIOD      8   STEP        1

 LAYER ROW COL. STREAM  RCH.  FLOW INTO     FLOW TO   FLOW OUT OF   OVRLND.     DIRECT     STREAM       STREAM     STREAM     STREAM   STREAMBED  STREAMBED
                SEG.NO.  NO.  STRM. RCH.    AQUIFER    STRM. RCH.    RUNOFF     PRECIP       ET          HEAD       DEPTH      WIDTH   CONDCTNC.   GRADIENT

   1   13    1     1     1    1.0000E+05 -1.7162E+02   1.0017E+05  0.000E+00  0.000E+00  0.000E+00  4.84061E+01  1.447E-01  2.000E+01  2.000E+04 -8.581E-03
   1   13    2     1     2    1.0017E+05 -1.1098E+03   1.0128E+05  0.000E+00  0.000E+00  0.000E+00  4.79294E+01  1.453E-01  2.000E+01  2.000E+04 -5.549E-02
   1   14    3     1     3    1.0128E+05  4.7294E+01   1.0123E+05  0.000E+00  0.000E+00  0.000E+00  4.74526E+01  1.457E-01  2.000E+01  2.000E+04  2.365E-03
   1   15    4     1     4    1.0123E+05  8.1998E+01   1.0115E+05  0.000E+00  0.000E+00  0.000E+00  4.69752E+01  1.457E-01  2.000E+01  2.000E+04  4.100E-03
   1   16    5     1     5    1.0115E+05  7.0613E+02   1.0045E+05  0.000E+00  0.000E+00  0.000E+00  4.64976E+01  1.453E-01  2.000E+01  2.000E+04  3.531E-02
   1   16    6     1     6    1.0045E+05 -5.1039E+02   1.0096E+05  0.000E+00  0.000E+00  0.000E+00  4.60203E+01  1.453E-01  2.000E+01  2.000E+04 -2.552E-02
   1   16    7     1     7    1.0096E+05 -6.9979E+02   1.0166E+05  0.000E+00  0.000E+00  0.000E+00  4.55435E+01  1.458E-01  2.000E+01  2.000E+04 -3.499E-02
   1   16    8     1     8    1.0166E+05 -7.8840E+02   1.0244E+05  0.000E+00  0.000E+00  0.000E+00  4.50669E+01  1.464E-01  2.000E+01  2.000E+04 -3.942E-02
   1   16    9     1     9    1.0244E+05 -8.3243E+02   1.0328E+05  0.000E+00  0.000E+00  0.000E+00  4.45903E+01  1.471E-01  2.000E+01  2.000E+04 -4.162E-02
   1   16   10     1    10    1.0328E+05 -8.4941E+02   1.0413E+05  0.000E+00  0.000E+00  0.000E+00  4.41138E+01  1.478E-01  2.000E+01  2.000E+04 -4.247E-02
   1   16   11     1    11    1.0413E+05 -8.6178E+02   1.0499E+05  0.000E+00  0.000E+00  0.000E+00  4.36372E+01  1.486E-01  2.000E+01  2.000E+04 -4.309E-02
   1   16   12     1    12    1.0499E+05 -1.3760E+03   1.0636E+05  0.000E+00  0.000E+00  0.000E+00  4.31609E+01  1.495E-01  2.000E+01  2.000E+04 -6.880E-02
   1   15   13     1    13    1.0636E+05 -8.9266E+02   1.0726E+05  0.000E+00  0.000E+00  0.000E+00  4.26846E+01  1.505E-01  2.000E+01  2.000E+04 -4.463E-02
   1   14   14     1    14    1.0726E+05  6.9713E+02   1.0656E+05  0.000E+00  0.000E+00  0.000E+00  4.22074E+01  1.506E-01  2.000E+01  2.000E+04  3.486E-02
   1   13   15     1    15    1.0656E+05  5.9656E+02   1.0596E+05  0.000E+00  0.000E+00  0.000E+00  4.17296E+01  1.500E-01  2.000E+01  2.000E+04  2.983E-02
   1   12   16     1    16    1.0596E+05 -1.2267E+03   1.0719E+05  0.000E+00  0.000E+00  0.000E+00  4.12526E+01  1.503E-01  2.000E+01  2.000E+04 -6.133E-02
   1   12   17     1    17    1.0719E+05 -1.0641E+03   1.0825E+05  0.000E+00  0.000E+00  0.000E+00  4.07763E+01  1.513E-01  2.000E+01  2.000E+04 -5.320E-02
   1   12   18     1    18    1.0825E+05 -1.1153E+03   1.0937E+05  0.000E+00  0.000E+00  0.000E+00  4.02999E+01  1.522E-01  2.000E+01  2.000E+04 -5.577E-02
   1   12   19     1    19    1.0937E+05 -1.5678E+03   1.1094E+05  0.000E+00  0.000E+00  0.000E+00  3.98237E+01  1.533E-01  2.000E+01  2.000E+04 -7.839E-02
   1   13   20     1    20    1.1094E+05 -1.4748E+03   1.1241E+05  0.000E+00  0.000E+00  0.000E+00  3.93477E+01  1.546E-01  2.000E+01  2.000E+04 -7.374E-02
   1   14   21     1    21    1.1241E+05 -1.4903E+03   1.1390E+05  0.000E+00  0.000E+00  0.000E+00  3.88717E+01  1.558E-01  2.000E+01  2.000E+04 -7.451E-02
   1   14   22     1    22    1.1390E+05  4.7793E+03   1.0912E+05  0.000E+00  0.000E+00  0.000E+00  3.83931E+01  1.544E-01  2.000E+01  2.000E+04  2.390E-01
   1    9   30     2     1    5.0000E+04 -5.7233E+02   5.0572E+04  0.000E+00  0.000E+00  0.000E+00  4.02413E+01  1.163E-01  2.000E+01  2.000E+04 -2.862E-02
   1    9   29     2     2    5.0572E+04 -8.5738E+02   5.1430E+04  0.000E+00  0.000E+00  0.000E+00  3.99923E+01  1.173E-01  2.000E+01  2.000E+04 -4.287E-02
   1    9   28     2     3    5.1430E+04 -1.0754E+03   5.2505E+04  0.000E+00  0.000E+00  0.000E+00  3.97436E+01  1.186E-01  2.000E+01  2.000E+04 -5.377E-02
   1    9   27     2     4    5.2505E+04 -2.1157E+03   5.4621E+04  0.000E+00  0.000E+00  0.000E+00  3.94958E+01  1.208E-01  2.000E+01  2.000E+04 -1.058E-01
   1   10   26     2     5    5.4621E+04 -1.3555E+03   5.5976E+04  0.000E+00  0.000E+00  0.000E+00  3.92481E+01  1.231E-01  2.000E+01  2.000E+04 -6.778E-02
   1   11   25     2     6    5.5976E+04 -1.1548E+03   5.7131E+04  0.000E+00  0.000E+00  0.000E+00  3.89998E+01  1.248E-01  2.000E+01  2.000E+04 -5.774E-02
   1   12   24     2     7    5.7131E+04 -1.2103E+03   5.8341E+04  0.000E+00  0.000E+00  0.000E+00  3.87513E+01  1.263E-01  2.000E+01  2.000E+04 -6.052E-02
   1   13   23     2     8    5.8341E+04 -2.1228E+02   5.8554E+04  0.000E+00  0.000E+00  0.000E+00  3.85022E+01  1.272E-01  2.000E+01  2.000E+04 -1.061E-02
   1   14   22     2     9    5.8554E+04  1.9403E+03   5.6613E+04  0.000E+00  0.000E+00  0.000E+00  3.82511E+01  1.261E-01  2.000E+01  2.000E+04  9.701E-02
   1   14   22     3     1    1.6574E+05 -8.6694E+03   1.7441E+05  0.000E+00  0.000E+00  0.000E+00  3.77206E+01  1.651E-01  2.000E+01  2.000E+04 -4.335E-01
   1   15   23     3     2    1.7441E+05 -5.3192E+02   1.7494E+05  0.000E+00  0.000E+00  0.000E+00  3.68344E+01  1.677E-01  2.000E+01  2.000E+04 -2.660E-02
   1   15   24     3     3    1.7494E+05 -2.8122E+02   1.7522E+05  0.000E+00  0.000E+00  0.000E+00  3.59458E+01  1.680E-01  2.000E+01  2.000E+04 -1.406E-02
   1   15   25     3     4    1.7522E+05 -2.7506E+02   1.7549E+05  0.000E+00  0.000E+00  0.000E+00  3.50570E+01  1.681E-01  2.000E+01  2.000E+04 -1.375E-02
   1   15   26     3     5    1.7549E+05 -3.3348E+02   1.7583E+05  0.000E+00  0.000E+00  0.000E+00  3.41683E+01  1.683E-01  2.000E+01  2.000E+04 -1.667E-02
   1   16   27     3     6    1.7583E+05 -3.6472E+02   1.7619E+05  0.000E+00  0.000E+00  0.000E+00  3.32796E+01  1.685E-01  2.000E+01  2.000E+04 -1.824E-02
   1   17   28     3     7    1.7619E+05 -1.5494E+03   1.7774E+05  0.000E+00  0.000E+00  0.000E+00  3.23913E+01  1.691E-01  2.000E+01  2.000E+04 -7.747E-02
   1   18   29     3     8    1.7774E+05 -2.8792E+03   1.8062E+05  0.000E+00  0.000E+00  0.000E+00  3.15037E+01  1.703E-01  2.000E+01  2.000E+04 -1.440E-01
   1   18   30     3     9    1.8062E+05 -3.1660E+03   1.8379E+05  0.000E+00  0.000E+00  0.000E+00  3.06165E+01  1.720E-01  2.000E+01  2.000E+04 -1.583E-01



1
              HEAD IN LAYER   1 AT END OF TIME STEP   1 IN STRESS PERIOD    8
  ---------------------------------------------------------------------------

          1      2      3      4      5      6      7      8      9     10
         11     12     13     14     15     16     17     18     19     20
         21     22     23     24     25     26     27     28     29     30
 .........................................................................
   1  ****** ****** ****** ****** ****** ****** ****** ****** ****** ******
      ****** ****** ****** ****** ****** ****** ****** ****** ****** ******
      ****** ****** ****** ****** ****** ****** ****** ****** ****** ******
   2  ****** ****** ****** ****** ****** ****** ****** ****** ****** ******
      ****** ****** ****** ****** ****** ****** ****** ****** ****** ******
      ****** ****** ****** ****** ****** ****** ****** ****** ****** ******
   3  ****** ****** ****** ****** ****** ****** ****** ****** ****** ******
      ****** ****** ****** ****** ****** ****** ****** ****** ****** ******
      ****** ****** ****** ****** ****** ****** ****** ****** ****** ******
   4  ****** ****** ****** ****** ****** ****** ****** ****** ****** ******
      ****** ****** ****** ****** ****** ****** ****** ****** ****** ******
      ****** ****** ****** ****** ****** ****** ****** ****** ****** ******
   5  ****** ****** ****** ****** ****** ****** ****** ****** ****** ******
      ****** ****** ****** ****** ****** ****** ****** ****** ****** ******
      ****** ****** ****** ****** ****** ****** ****** ****** ****** ******
   6  ****** ****** ****** ****** ****** ****** ****** ****** ****** ******
      ****** ****** ****** ****** ****** ****** ****** ****** ****** ******
      ****** ****** ****** ****** ****** ****** ****** ****** ****** ******
   7  ****** ****** ****** ****** ****** ****** ****** ****** ****** ******
      ****** ****** ****** ****** ****** ****** ****** ****** ****** ******
      ****** ****** ****** ****** ****** ****** ****** ****** ****** ******
   8  ****** ****** ****** ****** ****** ****** ****** ****** ****** ******
      ****** ****** ****** ****** ****** ****** ****** ****** ****** ******
      ****** ****** ****** ****** ****** ****** ****** ****** ****** ******
   9  ****** ****** ****** ****** ****** ****** ****** ****** ****** ******
      ****** ****** ****** ****** ****** ****** ****** ****** ****** ******
      ****** ****** ****** ****** ****** ****** ****** ****** ****** ******
  10  ****** ****** ****** ****** ****** ****** ****** ****** ****** ******
      ****** ****** ****** ****** ****** ****** ****** ****** ****** ******
      ****** ****** ****** ****** ****** ****** ****** ****** ****** ******
  11  ****** ****** ****** ****** ****** ****** ****** ****** ****** ******
      ****** ****** ****** ****** ****** ****** ****** ****** ****** ******
      ****** ****** ****** ****** ****** ****** ****** ****** ****** ******
  12  ****** ****** ****** ****** ****** ****** ****** ****** ****** ******
      ****** ****** ****** ****** ****** ****** ****** ****** ****** ******
      ****** ****** ****** ****** ****** ****** ****** ****** ****** ******
  13  ****** ****** ****** ****** ****** ****** ****** ****** ****** ******
      ****** ****** ****** ****** ****** ****** ****** ****** ****** ******
      ****** ****** ****** ****** ****** ****** ****** ****** ****** ******
  14  ****** ****** ****** ****** ****** ****** ****** ****** ****** ******
      ****** ****** ****** ****** ****** ****** ****** ****** ****** ******
      ****** ****** ****** ****** ****** ****** ****** ****** ****** ******
  15  ****** ****** ****** ****** ****** ****** ****** ****** ****** ******
      ****** ****** ****** ****** ****** ****** ****** ****** ****** ******
      ****** ****** ****** ****** ****** ****** ****** ****** ****** ******
  16  ****** ****** ****** ****** ****** ****** ****** ****** ****** ******
      ****** ****** ****** ****** ****** ****** ****** ****** ****** ******
      ****** ****** ****** ****** ****** ****** ****** ****** ****** ******
  17  ****** ****** ****** ****** ****** ****** ****** ****** ****** ******
      ****** ****** ****** ****** ****** ****** ****** ****** ****** ******
      ****** ****** ****** ****** ****** ****** ****** ****** ****** ******
  18  ****** ****** ****** ****** ****** ****** ****** ****** ****** ******
      ****** ****** ****** ****** ****** ****** ****** ****** ****** ******
      ****** ****** ****** ****** ****** ****** ****** ****** ****** ******
  19  ****** ****** ****** ****** ****** ****** ****** ****** ****** ******
      ****** ****** ****** ****** ****** ****** ****** ****** ****** ******
      ****** ****** ****** ****** ****** ****** ****** ****** ****** ******
  20  ****** ****** ****** ****** ****** ****** ****** ****** ****** ******
      ****** ****** ****** ****** ****** ****** ****** ****** ****** ******
      ****** ****** ****** ****** ****** ****** ****** ****** ****** ******
  21  ****** ****** ****** ****** ****** ****** ****** ****** ****** ******
      ****** ****** ****** ****** ****** ****** ****** ****** ****** ******
      ****** ****** ****** ****** ****** ****** ****** ****** ****** ******
  22  ****** ****** ****** ****** ****** ****** ****** ****** ****** ******
      ****** ****** ****** ****** ****** ****** ****** ****** ****** ******
      ****** ****** ****** ****** ****** ****** ****** ****** ****** ******
  23  ****** ****** ****** ****** ****** ****** ****** ****** ****** ******
      ****** ****** ****** ****** ****** ****** ****** ****** ****** ******
      ****** ****** ****** ****** ****** ****** ****** ****** ****** ******
  24  ****** ****** ****** ****** ****** ****** ****** ****** ****** ******
      ****** ****** ****** ****** ****** ****** ****** ****** ****** ******
      ****** ****** ****** ****** ****** ****** ****** ****** ****** ******
  25  ****** ****** ****** ****** ****** ****** ****** ****** ****** ******
      ****** ****** ****** ****** ****** ****** ****** ****** ****** ******
      ****** ****** ****** ****** ****** ****** ****** ****** ****** ******

 HEAD WILL BE SAVED ON UNIT   51 AT END OF TIME STEP    1, STRESS PERIOD    8
1
  VOLUMETRIC BUDGET FOR ENTIRE MODEL AT END OF TIME STEP    1, STRESS PERIOD   8
  ------------------------------------------------------------------------------

     CUMULATIVE VOLUMES      L**3       RATES FOR THIS TIME STEP      L**3/T
     ------------------                 ------------------------

           IN:                                      IN:
           ---                                      ---
             STORAGE =    33635294.2050               STORAGE =        1709.1123
       CONSTANT HEAD =    19847425.1782         CONSTANT HEAD =       34093.0810
               WELLS =           0.0000                 WELLS =           0.0000
            RECHARGE =    17608800.0000              RECHARGE =       27600.0000
      STREAM LEAKAGE =     5059116.7081        STREAM LEAKAGE =        8848.6460

            TOTAL IN =    76150636.0913              TOTAL IN =       72250.8393

          OUT:                                     OUT:
          ----                                     ----
             STORAGE =      897845.5327               STORAGE =        1544.6207
       CONSTANT HEAD =           0.0000         CONSTANT HEAD =           0.0000
               WELLS =    20491669.1159                 WELLS =       28070.7796
            RECHARGE =           0.0000              RECHARGE =           0.0000
      STREAM LEAKAGE =    54761123.4328        STREAM LEAKAGE =       42635.4309

           TOTAL OUT =    76150638.0814             TOTAL OUT =       72250.8312

            IN - OUT =          -1.9900              IN - OUT =       8.1345E-03

 PERCENT DISCREPANCY =          -0.00     PERCENT DISCREPANCY =           0.00






         TIME SUMMARY AT END OF TIME STEP    1 IN STRESS PERIOD    8
                    SECONDS     MINUTES      HOURS       DAYS        YEARS
                    -----------------------------------------------------------
   TIME STEP LENGTH 7.86240E+06 1.31040E+05  2184.0      91.000     0.24914    
 STRESS PERIOD TIME 7.86240E+06 1.31040E+05  2184.0      91.000     0.24914    
         TOTAL TIME 6.30720E+07 1.05120E+06  17520.      730.00      1.9986    
1
1
                            STRESS PERIOD NO.    9, LENGTH =   92.00000    
                            -----------------------------------------------

                              NUMBER OF TIME STEPS =     1

                               MULTIPLIER FOR DELT =     1.500

                            INITIAL TIME STEP SIZE =   92.00000    

 WELL NO.  LAYER   ROW   COL   STRESS RATE         
 --------------------------------------------------
      1      1     16      2      -8562.    
      2      1     23     16      -2065.    
      3      1     13     14      -6003.    
      4      1      6     16     -0.1144E+05

      4 WELLS

                 RECHARGE =  5.000000E-04

 REUSING STREAM SEGMENT DATA FROM LAST STRESS PERIOD
 
 SOLVING FOR HEAD 


     6 CALLS TO PCG ROUTINE FOR TIME STEP   1 IN STRESS PERIOD    9
    23 TOTAL ITERATIONS

 OUTPUT CONTROL FOR STRESS PERIOD    9   TIME STEP    1
    SAVE BUDGET
    SAVE HEAD FOR ALL LAYERS
    PRINT HEAD FOR ALL LAYERS
 UBDSV2 SAVING "STREAMFLOW OUT  " ON UNIT  50 AT TIME STEP  1, STRESS PERIOD   9



 STREAM LISTING     PERIOD      9   STEP        1

 LAYER ROW COL. STREAM  RCH.  FLOW INTO     FLOW TO   FLOW OUT OF   OVRLND.     DIRECT     STREAM       STREAM     STREAM     STREAM   STREAMBED  STREAMBED
                SEG.NO.  NO.  STRM. RCH.    AQUIFER    STRM. RCH.    RUNOFF     PRECIP       ET          HEAD       DEPTH      WIDTH   CONDCTNC.   GRADIENT

   1   13    1     1     1    1.0000E+05  4.9080E+01   9.9951E+04  0.000E+00  0.000E+00  0.000E+00  4.84060E+01  1.446E-01  2.000E+01  2.000E+04  2.454E-03
   1   13    2     1     2    9.9951E+04 -8.5971E+02   1.0081E+05  0.000E+00  0.000E+00  0.000E+00  4.79291E+01  1.450E-01  2.000E+01  2.000E+04 -4.299E-02
   1   14    3     1     3    1.0081E+05  1.1924E+02   1.0069E+05  0.000E+00  0.000E+00  0.000E+00  4.74521E+01  1.453E-01  2.000E+01  2.000E+04  5.962E-03
   1   15    4     1     4    1.0069E+05  1.5479E+02   1.0054E+05  0.000E+00  0.000E+00  0.000E+00  4.69747E+01  1.452E-01  2.000E+01  2.000E+04  7.739E-03
   1   16    5     1     5    1.0054E+05  8.9995E+02   9.9637E+04  0.000E+00  0.000E+00  0.000E+00  4.64970E+01  1.447E-01  2.000E+01  2.000E+04  4.500E-02
   1   16    6     1     6    9.9637E+04 -3.8934E+02   1.0003E+05  0.000E+00  0.000E+00  0.000E+00  4.60195E+01  1.445E-01  2.000E+01  2.000E+04 -1.947E-02
   1   16    7     1     7    1.0003E+05 -5.8246E+02   1.0061E+05  0.000E+00  0.000E+00  0.000E+00  4.55427E+01  1.449E-01  2.000E+01  2.000E+04 -2.912E-02
   1   16    8     1     8    1.0061E+05 -6.7268E+02   1.0128E+05  0.000E+00  0.000E+00  0.000E+00  4.50659E+01  1.455E-01  2.000E+01  2.000E+04 -3.363E-02
   1   16    9     1     9    1.0128E+05 -7.1847E+02   1.0200E+05  0.000E+00  0.000E+00  0.000E+00  4.45893E+01  1.461E-01  2.000E+01  2.000E+04 -3.592E-02
   1   16   10     1    10    1.0200E+05 -7.3772E+02   1.0274E+05  0.000E+00  0.000E+00  0.000E+00  4.41126E+01  1.467E-01  2.000E+01  2.000E+04 -3.689E-02
   1   16   11     1    11    1.0274E+05 -7.5140E+02   1.0349E+05  0.000E+00  0.000E+00  0.000E+00  4.36360E+01  1.473E-01  2.000E+01  2.000E+04 -3.757E-02
   1   16   12     1    12    1.0349E+05 -1.1870E+03   1.0468E+05  0.000E+00  0.000E+00  0.000E+00  4.31595E+01  1.482E-01  2.000E+01  2.000E+04 -5.935E-02
   1   15   13     1    13    1.0468E+05 -6.8094E+02   1.0536E+05  0.000E+00  0.000E+00  0.000E+00  4.26831E+01  1.490E-01  2.000E+01  2.000E+04 -3.405E-02
   1   14   14     1    14    1.0536E+05  9.2333E+02   1.0443E+05  0.000E+00  0.000E+00  0.000E+00  4.22057E+01  1.489E-01  2.000E+01  2.000E+04  4.617E-02
   1   13   15     1    15    1.0443E+05  8.2952E+02   1.0360E+05  0.000E+00  0.000E+00  0.000E+00  4.17277E+01  1.481E-01  2.000E+01  2.000E+04  4.148E-02
   1   12   16     1    16    1.0360E+05 -9.8379E+02   1.0459E+05  0.000E+00  0.000E+00  0.000E+00  4.12505E+01  1.482E-01  2.000E+01  2.000E+04 -4.919E-02
   1   12   17     1    17    1.0459E+05 -8.9849E+02   1.0549E+05  0.000E+00  0.000E+00  0.000E+00  4.07740E+01  1.490E-01  2.000E+01  2.000E+04 -4.492E-02
   1   12   18     1    18    1.0549E+05 -9.5773E+02   1.0644E+05  0.000E+00  0.000E+00  0.000E+00  4.02975E+01  1.498E-01  2.000E+01  2.000E+04 -4.789E-02
   1   12   19     1    19    1.0644E+05 -1.3781E+03   1.0782E+05  0.000E+00  0.000E+00  0.000E+00  3.98212E+01  1.508E-01  2.000E+01  2.000E+04 -6.890E-02
   1   13   20     1    20    1.0782E+05 -1.3004E+03   1.0912E+05  0.000E+00  0.000E+00  0.000E+00  3.93451E+01  1.519E-01  2.000E+01  2.000E+04 -6.502E-02
   1   14   21     1    21    1.0912E+05 -1.3192E+03   1.1044E+05  0.000E+00  0.000E+00  0.000E+00  3.88689E+01  1.530E-01  2.000E+01  2.000E+04 -6.596E-02
   1   14   22     1    22    1.1044E+05  4.8162E+03   1.0563E+05  0.000E+00  0.000E+00  0.000E+00  3.83902E+01  1.515E-01  2.000E+01  2.000E+04  2.408E-01
   1    9   30     2     1    5.0000E+04 -4.4831E+02   5.0448E+04  0.000E+00  0.000E+00  0.000E+00  4.02412E+01  1.162E-01  2.000E+01  2.000E+04 -2.242E-02
   1    9   29     2     2    5.0448E+04 -7.3308E+02   5.1181E+04  0.000E+00  0.000E+00  0.000E+00  3.99920E+01  1.170E-01  2.000E+01  2.000E+04 -3.665E-02
   1    9   28     2     3    5.1181E+04 -9.4907E+02   5.2130E+04  0.000E+00  0.000E+00  0.000E+00  3.97432E+01  1.182E-01  2.000E+01  2.000E+04 -4.745E-02
   1    9   27     2     4    5.2130E+04 -1.9372E+03   5.4068E+04  0.000E+00  0.000E+00  0.000E+00  3.94951E+01  1.201E-01  2.000E+01  2.000E+04 -9.686E-02
   1   10   26     2     5    5.4068E+04 -1.1802E+03   5.5248E+04  0.000E+00  0.000E+00  0.000E+00  3.92472E+01  1.222E-01  2.000E+01  2.000E+04 -5.901E-02
   1   11   25     2     6    5.5248E+04 -9.8703E+02   5.6235E+04  0.000E+00  0.000E+00  0.000E+00  3.89987E+01  1.237E-01  2.000E+01  2.000E+04 -4.935E-02
   1   12   24     2     7    5.6235E+04 -1.0560E+03   5.7291E+04  0.000E+00  0.000E+00  0.000E+00  3.87500E+01  1.250E-01  2.000E+01  2.000E+04 -5.280E-02
   1   13   23     2     8    5.7291E+04 -1.6492E+02   5.7456E+04  0.000E+00  0.000E+00  0.000E+00  3.85008E+01  1.258E-01  2.000E+01  2.000E+04 -8.246E-03
   1   14   22     2     9    5.7456E+04  2.0055E+03   5.5450E+04  0.000E+00  0.000E+00  0.000E+00  3.82496E+01  1.246E-01  2.000E+01  2.000E+04  1.003E-01
   1   14   22     3     1    1.6108E+05 -8.6291E+03   1.6970E+05  0.000E+00  0.000E+00  0.000E+00  3.77179E+01  1.623E-01  2.000E+01  2.000E+04 -4.315E-01
   1   15   23     3     2    1.6970E+05 -4.7960E+02   1.7018E+05  0.000E+00  0.000E+00  0.000E+00  3.68317E+01  1.650E-01  2.000E+01  2.000E+04 -2.398E-02
   1   15   24     3     3    1.7018E+05 -2.3838E+02   1.7042E+05  0.000E+00  0.000E+00  0.000E+00  3.59430E+01  1.652E-01  2.000E+01  2.000E+04 -1.192E-02
   1   15   25     3     4    1.7042E+05 -2.3195E+02   1.7065E+05  0.000E+00  0.000E+00  0.000E+00  3.50542E+01  1.653E-01  2.000E+01  2.000E+04 -1.160E-02
   1   15   26     3     5    1.7065E+05 -2.8600E+02   1.7094E+05  0.000E+00  0.000E+00  0.000E+00  3.41655E+01  1.655E-01  2.000E+01  2.000E+04 -1.430E-02
   1   16   27     3     6    1.7094E+05 -3.0892E+02   1.7125E+05  0.000E+00  0.000E+00  0.000E+00  3.32768E+01  1.657E-01  2.000E+01  2.000E+04 -1.545E-02
   1   17   28     3     7    1.7125E+05 -1.3966E+03   1.7265E+05  0.000E+00  0.000E+00  0.000E+00  3.23884E+01  1.662E-01  2.000E+01  2.000E+04 -6.983E-02
   1   18   29     3     8    1.7265E+05 -2.7046E+03   1.7535E+05  0.000E+00  0.000E+00  0.000E+00  3.15007E+01  1.674E-01  2.000E+01  2.000E+04 -1.352E-01
   1   18   30     3     9    1.7535E+05 -3.0347E+03   1.7839E+05  0.000E+00  0.000E+00  0.000E+00  3.06134E+01  1.690E-01  2.000E+01  2.000E+04 -1.517E-01



1
              HEAD IN LAYER   1 AT END OF TIME STEP   1 IN STRESS PERIOD    9
  ---------------------------------------------------------------------------

          1      2      3      4      5      6      7      8      9     10
         11     12     13     14     15     16     17     18     19     20
         21     22     23     24     25     26     27     28     29     30
 .........................................................................
   1  ****** ****** ****** ****** ****** ****** ****** ****** ****** ******
      ****** ****** ****** ****** ****** ****** ****** ****** ****** ******
      ****** ****** ****** ****** ****** ****** ****** ****** ****** ******
   2  ****** ****** ****** ****** ****** ****** ****** ****** ****** ******
      ****** ****** ****** ****** ****** ****** ****** ****** ****** ******
      ****** ****** ****** ****** ****** ****** ****** ****** ****** ******
   3  ****** ****** ****** ****** ****** ****** ****** ****** ****** ******
      ****** ****** ****** ****** ****** ****** ****** ****** ****** ******
      ****** ****** ****** ****** ****** ****** ****** ****** ****** ******
   4  ****** ****** ****** ****** ****** ****** ****** ****** ****** ******
      ****** ****** ****** ****** ****** ****** ****** ****** ****** ******
      ****** ****** ****** ****** ****** ****** ****** ****** ****** ******
   5  ****** ****** ****** ****** ****** ****** ****** ****** ****** ******
      ****** ****** ****** ****** ****** ****** ****** ****** ****** ******
      ****** ****** ****** ****** ****** ****** ****** ****** ****** ******
   6  ****** ****** ****** ****** ****** ****** ****** ****** ****** ******
      ****** ****** ****** ****** ****** ****** ****** ****** ****** ******
      ****** ****** ****** ****** ****** ****** ****** ****** ****** ******
   7  ****** ****** ****** ****** ****** ****** ****** ****** ****** ******
      ****** ****** ****** ****** ****** ****** ****** ****** ****** ******
      ****** ****** ****** ****** ****** ****** ****** ****** ****** ******
   8  ****** ****** ****** ****** ****** ****** ****** ****** ****** ******
      ****** ****** ****** ****** ****** ****** ****** ****** ****** ******
      ****** ****** ****** ****** ****** ****** ****** ****** ****** ******
   9  ****** ****** ****** ****** ****** ****** ****** ****** ****** ******
      ****** ****** ****** ****** ****** ****** ****** ****** ****** ******
      ****** ****** ****** ****** ****** ****** ****** ****** ****** ******
  10  ****** ****** ****** ****** ****** ****** ****** ****** ****** ******
      ****** ****** ****** ****** ****** ****** ****** ****** ****** ******
      ****** ****** ****** ****** ****** ****** ****** ****** ****** ******
  11  ****** ****** ****** ****** ****** ****** ****** ****** ****** ******
      ****** ****** ****** ****** ****** ****** ****** ****** ****** ******
      ****** ****** ****** ****** ****** ****** ****** ****** ****** ******
  12  ****** ****** ****** ****** ****** ****** ****** ****** ****** ******
      ****** ****** ****** ****** ****** ****** ****** ****** ****** ******
      ****** ****** ****** ****** ****** ****** ****** ****** ****** ******
  13  ****** ****** ****** ****** ****** ****** ****** ****** ****** ******
      ****** ****** ****** ****** ****** ****** ****** ****** ****** ******
      ****** ****** ****** ****** ****** ****** ****** ****** ****** ******
  14  ****** ****** ****** ****** ****** ****** ****** ****** ****** ******
      ****** ****** ****** ****** ****** ****** ****** ****** ****** ******
      ****** ****** ****** ****** ****** ****** ****** ****** ****** ******
  15  ****** ****** ****** ****** ****** ****** ****** ****** ****** ******
      ****** ****** ****** ****** ****** ****** ****** ****** ****** ******
      ****** ****** ****** ****** ****** ****** ****** ****** ****** ******
  16  ****** ****** ****** ****** ****** ****** ****** ****** ****** ******
      ****** ****** ****** ****** ****** ****** ****** ****** ****** ******
      ****** ****** ****** ****** ****** ****** ****** ****** ****** ******
  17  ****** ****** ****** ****** ****** ****** ****** ****** ****** ******
      ****** ****** ****** ****** ****** ****** ****** ****** ****** ******
      ****** ****** ****** ****** ****** ****** ****** ****** ****** ******
  18  ****** ****** ****** ****** ****** ****** ****** ****** ****** ******
      ****** ****** ****** ****** ****** ****** ****** ****** ****** ******
      ****** ****** ****** ****** ****** ****** ****** ****** ****** ******
  19  ****** ****** ****** ****** ****** ****** ****** ****** ****** ******
      ****** ****** ****** ****** ****** ****** ****** ****** ****** ******
      ****** ****** ****** ****** ****** ****** ****** ****** ****** ******
  20  ****** ****** ****** ****** ****** ****** ****** ****** ****** ******
      ****** ****** ****** ****** ****** ****** ****** ****** ****** ******
      ****** ****** ****** ****** ****** ****** ****** ****** ****** ******
  21  ****** ****** ****** ****** ****** ****** ****** ****** ****** ******
      ****** ****** ****** ****** ****** ****** ****** ****** ****** ******
      ****** ****** ****** ****** ****** ****** ****** ****** ****** ******
  22  ****** ****** ****** ****** ****** ****** ****** ****** ****** ******
      ****** ****** ****** ****** ****** ****** ****** ****** ****** ******
      ****** ****** ****** ****** ****** ****** ****** ****** ****** ******
  23  ****** ****** ****** ****** ****** ****** ****** ****** ****** ******
      ****** ****** ****** ****** ****** ****** ****** ****** ****** ******
      ****** ****** ****** ****** ****** ****** ****** ****** ****** ******
  24  ****** ****** ****** ****** ****** ****** ****** ****** ****** ******
      ****** ****** ****** ****** ****** ****** ****** ****** ****** ******
      ****** ****** ****** ****** ****** ****** ****** ****** ****** ******
  25  ****** ****** ****** ****** ****** ****** ****** ****** ****** ******
      ****** ****** ****** ****** ****** ****** ****** ****** ****** ******
      ****** ****** ****** ****** ****** ****** ****** ****** ****** ******

 HEAD WILL BE SAVED ON UNIT   51 AT END OF TIME STEP    1, STRESS PERIOD    9
1
  VOLUMETRIC BUDGET FOR ENTIRE MODEL AT END OF TIME STEP    1, STRESS PERIOD   9
  ------------------------------------------------------------------------------

     CUMULATIVE VOLUMES      L**3       RATES FOR THIS TIME STEP      L**3/T
     ------------------                 ------------------------

           IN:                                      IN:
           ---                                      ---
             STORAGE =    34313978.7192               STORAGE =        7377.0056
       CONSTANT HEAD =    23093112.3825         CONSTANT HEAD =       35279.2087
               WELLS =           0.0000                 WELLS =           0.0000
            RECHARGE =    18878400.0000              RECHARGE =       13800.0000
      STREAM LEAKAGE =     5960491.1179        STREAM LEAKAGE =        9797.5479

            TOTAL IN =    82245982.2196              TOTAL IN =       66253.7623

          OUT:                                     OUT:
          ----                                     ----
             STORAGE =      897845.5327               STORAGE =           0.0000
       CONSTANT HEAD =           0.0000         CONSTANT HEAD =           0.0000
               WELLS =    23074180.8401                 WELLS =       28070.7796
            RECHARGE =           0.0000              RECHARGE =           0.0000
      STREAM LEAKAGE =    58273957.9135        STREAM LEAKAGE =       38182.9835

           TOTAL OUT =    82245984.2863             TOTAL OUT =       66253.7631

            IN - OUT =          -2.0667              IN - OUT =      -8.3309E-04

 PERCENT DISCREPANCY =          -0.00     PERCENT DISCREPANCY =          -0.00






         TIME SUMMARY AT END OF TIME STEP    1 IN STRESS PERIOD    9
                    SECONDS     MINUTES      HOURS       DAYS        YEARS
                    -----------------------------------------------------------
   TIME STEP LENGTH 7.94880E+06 1.32480E+05  2208.0      92.000     0.25188    
 STRESS PERIOD TIME 7.94880E+06 1.32480E+05  2208.0      92.000     0.25188    
         TOTAL TIME 7.10208E+07 1.18368E+06  19728.      822.00      2.2505    
1
1
                            STRESS PERIOD NO.   10, LENGTH =   91.00000    
                            -----------------------------------------------

                              NUMBER OF TIME STEPS =     1

                               MULTIPLIER FOR DELT =     1.500

                            INITIAL TIME STEP SIZE =   91.00000    

 WELL NO.  LAYER   ROW   COL   STRESS RATE         
 --------------------------------------------------
      1      1     16      2      -8562.    
      2      1     23     16      -2065.    
      3      1     13     14      -6003.    
      4      1      6     16     -0.1144E+05

      4 WELLS

                 RECHARGE =  2.000000E-03

 REUSING STREAM SEGMENT DATA FROM LAST STRESS PERIOD
 
 SOLVING FOR HEAD 


     7 CALLS TO PCG ROUTINE FOR TIME STEP   1 IN STRESS PERIOD   10
    26 TOTAL ITERATIONS

 OUTPUT CONTROL FOR STRESS PERIOD   10   TIME STEP    1
    SAVE BUDGET
    SAVE HEAD FOR ALL LAYERS
    PRINT HEAD FOR ALL LAYERS
 UBDSV2 SAVING "STREAMFLOW OUT  " ON UNIT  50 AT TIME STEP  1, STRESS PERIOD  10



 STREAM LISTING     PERIOD     10   STEP        1

 LAYER ROW COL. STREAM  RCH.  FLOW INTO     FLOW TO   FLOW OUT OF   OVRLND.     DIRECT     STREAM       STREAM     STREAM     STREAM   STREAMBED  STREAMBED
                SEG.NO.  NO.  STRM. RCH.    AQUIFER    STRM. RCH.    RUNOFF     PRECIP       ET          HEAD       DEPTH      WIDTH   CONDCTNC.   GRADIENT

   1   13    1     1     1    1.0000E+05 -3.9892E+02   1.0040E+05  0.000E+00  0.000E+00  0.000E+00  4.84062E+01  1.448E-01  2.000E+01  2.000E+04 -1.995E-02
   1   13    2     1     2    1.0040E+05 -1.3559E+03   1.0175E+05  0.000E+00  0.000E+00  0.000E+00  4.79297E+01  1.456E-01  2.000E+01  2.000E+04 -6.780E-02
   1   14    3     1     3    1.0175E+05 -6.6462E+01   1.0182E+05  0.000E+00  0.000E+00  0.000E+00  4.74530E+01  1.462E-01  2.000E+01  2.000E+04 -3.323E-03
   1   15    4     1     4    1.0182E+05 -4.3963E+01   1.0187E+05  0.000E+00  0.000E+00  0.000E+00  4.69758E+01  1.462E-01  2.000E+01  2.000E+04 -2.198E-03
   1   16    5     1     5    1.0187E+05  2.8172E+02   1.0158E+05  0.000E+00  0.000E+00  0.000E+00  4.64984E+01  1.461E-01  2.000E+01  2.000E+04  1.409E-02
   1   16    6     1     6    1.0158E+05 -7.5087E+02   1.0233E+05  0.000E+00  0.000E+00  0.000E+00  4.60213E+01  1.463E-01  2.000E+01  2.000E+04 -3.754E-02
   1   16    7     1     7    1.0233E+05 -9.2617E+02   1.0326E+05  0.000E+00  0.000E+00  0.000E+00  4.55448E+01  1.471E-01  2.000E+01  2.000E+04 -4.631E-02
   1   16    8     1     8    1.0326E+05 -1.0110E+03   1.0427E+05  0.000E+00  0.000E+00  0.000E+00  4.50684E+01  1.479E-01  2.000E+01  2.000E+04 -5.055E-02
   1   16    9     1     9    1.0427E+05 -1.0553E+03   1.0533E+05  0.000E+00  0.000E+00  0.000E+00  4.45920E+01  1.488E-01  2.000E+01  2.000E+04 -5.277E-02
   1   16   10     1    10    1.0533E+05 -1.0749E+03   1.0640E+05  0.000E+00  0.000E+00  0.000E+00  4.41156E+01  1.497E-01  2.000E+01  2.000E+04 -5.375E-02
   1   16   11     1    11    1.0640E+05 -1.0923E+03   1.0749E+05  0.000E+00  0.000E+00  0.000E+00  4.36392E+01  1.506E-01  2.000E+01  2.000E+04 -5.461E-02
   1   16   12     1    12    1.0749E+05 -1.7559E+03   1.0925E+05  0.000E+00  0.000E+00  0.000E+00  4.31632E+01  1.518E-01  2.000E+01  2.000E+04 -8.779E-02
   1   15   13     1    13    1.0925E+05 -1.2659E+03   1.1052E+05  0.000E+00  0.000E+00  0.000E+00  4.26872E+01  1.531E-01  2.000E+01  2.000E+04 -6.329E-02
   1   14   14     1    14    1.1052E+05  3.3187E+02   1.1018E+05  0.000E+00  0.000E+00  0.000E+00  4.22103E+01  1.535E-01  2.000E+01  2.000E+04  1.659E-02
   1   13   15     1    15    1.1018E+05  2.4869E+02   1.0994E+05  0.000E+00  0.000E+00  0.000E+00  4.17328E+01  1.532E-01  2.000E+01  2.000E+04  1.243E-02
   1   12   16     1    16    1.0994E+05 -1.5421E+03   1.1148E+05  0.000E+00  0.000E+00  0.000E+00  4.12560E+01  1.538E-01  2.000E+01  2.000E+04 -7.710E-02
   1   12   17     1    17    1.1148E+05 -1.3222E+03   1.1280E+05  0.000E+00  0.000E+00  0.000E+00  4.07799E+01  1.549E-01  2.000E+01  2.000E+04 -6.611E-02
   1   12   18     1    18    1.1280E+05 -1.3776E+03   1.1418E+05  0.000E+00  0.000E+00  0.000E+00  4.03038E+01  1.561E-01  2.000E+01  2.000E+04 -6.888E-02
   1   12   19     1    19    1.1418E+05 -1.8949E+03   1.1607E+05  0.000E+00  0.000E+00  0.000E+00  3.98279E+01  1.574E-01  2.000E+01  2.000E+04 -9.474E-02
   1   13   20     1    20    1.1607E+05 -1.8211E+03   1.1789E+05  0.000E+00  0.000E+00  0.000E+00  3.93521E+01  1.589E-01  2.000E+01  2.000E+04 -9.106E-02
   1   14   21     1    21    1.1789E+05 -1.8442E+03   1.1974E+05  0.000E+00  0.000E+00  0.000E+00  3.88763E+01  1.604E-01  2.000E+01  2.000E+04 -9.221E-02
   1   14   22     1    22    1.1974E+05  4.6921E+03   1.1505E+05  0.000E+00  0.000E+00  0.000E+00  3.83979E+01  1.593E-01  2.000E+01  2.000E+04  2.346E-01
   1    9   30     2     1    5.0000E+04 -8.6213E+02   5.0862E+04  0.000E+00  0.000E+00  0.000E+00  4.02415E+01  1.165E-01  2.000E+01  2.000E+04 -4.311E-02
   1    9   29     2     2    5.0862E+04 -1.1446E+03   5.2007E+04  0.000E+00  0.000E+00  0.000E+00  3.99928E+01  1.178E-01  2.000E+01  2.000E+04 -5.723E-02
   1    9   28     2     3    5.2007E+04 -1.3597E+03   5.3366E+04  0.000E+00  0.000E+00  0.000E+00  3.97446E+01  1.196E-01  2.000E+01  2.000E+04 -6.798E-02
   1    9   27     2     4    5.3366E+04 -2.4890E+03   5.5855E+04  0.000E+00  0.000E+00  0.000E+00  3.94972E+01  1.222E-01  2.000E+01  2.000E+04 -1.245E-01
   1   10   26     2     5    5.5855E+04 -1.7322E+03   5.7588E+04  0.000E+00  0.000E+00  0.000E+00  3.92500E+01  1.250E-01  2.000E+01  2.000E+04 -8.661E-02
   1   11   25     2     6    5.7588E+04 -1.5146E+03   5.9102E+04  0.000E+00  0.000E+00  0.000E+00  3.90021E+01  1.271E-01  2.000E+01  2.000E+04 -7.573E-02
   1   12   24     2     7    5.9102E+04 -1.5334E+03   6.0635E+04  0.000E+00  0.000E+00  0.000E+00  3.87541E+01  1.291E-01  2.000E+01  2.000E+04 -7.667E-02
   1   13   23     2     8    6.0635E+04 -3.1351E+02   6.0949E+04  0.000E+00  0.000E+00  0.000E+00  3.85053E+01  1.303E-01  2.000E+01  2.000E+04 -1.568E-02
   1   14   22     2     9    6.0949E+04  1.8204E+03   5.9129E+04  0.000E+00  0.000E+00  0.000E+00  3.82543E+01  1.293E-01  2.000E+01  2.000E+04  9.102E-02
   1   14   22     3     1    1.7417E+05 -8.7554E+03   1.8293E+05  0.000E+00  0.000E+00  0.000E+00  3.77255E+01  1.700E-01  2.000E+01  2.000E+04 -4.378E-01
   1   15   23     3     2    1.8293E+05 -6.4226E+02   1.8357E+05  0.000E+00  0.000E+00  0.000E+00  3.68393E+01  1.726E-01  2.000E+01  2.000E+04 -3.211E-02
   1   15   24     3     3    1.8357E+05 -3.7564E+02   1.8395E+05  0.000E+00  0.000E+00  0.000E+00  3.59507E+01  1.729E-01  2.000E+01  2.000E+04 -1.878E-02
   1   15   25     3     4    1.8395E+05 -3.7261E+02   1.8432E+05  0.000E+00  0.000E+00  0.000E+00  3.50620E+01  1.731E-01  2.000E+01  2.000E+04 -1.863E-02
   1   15   26     3     5    1.8432E+05 -4.4829E+02   1.8477E+05  0.000E+00  0.000E+00  0.000E+00  3.41734E+01  1.734E-01  2.000E+01  2.000E+04 -2.241E-02
   1   16   27     3     6    1.8477E+05 -4.9487E+02   1.8526E+05  0.000E+00  0.000E+00  0.000E+00  3.32847E+01  1.736E-01  2.000E+01  2.000E+04 -2.474E-02
   1   17   28     3     7    1.8526E+05 -1.9176E+03   1.8718E+05  0.000E+00  0.000E+00  0.000E+00  3.23965E+01  1.743E-01  2.000E+01  2.000E+04 -9.588E-02
   1   18   29     3     8    1.8718E+05 -3.2567E+03   1.9044E+05  0.000E+00  0.000E+00  0.000E+00  3.15091E+01  1.758E-01  2.000E+01  2.000E+04 -1.628E-01
   1   18   30     3     9    1.9044E+05 -3.4605E+03   1.9390E+05  0.000E+00  0.000E+00  0.000E+00  3.06221E+01  1.776E-01  2.000E+01  2.000E+04 -1.730E-01



1
              HEAD IN LAYER   1 AT END OF TIME STEP   1 IN STRESS PERIOD   10
  ---------------------------------------------------------------------------

          1      2      3      4      5      6      7      8      9     10
         11     12     13     14     15     16     17     18     19     20
         21     22     23     24     25     26     27     28     29     30
 .........................................................................
   1  ****** ****** ****** ****** ****** ****** ****** ****** ****** ******
      ****** ****** ****** ****** ****** ****** ****** ****** ****** ******
      ****** ****** ****** ****** ****** ****** ****** ****** ****** ******
   2  ****** ****** ****** ****** ****** ****** ****** ****** ****** ******
      ****** ****** ****** ****** ****** ****** ****** ****** ****** ******
      ****** ****** ****** ****** ****** ****** ****** ****** ****** ******
   3  ****** ****** ****** ****** ****** ****** ****** ****** ****** ******
      ****** ****** ****** ****** ****** ****** ****** ****** ****** ******
      ****** ****** ****** ****** ****** ****** ****** ****** ****** ******
   4  ****** ****** ****** ****** ****** ****** ****** ****** ****** ******
      ****** ****** ****** ****** ****** ****** ****** ****** ****** ******
      ****** ****** ****** ****** ****** ****** ****** ****** ****** ******
   5  ****** ****** ****** ****** ****** ****** ****** ****** ****** ******
      ****** ****** ****** ****** ****** ****** ****** ****** ****** ******
      ****** ****** ****** ****** ****** ****** ****** ****** ****** ******
   6  ****** ****** ****** ****** ****** ****** ****** ****** ****** ******
      ****** ****** ****** ****** ****** ****** ****** ****** ****** ******
      ****** ****** ****** ****** ****** ****** ****** ****** ****** ******
   7  ****** ****** ****** ****** ****** ****** ****** ****** ****** ******
      ****** ****** ****** ****** ****** ****** ****** ****** ****** ******
      ****** ****** ****** ****** ****** ****** ****** ****** ****** ******
   8  ****** ****** ****** ****** ****** ****** ****** ****** ****** ******
      ****** ****** ****** ****** ****** ****** ****** ****** ****** ******
      ****** ****** ****** ****** ****** ****** ****** ****** ****** ******
   9  ****** ****** ****** ****** ****** ****** ****** ****** ****** ******
      ****** ****** ****** ****** ****** ****** ****** ****** ****** ******
      ****** ****** ****** ****** ****** ****** ****** ****** ****** ******
  10  ****** ****** ****** ****** ****** ****** ****** ****** ****** ******
      ****** ****** ****** ****** ****** ****** ****** ****** ****** ******
      ****** ****** ****** ****** ****** ****** ****** ****** ****** ******
  11  ****** ****** ****** ****** ****** ****** ****** ****** ****** ******
      ****** ****** ****** ****** ****** ****** ****** ****** ****** ******
      ****** ****** ****** ****** ****** ****** ****** ****** ****** ******
  12  ****** ****** ****** ****** ****** ****** ****** ****** ****** ******
      ****** ****** ****** ****** ****** ****** ****** ****** ****** ******
      ****** ****** ****** ****** ****** ****** ****** ****** ****** ******
  13  ****** ****** ****** ****** ****** ****** ****** ****** ****** ******
      ****** ****** ****** ****** ****** ****** ****** ****** ****** ******
      ****** ****** ****** ****** ****** ****** ****** ****** ****** ******
  14  ****** ****** ****** ****** ****** ****** ****** ****** ****** ******
      ****** ****** ****** ****** ****** ****** ****** ****** ****** ******
      ****** ****** ****** ****** ****** ****** ****** ****** ****** ******
  15  ****** ****** ****** ****** ****** ****** ****** ****** ****** ******
      ****** ****** ****** ****** ****** ****** ****** ****** ****** ******
      ****** ****** ****** ****** ****** ****** ****** ****** ****** ******
  16  ****** ****** ****** ****** ****** ****** ****** ****** ****** ******
      ****** ****** ****** ****** ****** ****** ****** ****** ****** ******
      ****** ****** ****** ****** ****** ****** ****** ****** ****** ******
  17  ****** ****** ****** ****** ****** ****** ****** ****** ****** ******
      ****** ****** ****** ****** ****** ****** ****** ****** ****** ******
      ****** ****** ****** ****** ****** ****** ****** ****** ****** ******
  18  ****** ****** ****** ****** ****** ****** ****** ****** ****** ******
      ****** ****** ****** ****** ****** ****** ****** ****** ****** ******
      ****** ****** ****** ****** ****** ****** ****** ****** ****** ******
  19  ****** ****** ****** ****** ****** ****** ****** ****** ****** ******
      ****** ****** ****** ****** ****** ****** ****** ****** ****** ******
      ****** ****** ****** ****** ****** ****** ****** ****** ****** ******
  20  ****** ****** ****** ****** ****** ****** ****** ****** ****** ******
      ****** ****** ****** ****** ****** ****** ****** ****** ****** ******
      ****** ****** ****** ****** ****** ****** ****** ****** ****** ******
  21  ****** ****** ****** ****** ****** ****** ****** ****** ****** ******
      ****** ****** ****** ****** ****** ****** ****** ****** ****** ******
      ****** ****** ****** ****** ****** ****** ****** ****** ****** ******
  22  ****** ****** ****** ****** ****** ****** ****** ****** ****** ******
      ****** ****** ****** ****** ****** ****** ****** ****** ****** ******
      ****** ****** ****** ****** ****** ****** ****** ****** ****** ******
  23  ****** ****** ****** ****** ****** ****** ****** ****** ****** ******
      ****** ****** ****** ****** ****** ****** ****** ****** ****** ******
      ****** ****** ****** ****** ****** ****** ****** ****** ****** ******
  24  ****** ****** ****** ****** ****** ****** ****** ****** ****** ******
      ****** ****** ****** ****** ****** ****** ****** ****** ****** ******
      ****** ****** ****** ****** ****** ****** ****** ****** ****** ******
  25  ****** ****** ****** ****** ****** ****** ****** ****** ****** ******
      ****** ****** ****** ****** ****** ****** ****** ****** ****** ******
      ****** ****** ****** ****** ****** ****** ****** ****** ****** ******

 HEAD WILL BE SAVED ON UNIT   51 AT END OF TIME STEP    1, STRESS PERIOD   10
1
  VOLUMETRIC BUDGET FOR ENTIRE MODEL AT END OF TIME STEP    1, STRESS PERIOD  10
  ------------------------------------------------------------------------------

     CUMULATIVE VOLUMES      L**3       RATES FOR THIS TIME STEP      L**3/T
     ------------------                 ------------------------

           IN:                                      IN:
           ---                                      ---
             STORAGE =    34313978.7192               STORAGE =           0.0000
       CONSTANT HEAD =    26035996.2895         CONSTANT HEAD =       32339.3836
               WELLS =           0.0000                 WELLS =           0.0000
            RECHARGE =    23901600.0000              RECHARGE =       55200.0000
      STREAM LEAKAGE =     6631590.4971        STREAM LEAKAGE =        7374.7185

            TOTAL IN =    90883165.5057              TOTAL IN =       94914.1020

          OUT:                                     OUT:
          ----                                     ----
             STORAGE =     2314776.4018               STORAGE =       15570.6689
       CONSTANT HEAD =           0.0000         CONSTANT HEAD =           0.0000
               WELLS =    25628621.7846                 WELLS =       28070.7796
            RECHARGE =           0.0000              RECHARGE =           0.0000
      STREAM LEAKAGE =    62939769.0227        STREAM LEAKAGE =       51272.6496

           TOTAL OUT =    90883167.2092             TOTAL OUT =       94914.0981

            IN - OUT =          -1.7034              IN - OUT =       3.9917E-03

 PERCENT DISCREPANCY =          -0.00     PERCENT DISCREPANCY =           0.00






         TIME SUMMARY AT END OF TIME STEP    1 IN STRESS PERIOD   10
                    SECONDS     MINUTES      HOURS       DAYS        YEARS
                    -----------------------------------------------------------
   TIME STEP LENGTH 7.86240E+06 1.31040E+05  2184.0      91.000     0.24914    
 STRESS PERIOD TIME 7.86240E+06 1.31040E+05  2184.0      91.000     0.24914    
         TOTAL TIME 7.88832E+07 1.31472E+06  21912.      913.00      2.4997    
1
1
                            STRESS PERIOD NO.   11, LENGTH =   91.00000    
                            -----------------------------------------------

                              NUMBER OF TIME STEPS =     1

                               MULTIPLIER FOR DELT =     1.500

                            INITIAL TIME STEP SIZE =   91.00000    

 WELL NO.  LAYER   ROW   COL   STRESS RATE         
 --------------------------------------------------
      1      1     16      2      -8562.    
      2      1     23     16      -2065.    
      3      1     13     14      -6003.    
      4      1      6     16     -0.1144E+05

      4 WELLS

                 RECHARGE =   0.00000    

 REUSING STREAM SEGMENT DATA FROM LAST STRESS PERIOD
 
 SOLVING FOR HEAD 


     7 CALLS TO PCG ROUTINE FOR TIME STEP   1 IN STRESS PERIOD   11
    26 TOTAL ITERATIONS

 OUTPUT CONTROL FOR STRESS PERIOD   11   TIME STEP    1
    SAVE BUDGET
    SAVE HEAD FOR ALL LAYERS
    PRINT HEAD FOR ALL LAYERS
 UBDSV2 SAVING "STREAMFLOW OUT  " ON UNIT  50 AT TIME STEP  1, STRESS PERIOD  11



 STREAM LISTING     PERIOD     11   STEP        1

 LAYER ROW COL. STREAM  RCH.  FLOW INTO     FLOW TO   FLOW OUT OF   OVRLND.     DIRECT     STREAM       STREAM     STREAM     STREAM   STREAMBED  STREAMBED
                SEG.NO.  NO.  STRM. RCH.    AQUIFER    STRM. RCH.    RUNOFF     PRECIP       ET          HEAD       DEPTH      WIDTH   CONDCTNC.   GRADIENT

   1   13    1     1     1    1.0000E+05  1.7205E+02   9.9828E+04  0.000E+00  0.000E+00  0.000E+00  4.84059E+01  1.446E-01  2.000E+01  2.000E+04  8.602E-03
   1   13    2     1     2    9.9828E+04 -7.1993E+02   1.0055E+05  0.000E+00  0.000E+00  0.000E+00  4.79289E+01  1.448E-01  2.000E+01  2.000E+04 -3.600E-02
   1   14    3     1     3    1.0055E+05  1.6503E+02   1.0038E+05  0.000E+00  0.000E+00  0.000E+00  4.74519E+01  1.451E-01  2.000E+01  2.000E+04  8.251E-03
   1   15    4     1     4    1.0038E+05  1.9842E+02   1.0018E+05  0.000E+00  0.000E+00  0.000E+00  4.69744E+01  1.449E-01  2.000E+01  2.000E+04  9.921E-03
   1   16    5     1     5    1.0018E+05  9.6996E+02   9.9214E+04  0.000E+00  0.000E+00  0.000E+00  4.64967E+01  1.444E-01  2.000E+01  2.000E+04  4.850E-02
   1   16    6     1     6    9.9214E+04 -3.3614E+02   9.9551E+04  0.000E+00  0.000E+00  0.000E+00  4.60191E+01  1.441E-01  2.000E+01  2.000E+04 -1.681E-02
   1   16    7     1     7    9.9551E+04 -5.2901E+02   1.0008E+05  0.000E+00  0.000E+00  0.000E+00  4.55422E+01  1.445E-01  2.000E+01  2.000E+04 -2.645E-02
   1   16    8     1     8    1.0008E+05 -6.1936E+02   1.0070E+05  0.000E+00  0.000E+00  0.000E+00  4.50654E+01  1.450E-01  2.000E+01  2.000E+04 -3.097E-02
   1   16    9     1     9    1.0070E+05 -6.6603E+02   1.0137E+05  0.000E+00  0.000E+00  0.000E+00  4.45887E+01  1.455E-01  2.000E+01  2.000E+04 -3.330E-02
   1   16   10     1    10    1.0137E+05 -6.8680E+02   1.0205E+05  0.000E+00  0.000E+00  0.000E+00  4.41120E+01  1.461E-01  2.000E+01  2.000E+04 -3.434E-02
   1   16   11     1    11    1.0205E+05 -7.0248E+02   1.0275E+05  0.000E+00  0.000E+00  0.000E+00  4.36354E+01  1.467E-01  2.000E+01  2.000E+04 -3.512E-02
   1   16   12     1    12    1.0275E+05 -1.1099E+03   1.0386E+05  0.000E+00  0.000E+00  0.000E+00  4.31589E+01  1.475E-01  2.000E+01  2.000E+04 -5.550E-02
   1   15   13     1    13    1.0386E+05 -5.7635E+02   1.0444E+05  0.000E+00  0.000E+00  0.000E+00  4.26823E+01  1.482E-01  2.000E+01  2.000E+04 -2.882E-02
   1   14   14     1    14    1.0444E+05  1.0396E+03   1.0340E+05  0.000E+00  0.000E+00  0.000E+00  4.22048E+01  1.480E-01  2.000E+01  2.000E+04  5.198E-02
   1   13   15     1    15    1.0340E+05  9.5124E+02   1.0245E+05  0.000E+00  0.000E+00  0.000E+00  4.17267E+01  1.472E-01  2.000E+01  2.000E+04  4.756E-02
   1   12   16     1    16    1.0245E+05 -8.6231E+02   1.0331E+05  0.000E+00  0.000E+00  0.000E+00  4.12494E+01  1.471E-01  2.000E+01  2.000E+04 -4.312E-02
   1   12   17     1    17    1.0331E+05 -8.1435E+02   1.0413E+05  0.000E+00  0.000E+00  0.000E+00  4.07729E+01  1.479E-01  2.000E+01  2.000E+04 -4.072E-02
   1   12   18     1    18    1.0413E+05 -8.7769E+02   1.0500E+05  0.000E+00  0.000E+00  0.000E+00  4.02963E+01  1.486E-01  2.000E+01  2.000E+04 -4.388E-02
   1   12   19     1    19    1.0500E+05 -1.2812E+03   1.0629E+05  0.000E+00  0.000E+00  0.000E+00  3.98200E+01  1.495E-01  2.000E+01  2.000E+04 -6.406E-02
   1   13   20     1    20    1.0629E+05 -1.2086E+03   1.0749E+05  0.000E+00  0.000E+00  0.000E+00  3.93437E+01  1.506E-01  2.000E+01  2.000E+04 -6.043E-02
   1   14   21     1    21    1.0749E+05 -1.2477E+03   1.0874E+05  0.000E+00  0.000E+00  0.000E+00  3.88675E+01  1.516E-01  2.000E+01  2.000E+04 -6.239E-02
   1   14   22     1    22    1.0874E+05  4.8349E+03   1.0391E+05  0.000E+00  0.000E+00  0.000E+00  3.83887E+01  1.501E-01  2.000E+01  2.000E+04  2.417E-01
   1    9   30     2     1    5.0000E+04 -3.7385E+02   5.0374E+04  0.000E+00  0.000E+00  0.000E+00  4.02411E+01  1.161E-01  2.000E+01  2.000E+04 -1.869E-02
   1    9   29     2     2    5.0374E+04 -6.5932E+02   5.1033E+04  0.000E+00  0.000E+00  0.000E+00  3.99918E+01  1.168E-01  2.000E+01  2.000E+04 -3.297E-02
   1    9   28     2     3    5.1033E+04 -8.7654E+02   5.1910E+04  0.000E+00  0.000E+00  0.000E+00  3.97429E+01  1.179E-01  2.000E+01  2.000E+04 -4.383E-02
   1    9   27     2     4    5.1910E+04 -1.8486E+03   5.3758E+04  0.000E+00  0.000E+00  0.000E+00  3.94948E+01  1.198E-01  2.000E+01  2.000E+04 -9.243E-02
   1   10   26     2     5    5.3758E+04 -1.0774E+03   5.4836E+04  0.000E+00  0.000E+00  0.000E+00  3.92467E+01  1.217E-01  2.000E+01  2.000E+04 -5.387E-02
   1   11   25     2     6    5.4836E+04 -8.8361E+02   5.5719E+04  0.000E+00  0.000E+00  0.000E+00  3.89981E+01  1.231E-01  2.000E+01  2.000E+04 -4.418E-02
   1   12   24     2     7    5.5719E+04 -9.5936E+02   5.6679E+04  0.000E+00  0.000E+00  0.000E+00  3.87493E+01  1.243E-01  2.000E+01  2.000E+04 -4.797E-02
   1   13   23     2     8    5.6679E+04 -1.2752E+02   5.6806E+04  0.000E+00  0.000E+00  0.000E+00  3.85000E+01  1.250E-01  2.000E+01  2.000E+04 -6.376E-03
   1   14   22     2     9    5.6806E+04  2.0355E+03   5.4771E+04  0.000E+00  0.000E+00  0.000E+00  3.82487E+01  1.237E-01  2.000E+01  2.000E+04  1.018E-01
   1   14   22     3     1    1.5868E+05 -8.6099E+03   1.6729E+05  0.000E+00  0.000E+00  0.000E+00  3.77165E+01  1.609E-01  2.000E+01  2.000E+04 -4.305E-01
   1   15   23     3     2    1.6729E+05 -4.5031E+02   1.6774E+05  0.000E+00  0.000E+00  0.000E+00  3.68302E+01  1.636E-01  2.000E+01  2.000E+04 -2.252E-02
   1   15   24     3     3    1.6774E+05 -2.1057E+02   1.6795E+05  0.000E+00  0.000E+00  0.000E+00  3.59416E+01  1.638E-01  2.000E+01  2.000E+04 -1.053E-02
   1   15   25     3     4    1.6795E+05 -2.0371E+02   1.6815E+05  0.000E+00  0.000E+00  0.000E+00  3.50528E+01  1.639E-01  2.000E+01  2.000E+04 -1.019E-02
   1   15   26     3     5    1.6815E+05 -2.5264E+02   1.6840E+05  0.000E+00  0.000E+00  0.000E+00  3.41640E+01  1.640E-01  2.000E+01  2.000E+04 -1.263E-02
   1   16   27     3     6    1.6840E+05 -2.7194E+02   1.6868E+05  0.000E+00  0.000E+00  0.000E+00  3.32753E+01  1.642E-01  2.000E+01  2.000E+04 -1.360E-02
   1   17   28     3     7    1.6868E+05 -1.3081E+03   1.6998E+05  0.000E+00  0.000E+00  0.000E+00  3.23869E+01  1.646E-01  2.000E+01  2.000E+04 -6.540E-02
   1   18   29     3     8    1.6998E+05 -2.6353E+03   1.7262E+05  0.000E+00  0.000E+00  0.000E+00  3.14991E+01  1.658E-01  2.000E+01  2.000E+04 -1.318E-01
   1   18   30     3     9    1.7262E+05 -2.9716E+03   1.7559E+05  0.000E+00  0.000E+00  0.000E+00  3.06119E+01  1.674E-01  2.000E+01  2.000E+04 -1.486E-01



1
              HEAD IN LAYER   1 AT END OF TIME STEP   1 IN STRESS PERIOD   11
  ---------------------------------------------------------------------------

          1      2      3      4      5      6      7      8      9     10
         11     12     13     14     15     16     17     18     19     20
         21     22     23     24     25     26     27     28     29     30
 .........................................................................
   1  ****** ****** ****** ****** ****** ****** ****** ****** ****** ******
      ****** ****** ****** ****** ****** ****** ****** ****** ****** ******
      ****** ****** ****** ****** ****** ****** ****** ****** ****** ******
   2  ****** ****** ****** ****** ****** ****** ****** ****** ****** ******
      ****** ****** ****** ****** ****** ****** ****** ****** ****** ******
      ****** ****** ****** ****** ****** ****** ****** ****** ****** ******
   3  ****** ****** ****** ****** ****** ****** ****** ****** ****** ******
      ****** ****** ****** ****** ****** ****** ****** ****** ****** ******
      ****** ****** ****** ****** ****** ****** ****** ****** ****** ******
   4  ****** ****** ****** ****** ****** ****** ****** ****** ****** ******
      ****** ****** ****** ****** ****** ****** ****** ****** ****** ******
      ****** ****** ****** ****** ****** ****** ****** ****** ****** ******
   5  ****** ****** ****** ****** ****** ****** ****** ****** ****** ******
      ****** ****** ****** ****** ****** ****** ****** ****** ****** ******
      ****** ****** ****** ****** ****** ****** ****** ****** ****** ******
   6  ****** ****** ****** ****** ****** ****** ****** ****** ****** ******
      ****** ****** ****** ****** ****** ****** ****** ****** ****** ******
      ****** ****** ****** ****** ****** ****** ****** ****** ****** ******
   7  ****** ****** ****** ****** ****** ****** ****** ****** ****** ******
      ****** ****** ****** ****** ****** ****** ****** ****** ****** ******
      ****** ****** ****** ****** ****** ****** ****** ****** ****** ******
   8  ****** ****** ****** ****** ****** ****** ****** ****** ****** ******
      ****** ****** ****** ****** ****** ****** ****** ****** ****** ******
      ****** ****** ****** ****** ****** ****** ****** ****** ****** ******
   9  ****** ****** ****** ****** ****** ****** ****** ****** ****** ******
      ****** ****** ****** ****** ****** ****** ****** ****** ****** ******
      ****** ****** ****** ****** ****** ****** ****** ****** ****** ******
  10  ****** ****** ****** ****** ****** ****** ****** ****** ****** ******
      ****** ****** ****** ****** ****** ****** ****** ****** ****** ******
      ****** ****** ****** ****** ****** ****** ****** ****** ****** ******
  11  ****** ****** ****** ****** ****** ****** ****** ****** ****** ******
      ****** ****** ****** ****** ****** ****** ****** ****** ****** ******
      ****** ****** ****** ****** ****** ****** ****** ****** ****** ******
  12  ****** ****** ****** ****** ****** ****** ****** ****** ****** ******
      ****** ****** ****** ****** ****** ****** ****** ****** ****** ******
      ****** ****** ****** ****** ****** ****** ****** ****** ****** ******
  13  ****** ****** ****** ****** ****** ****** ****** ****** ****** ******
      ****** ****** ****** ****** ****** ****** ****** ****** ****** ******
      ****** ****** ****** ****** ****** ****** ****** ****** ****** ******
  14  ****** ****** ****** ****** ****** ****** ****** ****** ****** ******
      ****** ****** ****** ****** ****** ****** ****** ****** ****** ******
      ****** ****** ****** ****** ****** ****** ****** ****** ****** ******
  15  ****** ****** ****** ****** ****** ****** ****** ****** ****** ******
      ****** ****** ****** ****** ****** ****** ****** ****** ****** ******
      ****** ****** ****** ****** ****** ****** ****** ****** ****** ******
  16  ****** ****** ****** ****** ****** ****** ****** ****** ****** ******
      ****** ****** ****** ****** ****** ****** ****** ****** ****** ******
      ****** ****** ****** ****** ****** ****** ****** ****** ****** ******
  17  ****** ****** ****** ****** ****** ****** ****** ****** ****** ******
      ****** ****** ****** ****** ****** ****** ****** ****** ****** ******
      ****** ****** ****** ****** ****** ****** ****** ****** ****** ******
  18  ****** ****** ****** ****** ****** ****** ****** ****** ****** ******
      ****** ****** ****** ****** ****** ****** ****** ****** ****** ******
      ****** ****** ****** ****** ****** ****** ****** ****** ****** ******
  19  ****** ****** ****** ****** ****** ****** ****** ****** ****** ******
      ****** ****** ****** ****** ****** ****** ****** ****** ****** ******
      ****** ****** ****** ****** ****** ****** ****** ****** ****** ******
  20  ****** ****** ****** ****** ****** ****** ****** ****** ****** ******
      ****** ****** ****** ****** ****** ****** ****** ****** ****** ******
      ****** ****** ****** ****** ****** ****** ****** ****** ****** ******
  21  ****** ****** ****** ****** ****** ****** ****** ****** ****** ******
      ****** ****** ****** ****** ****** ****** ****** ****** ****** ******
      ****** ****** ****** ****** ****** ****** ****** ****** ****** ******
  22  ****** ****** ****** ****** ****** ****** ****** ****** ****** ******
      ****** ****** ****** ****** ****** ****** ****** ****** ****** ******
      ****** ****** ****** ****** ****** ****** ****** ****** ****** ******
  23  ****** ****** ****** ****** ****** ****** ****** ****** ****** ******
      ****** ****** ****** ****** ****** ****** ****** ****** ****** ******
      ****** ****** ****** ****** ****** ****** ****** ****** ****** ******
  24  ****** ****** ****** ****** ****** ****** ****** ****** ****** ******
      ****** ****** ****** ****** ****** ****** ****** ****** ****** ******
      ****** ****** ****** ****** ****** ****** ****** ****** ****** ******
  25  ****** ****** ****** ****** ****** ****** ****** ****** ****** ******
      ****** ****** ****** ****** ****** ****** ****** ****** ****** ******
      ****** ****** ****** ****** ****** ****** ****** ****** ****** ******

 HEAD WILL BE SAVED ON UNIT   51 AT END OF TIME STEP    1, STRESS PERIOD   11
1
  VOLUMETRIC BUDGET FOR ENTIRE MODEL AT END OF TIME STEP    1, STRESS PERIOD  11
  ------------------------------------------------------------------------------

     CUMULATIVE VOLUMES      L**3       RATES FOR THIS TIME STEP      L**3/T
     ------------------                 ------------------------

           IN:                                      IN:
           ---                                      ---
             STORAGE =    35954486.9525               STORAGE =       18027.5630
       CONSTANT HEAD =    29278745.9987         CONSTANT HEAD =       35634.6122
               WELLS =           0.0000                 WELLS =           0.0000
            RECHARGE =    23901600.0000              RECHARGE =           0.0000
      STREAM LEAKAGE =     7574965.1846        STREAM LEAKAGE =       10366.7548

            TOTAL IN =    96709798.1358              TOTAL IN =       64028.9300

          OUT:                                     OUT:
          ----                                     ----
             STORAGE =     2314776.4018               STORAGE =           0.0000
       CONSTANT HEAD =           0.0000         CONSTANT HEAD =           0.0000
               WELLS =    28183062.7292                 WELLS =       28070.7796
            RECHARGE =           0.0000              RECHARGE =           0.0000
      STREAM LEAKAGE =    66211961.1811        STREAM LEAKAGE =       35958.1556

           TOTAL OUT =    96709800.3121             TOTAL OUT =       64028.9352

            IN - OUT =          -2.1763              IN - OUT =      -5.1967E-03

 PERCENT DISCREPANCY =          -0.00     PERCENT DISCREPANCY =          -0.00






         TIME SUMMARY AT END OF TIME STEP    1 IN STRESS PERIOD   11
                    SECONDS     MINUTES      HOURS       DAYS        YEARS
                    -----------------------------------------------------------
   TIME STEP LENGTH 7.86240E+06 1.31040E+05  2184.0      91.000     0.24914    
 STRESS PERIOD TIME 7.86240E+06 1.31040E+05  2184.0      91.000     0.24914    
         TOTAL TIME 8.67456E+07 1.44576E+06  24096.      1004.0      2.7488    
1
1
                            STRESS PERIOD NO.   12, LENGTH =   91.00000    
                            -----------------------------------------------

                              NUMBER OF TIME STEPS =     1

                               MULTIPLIER FOR DELT =     1.500

                            INITIAL TIME STEP SIZE =   91.00000    

 WELL NO.  LAYER   ROW   COL   STRESS RATE         
 --------------------------------------------------
      1      1     16      2      -8562.    
      2      1     23     16      -2065.    
      3      1     13     14      -6003.    
      4      1      6     16     -0.1144E+05

      4 WELLS

                 RECHARGE =  1.000000E-03

 REUSING STREAM SEGMENT DATA FROM LAST STRESS PERIOD
 
 SOLVING FOR HEAD 


     7 CALLS TO PCG ROUTINE FOR TIME STEP   1 IN STRESS PERIOD   12
    24 TOTAL ITERATIONS

 OUTPUT CONTROL FOR STRESS PERIOD   12   TIME STEP    1
    SAVE BUDGET
    SAVE HEAD FOR ALL LAYERS
    PRINT HEAD FOR ALL LAYERS
 UBDSV2 SAVING "STREAMFLOW OUT  " ON UNIT  50 AT TIME STEP  1, STRESS PERIOD  12



 STREAM LISTING     PERIOD     12   STEP        1

 LAYER ROW COL. STREAM  RCH.  FLOW INTO     FLOW TO   FLOW OUT OF   OVRLND.     DIRECT     STREAM       STREAM     STREAM     STREAM   STREAMBED  STREAMBED
                SEG.NO.  NO.  STRM. RCH.    AQUIFER    STRM. RCH.    RUNOFF     PRECIP       ET          HEAD       DEPTH      WIDTH   CONDCTNC.   GRADIENT

   1   13    1     1     1    1.0000E+05  3.0152E+01   9.9970E+04  0.000E+00  0.000E+00  0.000E+00  4.84060E+01  1.446E-01  2.000E+01  2.000E+04  1.508E-03
   1   13    2     1     2    9.9970E+04 -8.7224E+02   1.0084E+05  0.000E+00  0.000E+00  0.000E+00  4.79291E+01  1.450E-01  2.000E+01  2.000E+04 -4.361E-02
   1   14    3     1     3    1.0084E+05  8.6913E+01   1.0076E+05  0.000E+00  0.000E+00  0.000E+00  4.74522E+01  1.453E-01  2.000E+01  2.000E+04  4.346E-03
   1   15    4     1     4    1.0076E+05  1.1642E+02   1.0064E+05  0.000E+00  0.000E+00  0.000E+00  4.69748E+01  1.453E-01  2.000E+01  2.000E+04  5.821E-03
   1   16    5     1     5    1.0064E+05  7.6046E+02   9.9878E+04  0.000E+00  0.000E+00  0.000E+00  4.64971E+01  1.449E-01  2.000E+01  2.000E+04  3.802E-02
   1   16    6     1     6    9.9878E+04 -4.6626E+02   1.0034E+05  0.000E+00  0.000E+00  0.000E+00  4.60197E+01  1.447E-01  2.000E+01  2.000E+04 -2.331E-02
   1   16    7     1     7    1.0034E+05 -6.5403E+02   1.0100E+05  0.000E+00  0.000E+00  0.000E+00  4.55430E+01  1.452E-01  2.000E+01  2.000E+04 -3.270E-02
   1   16    8     1     8    1.0100E+05 -7.4335E+02   1.0174E+05  0.000E+00  0.000E+00  0.000E+00  4.50663E+01  1.458E-01  2.000E+01  2.000E+04 -3.717E-02
   1   16    9     1     9    1.0174E+05 -7.9049E+02   1.0253E+05  0.000E+00  0.000E+00  0.000E+00  4.45897E+01  1.465E-01  2.000E+01  2.000E+04 -3.952E-02
   1   16   10     1    10    1.0253E+05 -8.1267E+02   1.0335E+05  0.000E+00  0.000E+00  0.000E+00  4.41131E+01  1.472E-01  2.000E+01  2.000E+04 -4.063E-02
   1   16   11     1    11    1.0335E+05 -8.3066E+02   1.0418E+05  0.000E+00  0.000E+00  0.000E+00  4.36365E+01  1.479E-01  2.000E+01  2.000E+04 -4.153E-02
   1   16   12     1    12    1.0418E+05 -1.3113E+03   1.0549E+05  0.000E+00  0.000E+00  0.000E+00  4.31602E+01  1.488E-01  2.000E+01  2.000E+04 -6.557E-02
   1   15   13     1    13    1.0549E+05 -7.9252E+02   1.0628E+05  0.000E+00  0.000E+00  0.000E+00  4.26838E+01  1.497E-01  2.000E+01  2.000E+04 -3.963E-02
   1   14   14     1    14    1.0628E+05  8.2322E+02   1.0546E+05  0.000E+00  0.000E+00  0.000E+00  4.22065E+01  1.497E-01  2.000E+01  2.000E+04  4.116E-02
   1   13   15     1    15    1.0546E+05  7.4240E+02   1.0471E+05  0.000E+00  0.000E+00  0.000E+00  4.17286E+01  1.490E-01  2.000E+01  2.000E+04  3.712E-02
   1   12   16     1    16    1.0471E+05 -1.0442E+03   1.0576E+05  0.000E+00  0.000E+00  0.000E+00  4.12514E+01  1.491E-01  2.000E+01  2.000E+04 -5.221E-02
   1   12   17     1    17    1.0576E+05 -9.6706E+02   1.0673E+05  0.000E+00  0.000E+00  0.000E+00  4.07750E+01  1.500E-01  2.000E+01  2.000E+04 -4.835E-02
   1   12   18     1    18    1.0673E+05 -1.0327E+03   1.0776E+05  0.000E+00  0.000E+00  0.000E+00  4.02986E+01  1.508E-01  2.000E+01  2.000E+04 -5.164E-02
   1   12   19     1    19    1.0776E+05 -1.4729E+03   1.0923E+05  0.000E+00  0.000E+00  0.000E+00  3.98224E+01  1.519E-01  2.000E+01  2.000E+04 -7.364E-02
   1   13   20     1    20    1.0923E+05 -1.4187E+03   1.1065E+05  0.000E+00  0.000E+00  0.000E+00  3.93463E+01  1.531E-01  2.000E+01  2.000E+04 -7.093E-02
   1   14   21     1    21    1.1065E+05 -1.4418E+03   1.1209E+05  0.000E+00  0.000E+00  0.000E+00  3.88702E+01  1.543E-01  2.000E+01  2.000E+04 -7.209E-02
   1   14   22     1    22    1.1209E+05  4.7830E+03   1.0731E+05  0.000E+00  0.000E+00  0.000E+00  3.83916E+01  1.529E-01  2.000E+01  2.000E+04  2.392E-01
   1    9   30     2     1    5.0000E+04 -5.5011E+02   5.0550E+04  0.000E+00  0.000E+00  0.000E+00  4.02412E+01  1.162E-01  2.000E+01  2.000E+04 -2.751E-02
   1    9   29     2     2    5.0550E+04 -8.3352E+02   5.1384E+04  0.000E+00  0.000E+00  0.000E+00  3.99922E+01  1.172E-01  2.000E+01  2.000E+04 -4.168E-02
   1    9   28     2     3    5.1384E+04 -1.0472E+03   5.2431E+04  0.000E+00  0.000E+00  0.000E+00  3.97435E+01  1.185E-01  2.000E+01  2.000E+04 -5.236E-02
   1    9   27     2     4    5.2431E+04 -2.0573E+03   5.4488E+04  0.000E+00  0.000E+00  0.000E+00  3.94956E+01  1.206E-01  2.000E+01  2.000E+04 -1.029E-01
   1   10   26     2     5    5.4488E+04 -1.3069E+03   5.5795E+04  0.000E+00  0.000E+00  0.000E+00  3.92479E+01  1.229E-01  2.000E+01  2.000E+04 -6.534E-02
   1   11   25     2     6    5.5795E+04 -1.1092E+03   5.6904E+04  0.000E+00  0.000E+00  0.000E+00  3.89995E+01  1.245E-01  2.000E+01  2.000E+04 -5.546E-02
   1   12   24     2     7    5.6904E+04 -1.1652E+03   5.8069E+04  0.000E+00  0.000E+00  0.000E+00  3.87510E+01  1.260E-01  2.000E+01  2.000E+04 -5.826E-02
   1   13   23     2     8    5.8069E+04 -2.0511E+02   5.8275E+04  0.000E+00  0.000E+00  0.000E+00  3.85019E+01  1.269E-01  2.000E+01  2.000E+04 -1.026E-02
   1   14   22     2     9    5.8275E+04  1.9665E+03   5.6308E+04  0.000E+00  0.000E+00  0.000E+00  3.82507E+01  1.257E-01  2.000E+01  2.000E+04  9.833E-02
   1   14   22     3     1    1.6362E+05 -8.6602E+03   1.7228E+05  0.000E+00  0.000E+00  0.000E+00  3.77194E+01  1.638E-01  2.000E+01  2.000E+04 -4.330E-01
   1   15   23     3     2    1.7228E+05 -5.2238E+02   1.7280E+05  0.000E+00  0.000E+00  0.000E+00  3.68332E+01  1.665E-01  2.000E+01  2.000E+04 -2.612E-02
   1   15   24     3     3    1.7280E+05 -2.7569E+02   1.7307E+05  0.000E+00  0.000E+00  0.000E+00  3.59445E+01  1.667E-01  2.000E+01  2.000E+04 -1.378E-02
   1   15   25     3     4    1.7307E+05 -2.7009E+02   1.7334E+05  0.000E+00  0.000E+00  0.000E+00  3.50558E+01  1.669E-01  2.000E+01  2.000E+04 -1.350E-02
   1   15   26     3     5    1.7334E+05 -3.3014E+02   1.7367E+05  0.000E+00  0.000E+00  0.000E+00  3.41671E+01  1.671E-01  2.000E+01  2.000E+04 -1.651E-02
   1   16   27     3     6    1.7367E+05 -3.5876E+02   1.7403E+05  0.000E+00  0.000E+00  0.000E+00  3.32784E+01  1.673E-01  2.000E+01  2.000E+04 -1.794E-02
   1   17   28     3     7    1.7403E+05 -1.5289E+03   1.7556E+05  0.000E+00  0.000E+00  0.000E+00  3.23900E+01  1.678E-01  2.000E+01  2.000E+04 -7.645E-02
   1   18   29     3     8    1.7556E+05 -2.8362E+03   1.7840E+05  0.000E+00  0.000E+00  0.000E+00  3.15024E+01  1.691E-01  2.000E+01  2.000E+04 -1.418E-01
   1   18   30     3     9    1.7840E+05 -3.1399E+03   1.8154E+05  0.000E+00  0.000E+00  0.000E+00  3.06152E+01  1.708E-01  2.000E+01  2.000E+04 -1.570E-01



1
              HEAD IN LAYER   1 AT END OF TIME STEP   1 IN STRESS PERIOD   12
  ---------------------------------------------------------------------------

          1      2      3      4      5      6      7      8      9     10
         11     12     13     14     15     16     17     18     19     20
         21     22     23     24     25     26     27     28     29     30
 .........................................................................
   1  ****** ****** ****** ****** ****** ****** ****** ****** ****** ******
      ****** ****** ****** ****** ****** ****** ****** ****** ****** ******
      ****** ****** ****** ****** ****** ****** ****** ****** ****** ******
   2  ****** ****** ****** ****** ****** ****** ****** ****** ****** ******
      ****** ****** ****** ****** ****** ****** ****** ****** ****** ******
      ****** ****** ****** ****** ****** ****** ****** ****** ****** ******
   3  ****** ****** ****** ****** ****** ****** ****** ****** ****** ******
      ****** ****** ****** ****** ****** ****** ****** ****** ****** ******
      ****** ****** ****** ****** ****** ****** ****** ****** ****** ******
   4  ****** ****** ****** ****** ****** ****** ****** ****** ****** ******
      ****** ****** ****** ****** ****** ****** ****** ****** ****** ******
      ****** ****** ****** ****** ****** ****** ****** ****** ****** ******
   5  ****** ****** ****** ****** ****** ****** ****** ****** ****** ******
      ****** ****** ****** ****** ****** ****** ****** ****** ****** ******
      ****** ****** ****** ****** ****** ****** ****** ****** ****** ******
   6  ****** ****** ****** ****** ****** ****** ****** ****** ****** ******
      ****** ****** ****** ****** ****** ****** ****** ****** ****** ******
      ****** ****** ****** ****** ****** ****** ****** ****** ****** ******
   7  ****** ****** ****** ****** ****** ****** ****** ****** ****** ******
      ****** ****** ****** ****** ****** ****** ****** ****** ****** ******
      ****** ****** ****** ****** ****** ****** ****** ****** ****** ******
   8  ****** ****** ****** ****** ****** ****** ****** ****** ****** ******
      ****** ****** ****** ****** ****** ****** ****** ****** ****** ******
      ****** ****** ****** ****** ****** ****** ****** ****** ****** ******
   9  ****** ****** ****** ****** ****** ****** ****** ****** ****** ******
      ****** ****** ****** ****** ****** ****** ****** ****** ****** ******
      ****** ****** ****** ****** ****** ****** ****** ****** ****** ******
  10  ****** ****** ****** ****** ****** ****** ****** ****** ****** ******
      ****** ****** ****** ****** ****** ****** ****** ****** ****** ******
      ****** ****** ****** ****** ****** ****** ****** ****** ****** ******
  11  ****** ****** ****** ****** ****** ****** ****** ****** ****** ******
      ****** ****** ****** ****** ****** ****** ****** ****** ****** ******
      ****** ****** ****** ****** ****** ****** ****** ****** ****** ******
  12  ****** ****** ****** ****** ****** ****** ****** ****** ****** ******
      ****** ****** ****** ****** ****** ****** ****** ****** ****** ******
      ****** ****** ****** ****** ****** ****** ****** ****** ****** ******
  13  ****** ****** ****** ****** ****** ****** ****** ****** ****** ******
      ****** ****** ****** ****** ****** ****** ****** ****** ****** ******
      ****** ****** ****** ****** ****** ****** ****** ****** ****** ******
  14  ****** ****** ****** ****** ****** ****** ****** ****** ****** ******
      ****** ****** ****** ****** ****** ****** ****** ****** ****** ******
      ****** ****** ****** ****** ****** ****** ****** ****** ****** ******
  15  ****** ****** ****** ****** ****** ****** ****** ****** ****** ******
      ****** ****** ****** ****** ****** ****** ****** ****** ****** ******
      ****** ****** ****** ****** ****** ****** ****** ****** ****** ******
  16  ****** ****** ****** ****** ****** ****** ****** ****** ****** ******
      ****** ****** ****** ****** ****** ****** ****** ****** ****** ******
      ****** ****** ****** ****** ****** ****** ****** ****** ****** ******
  17  ****** ****** ****** ****** ****** ****** ****** ****** ****** ******
      ****** ****** ****** ****** ****** ****** ****** ****** ****** ******
      ****** ****** ****** ****** ****** ****** ****** ****** ****** ******
  18  ****** ****** ****** ****** ****** ****** ****** ****** ****** ******
      ****** ****** ****** ****** ****** ****** ****** ****** ****** ******
      ****** ****** ****** ****** ****** ****** ****** ****** ****** ******
  19  ****** ****** ****** ****** ****** ****** ****** ****** ****** ******
      ****** ****** ****** ****** ****** ****** ****** ****** ****** ******
      ****** ****** ****** ****** ****** ****** ****** ****** ****** ******
  20  ****** ****** ****** ****** ****** ****** ****** ****** ****** ******
      ****** ****** ****** ****** ****** ****** ****** ****** ****** ******
      ****** ****** ****** ****** ****** ****** ****** ****** ****** ******
  21  ****** ****** ****** ****** ****** ****** ****** ****** ****** ******
      ****** ****** ****** ****** ****** ****** ****** ****** ****** ******
      ****** ****** ****** ****** ****** ****** ****** ****** ****** ******
  22  ****** ****** ****** ****** ****** ****** ****** ****** ****** ******
      ****** ****** ****** ****** ****** ****** ****** ****** ****** ******
      ****** ****** ****** ****** ****** ****** ****** ****** ****** ******
  23  ****** ****** ****** ****** ****** ****** ****** ****** ****** ******
      ****** ****** ****** ****** ****** ****** ****** ****** ****** ******
      ****** ****** ****** ****** ****** ****** ****** ****** ****** ******
  24  ****** ****** ****** ****** ****** ****** ****** ****** ****** ******
      ****** ****** ****** ****** ****** ****** ****** ****** ****** ******
      ****** ****** ****** ****** ****** ****** ****** ****** ****** ******
  25  ****** ****** ****** ****** ****** ****** ****** ****** ****** ******
      ****** ****** ****** ****** ****** ****** ****** ****** ****** ******
      ****** ****** ****** ****** ****** ****** ****** ****** ****** ******

 HEAD WILL BE SAVED ON UNIT   51 AT END OF TIME STEP    1, STRESS PERIOD   12
1
  VOLUMETRIC BUDGET FOR ENTIRE MODEL AT END OF TIME STEP    1, STRESS PERIOD  12
  ------------------------------------------------------------------------------

     CUMULATIVE VOLUMES      L**3       RATES FOR THIS TIME STEP      L**3/T
     ------------------                 ------------------------

           IN:                                      IN:
           ---                                      ---
             STORAGE =    35956537.4216               STORAGE =          22.5326
       CONSTANT HEAD =    32458775.5606         CONSTANT HEAD =       34945.3798
               WELLS =           0.0000                 WELLS =           0.0000
            RECHARGE =    26413200.0000              RECHARGE =       27600.0000
      STREAM LEAKAGE =     8422095.8607        STREAM LEAKAGE =        9309.1283

            TOTAL IN =   103250608.8429              TOTAL IN =       71877.0407

          OUT:                                     OUT:
          ----                                     ----
             STORAGE =     2584006.8946               STORAGE =        2958.5768
       CONSTANT HEAD =           0.0000         CONSTANT HEAD =           0.0000
               WELLS =    30737503.6738                 WELLS =       28070.7796
            RECHARGE =           0.0000              RECHARGE =           0.0000
      STREAM LEAKAGE =    69929100.3618        STREAM LEAKAGE =       40847.6833

           TOTAL OUT =   103250610.9303             TOTAL OUT =       71877.0398

            IN - OUT =          -2.0873              IN - OUT =       9.7784E-04

 PERCENT DISCREPANCY =          -0.00     PERCENT DISCREPANCY =           0.00






         TIME SUMMARY AT END OF TIME STEP    1 IN STRESS PERIOD   12
                    SECONDS     MINUTES      HOURS       DAYS        YEARS
                    -----------------------------------------------------------
   TIME STEP LENGTH 7.86240E+06 1.31040E+05  2184.0      91.000     0.24914    
 STRESS PERIOD TIME 7.86240E+06 1.31040E+05  2184.0      91.000     0.24914    
         TOTAL TIME 9.46080E+07 1.57680E+06  26280.      1095.0      2.9979    
1

 Run end date and time (yyyy/mm/dd hh:mm:ss): 2019/03/28 21:46:11
 Elapsed run time:  0.111 Seconds

