                                  MODFLOW-2005     
      U.S. GEOLOGICAL SURVEY MODULAR FINITE-DIFFERENCE GROUND-WATER FLOW MODEL
                            VERSION 1.11.00 8/8/2013

 LIST FILE: supply2.lst
                         UNIT   10

 OPENING ..\data\supply.dis
 FILE TYPE:DIS   UNIT   11   STATUS:OLD    
 FORMAT:FORMATTED              ACCESS:SEQUENTIAL          

 OPENING ..\data\supply.ba6
 FILE TYPE:BAS6   UNIT   12   STATUS:OLD    
 FORMAT:FORMATTED              ACCESS:SEQUENTIAL          

 OPENING ..\data\supply_het.bc6
 FILE TYPE:BCF6   UNIT   13   STATUS:OLD    
 FORMAT:FORMATTED              ACCESS:SEQUENTIAL          

 OPENING ..\data\supply.rch
 FILE TYPE:RCH   UNIT   15   STATUS:OLD    
 FORMAT:FORMATTED              ACCESS:SEQUENTIAL          

 OPENING ..\data\supply2.sfr
 FILE TYPE:SFR   UNIT   16   STATUS:OLD    
 FORMAT:FORMATTED              ACCESS:SEQUENTIAL          

 OPENING ..\data\supply.oc
 FILE TYPE:OC   UNIT   17   STATUS:OLD    
 FORMAT:FORMATTED              ACCESS:SEQUENTIAL          

 OPENING ..\data\supply.pcg
 FILE TYPE:PCG   UNIT   18   STATUS:OLD    
 FORMAT:FORMATTED              ACCESS:SEQUENTIAL          

 OPENING supply2.wel
 FILE TYPE:WEL   UNIT   19   STATUS:OLD    
 FORMAT:FORMATTED              ACCESS:SEQUENTIAL          

 OPENING supply2sf.cbc
 FILE TYPE:DATA(BINARY)   UNIT   50   STATUS:UNKNOWN
 FORMAT:BINARY                 ACCESS:SEQUENTIAL          

 OPENING supply2hd.bhd
 FILE TYPE:DATA(BINARY)   UNIT   51   STATUS:UNKNOWN
 FORMAT:BINARY                 ACCESS:SEQUENTIAL          

 BAS -- BASIC PACKAGE, VERSION 7, 5/2/2005 INPUT READ FROM UNIT   12
 
 MODFLOW was compiled using uniform precision
 Precision of REAL and DOUBLE PRECISION variables:          15

 DISCRETIZATION INPUT DATA READ FROM UNIT   11
    1 LAYERS        25 ROWS        30 COLUMNS
   12 STRESS PERIOD(S) IN SIMULATION
 MODEL TIME UNIT IS DAYS
 MODEL LENGTH UNIT IS UNDEFINED
  Confining bed flag for each layer:
   0

                     DELR =   200.000    

                     DELC =   200.000    

 TOP ELEVATION OF LAYER 1 =  100.0000    

   MODEL LAYER BOTTOM EL. =   0.00000     FOR LAYER   1


 STRESS PERIOD     LENGTH       TIME STEPS     MULTIPLIER FOR DELT    SS FLAG
 ----------------------------------------------------------------------------
        1         92.00000          1                    1.500         TR
        2         91.00000          1                    1.500         TR
        3         91.00000          1                    1.500         TR
        4         91.00000          1                    1.500         TR
        5         92.00000          1                    1.500         TR
        6         91.00000          1                    1.500         TR
        7         91.00000          1                    1.500         TR
        8         91.00000          1                    1.500         TR
        9         92.00000          1                    1.500         TR
       10         91.00000          1                    1.500         TR
       11         91.00000          1                    1.500         TR
       12         91.00000          1                    1.500         TR

 TRANSIENT SIMULATION



 
 #MODOFC transient water supply sample problem                                   
 #                                                                               
 THE FREE FORMAT OPTION HAS BEEN SELECTED



                     BOUNDARY ARRAY FOR LAYER   1
 READING ON UNIT   12 WITH FORMAT: (20I4)              

 AQUIFER HEAD WILL BE SET TO   0.0000     AT ALL NO-FLOW NODES (IBOUND=0).



                       INITIAL HEAD FOR LAYER   1
 READING ON UNIT   12 WITH FORMAT: (10F13.0)           

 OUTPUT CONTROL IS SPECIFIED ONLY AT TIME STEPS FOR WHICH OUTPUT IS DESIRED
 COMPACT CELL-BY-CELL BUDGET FILES WILL BE WRITTEN
 HEAD PRINT FORMAT CODE IS  18    DRAWDOWN PRINT FORMAT CODE IS   0
 HEADS WILL BE SAVED ON UNIT   51    DRAWDOWNS WILL BE SAVED ON UNIT    0

 BCF -- BLOCK-CENTERED FLOW PACKAGE, VERSION 7, 5/2/2005
         INPUT READ FROM UNIT 13
 TRANSIENT SIMULATION
 HEAD AT CELLS THAT CONVERT TO DRY=   0.0000    
 WETTING CAPABILITY IS NOT ACTIVE
      LAYER  LAYER-TYPE CODE     INTERBLOCK T
      --------------------------------------------
         1            0          0 -- HARMONIC    

 COLUMN TO ROW ANISOTROPY =  1.000000    

     PRIMARY STORAGE COEF =  5.000000E-02 FOR LAYER   1



               TRANSMIS. ALONG ROWS FOR LAYER   1
 READING ON UNIT   13 WITH FORMAT: (FREE)              

 WEL -- WELL PACKAGE, VERSION 7, 5/2/2005 INPUT READ FROM UNIT   19
 # Well package input file written by MMProc
 No named parameters
 MAXIMUM OF      4 ACTIVE WELLS AT ONE TIME


     0 Well parameters

 RCH -- RECHARGE PACKAGE, VERSION 7, 5/2/2005 INPUT READ FROM UNIT   15
 No named parameters
 OPTION 1 -- RECHARGE TO TOP LAYER


     0 Recharge parameters

 SFR7 -- STREAMFLOW ROUTING PACKAGE, VERSION 1.0.7, 2013-01-15
         INPUT READ FROM UNIT  16
 #  Supply2 test problem for GWM-VI
 #  The eighth entry in the first data line is ISTCB2 -
 #    Setting this to a negative number indicates that
 #    streamflows out of the reach will be saved to a
 #    binary file.  The absolute value of ISTCB2 is the
 #    unit to which unformatted flows will be written.
 #
 No named parameters
 Segment information will not be 
 read by reach
 No named parameters
 No specifed inflow files


 NUMBER OF STREAM REACHES IS   40

 NUMBER OF STREAM SEGMENTS IS    3

 NUMBER OF STREAM PARAMETERS IS    0

 NUMBER OF STREAM SEGMENTS DEFINED USING PARAMETERS IS              0

 MAXIMUM ERROR FOR STREAM LEAKAGE RATES IS  1.00E-04

 CONSTANT FOR MANNINGS EQUATION IS  1.2839E+05





   STREAM NETWORK DESCRIPTION: 

   LAYER    ROW    COL   SEGMENT   REACH     LENGTH
                          NUMBER   NUMBER    IN CELL        
   --------------------------------------------------
      1     13      1       1        1    2.0000E+02
      1     13      2       1        2    2.0000E+02
      1     14      3       1        3    2.0000E+02
      1     15      4       1        4    2.0000E+02
      1     16      5       1        5    2.0000E+02
      1     16      6       1        6    2.0000E+02
      1     16      7       1        7    2.0000E+02
      1     16      8       1        8    2.0000E+02
      1     16      9       1        9    2.0000E+02
      1     16     10       1       10    2.0000E+02
      1     16     11       1       11    2.0000E+02
      1     16     12       1       12    2.0000E+02
      1     15     13       1       13    2.0000E+02
      1     14     14       1       14    2.0000E+02
      1     13     15       1       15    2.0000E+02
      1     12     16       1       16    2.0000E+02
      1     12     17       1       17    2.0000E+02
      1     12     18       1       18    2.0000E+02
      1     12     19       1       19    2.0000E+02
      1     13     20       1       20    2.0000E+02
      1     14     21       1       21    2.0000E+02
      1     14     22       1       22    2.0000E+02
      1      9     30       2        1    2.0000E+02
      1      9     29       2        2    2.0000E+02
      1      9     28       2        3    2.0000E+02
      1      9     27       2        4    2.0000E+02
      1     10     26       2        5    2.0000E+02
      1     11     25       2        6    2.0000E+02
      1     12     24       2        7    2.0000E+02
      1     13     23       2        8    2.0000E+02
      1     14     22       2        9    2.0000E+02
      1     14     22       3        1    2.0000E+02
      1     15     23       3        2    2.0000E+02
      1     15     24       3        3    2.0000E+02
      1     15     25       3        4    2.0000E+02
      1     15     26       3        5    2.0000E+02
      1     16     27       3        6    2.0000E+02
      1     17     28       3        7    2.0000E+02
      1     18     29       3        8    2.0000E+02
      1     18     30       3        9    2.0000E+02




 PCG -- CONJUGATE-GRADIENT SOLUTION PACKAGE, VERSION 7, 5/2/2005
 MAXIMUM OF    500 CALLS OF SOLUTION ROUTINE
 MAXIMUM OF      5 INTERNAL ITERATIONS PER CALL TO SOLUTION ROUTINE
 MATRIX PRECONDITIONING TYPE :    1



                                    SOLUTION BY THE CONJUGATE-GRADIENT METHOD
                                   -------------------------------------------
                    MAXIMUM NUMBER OF CALLS TO PCG ROUTINE =      500
                        MAXIMUM ITERATIONS PER CALL TO PCG =        5
                               MATRIX PRECONDITIONING TYPE =        1
        RELAXATION FACTOR (ONLY USED WITH PRECOND. TYPE 1) =    0.10000E+01
 PARAMETER OF POLYNOMIAL PRECOND. = 2 (2) OR IS CALCULATED :        0
                         HEAD CHANGE CRITERION FOR CLOSURE =    0.10000E-05
                     RESIDUAL CHANGE CRITERION FOR CLOSURE =    0.10000E+01
            PCG HEAD AND RESIDUAL CHANGE PRINTOUT INTERVAL =        1
     PRINTING FROM SOLVER IS LIMITED(1) OR SUPPRESSED (>1) =        1
                            STEADY-STATE DAMPING PARAMETER =    0.10000E+01
                               TRANSIENT DAMPING PARAMETER =    0.10000E+01
1
                            STRESS PERIOD NO.    1, LENGTH =   92.00000    
                            -----------------------------------------------

                              NUMBER OF TIME STEPS =     1

                               MULTIPLIER FOR DELT =     1.500

                            INITIAL TIME STEP SIZE =   92.00000    

 WELL NO.  LAYER   ROW   COL   STRESS RATE         
 --------------------------------------------------
      1      1     11     18      -9961.    
      2      1      5     20     -0.1016E+05
      3      1     11     16      -434.0    
      4      1     11     19      -9596.    

      4 WELLS

                 RECHARGE =  5.000000E-04



 CLASSIFICATION & COUNT OF STREAM SEGMENTS BASED ON SOURCE OF INFLOW:

                HEADWATER     DIVERSION     RECEIVES TRIBUTARY FLOW
                ---------     ---------     -----------------------
                     2              0               1



                    INPUT DATA FOR EACH STREAM SEGMENT
 ---------------------------------------------------------------------------------------------

 SEGMENT    SEG.     INFLOW   OVERLAND   STREAM    STREAM   ICALC  OUTFLOW  DIVERSION PRIORITY
    NO.    LENGTH     RATE     RUNOFF      ET       PPT.    METH.  TO SEG.  FROM SEG.    NO.

      1  4.400E+03 1.000E+05 0.000E+00 0.000E+00 0.000E+00    1        3        0        0
      2  1.800E+03 5.000E+04 0.000E+00 0.000E+00 0.000E+00    1        3        0        0
      3  1.800E+03 0.000E+00 0.000E+00 0.000E+00 0.000E+00    1        0        0        0


         STREAMBED PROPERTIES AND STREAM DIMENSIONS

 SEGMENT     BED HYD. COND.      BED THICKNESS     ELEV.-TOP OF BED     WIDTH OF STREAM     DEPTH OF STREAM    STREAM ROUGHNESS
    No.     UPPER     LOWER     UPPER     LOWER     UPPER     LOWER     UPPER     LOWER     UPPER     LOWER   CHANNEL      BANK

     1  5.000E+00 5.000E+00 1.000E+00 1.000E+00 4.850E+01 3.800E+01 2.000E+01 2.000E+01                     5.000E-02
     2  5.000E+00 5.000E+00 1.000E+00 1.000E+00 4.025E+01 3.800E+01 2.000E+01 2.000E+01                     5.000E-02
     3  5.000E+00 5.000E+00 1.000E+00 1.000E+00 3.800E+01 3.000E+01 2.000E+01 2.000E+01                     5.000E-02



 
 SOLVING FOR HEAD 


     9 CALLS TO PCG ROUTINE FOR TIME STEP   1 IN STRESS PERIOD    1
    36 TOTAL ITERATIONS

 OUTPUT CONTROL FOR STRESS PERIOD    1   TIME STEP    1
    SAVE BUDGET
    SAVE HEAD FOR ALL LAYERS
    PRINT HEAD FOR ALL LAYERS
 UBDSV2 SAVING "STREAMFLOW OUT  " ON UNIT  50 AT TIME STEP  1, STRESS PERIOD   1



 STREAM LISTING     PERIOD      1   STEP        1

 LAYER ROW COL. STREAM  RCH.  FLOW INTO     FLOW TO   FLOW OUT OF   OVRLND.     DIRECT     STREAM       STREAM     STREAM     STREAM   STREAMBED  STREAMBED
                SEG.NO.  NO.  STRM. RCH.    AQUIFER    STRM. RCH.    RUNOFF     PRECIP       ET          HEAD       DEPTH      WIDTH   CONDCTNC.   GRADIENT

   1   13    1     1     1    1.0000E+05 -6.1172E+03   1.0612E+05  0.000E+00  0.000E+00  0.000E+00  4.84087E+01  1.473E-01  2.000E+01  2.000E+04 -3.059E-01
   1   13    2     1     2    1.0612E+05 -7.5865E+03   1.1370E+05  0.000E+00  0.000E+00  0.000E+00  4.79372E+01  1.531E-01  2.000E+01  2.000E+04 -3.793E-01
   1   14    3     1     3    1.1370E+05 -2.1988E+03   1.1590E+05  0.000E+00  0.000E+00  0.000E+00  4.74640E+01  1.571E-01  2.000E+01  2.000E+04 -1.099E-01
   1   15    4     1     4    1.1590E+05 -2.2703E+03   1.1817E+05  0.000E+00  0.000E+00  0.000E+00  4.69885E+01  1.590E-01  2.000E+01  2.000E+04 -1.135E-01
   1   16    5     1     5    1.1817E+05 -7.1870E+03   1.2536E+05  0.000E+00  0.000E+00  0.000E+00  4.65151E+01  1.628E-01  2.000E+01  2.000E+04 -3.593E-01
   1   16    6     1     6    1.2536E+05 -4.3051E+03   1.2966E+05  0.000E+00  0.000E+00  0.000E+00  4.60424E+01  1.674E-01  2.000E+01  2.000E+04 -2.153E-01
   1   16    7     1     7    1.2966E+05 -4.1404E+03   1.3381E+05  0.000E+00  0.000E+00  0.000E+00  4.55684E+01  1.707E-01  2.000E+01  2.000E+04 -2.070E-01
   1   16    8     1     8    1.3381E+05 -4.1000E+03   1.3791E+05  0.000E+00  0.000E+00  0.000E+00  4.50943E+01  1.738E-01  2.000E+01  2.000E+04 -2.050E-01
   1   16    9     1     9    1.3791E+05 -4.0900E+03   1.4200E+05  0.000E+00  0.000E+00  0.000E+00  4.46202E+01  1.770E-01  2.000E+01  2.000E+04 -2.045E-01
   1   16   10     1    10    1.4200E+05 -4.0881E+03   1.4608E+05  0.000E+00  0.000E+00  0.000E+00  4.41460E+01  1.801E-01  2.000E+01  2.000E+04 -2.044E-01
   1   16   11     1    11    1.4608E+05 -4.1243E+03   1.5021E+05  0.000E+00  0.000E+00  0.000E+00  4.36718E+01  1.831E-01  2.000E+01  2.000E+04 -2.062E-01
   1   16   12     1    12    1.5021E+05 -6.9980E+03   1.5721E+05  0.000E+00  0.000E+00  0.000E+00  4.31986E+01  1.872E-01  2.000E+01  2.000E+04 -3.499E-01
   1   15   13     1    13    1.5721E+05 -7.2672E+03   1.6447E+05  0.000E+00  0.000E+00  0.000E+00  4.27265E+01  1.924E-01  2.000E+01  2.000E+04 -3.634E-01
   1   14   14     1    14    1.6447E+05 -7.6855E+03   1.7216E+05  0.000E+00  0.000E+00  0.000E+00  4.22545E+01  1.977E-01  2.000E+01  2.000E+04 -3.843E-01
   1   13   15     1    15    1.7216E+05 -7.8343E+03   1.7999E+05  0.000E+00  0.000E+00  0.000E+00  4.17827E+01  2.031E-01  2.000E+01  2.000E+04 -3.917E-01
   1   12   16     1    16    1.7999E+05 -7.5187E+03   1.8751E+05  0.000E+00  0.000E+00  0.000E+00  4.13107E+01  2.084E-01  2.000E+01  2.000E+04 -3.759E-01
   1   12   17     1    17    1.8751E+05 -4.2589E+03   1.9177E+05  0.000E+00  0.000E+00  0.000E+00  4.08374E+01  2.124E-01  2.000E+01  2.000E+04 -2.129E-01
   1   12   18     1    18    1.9177E+05 -1.3577E+03   1.9313E+05  0.000E+00  0.000E+00  0.000E+00  4.03620E+01  2.142E-01  2.000E+01  2.000E+04 -6.788E-02
   1   12   19     1    19    1.9313E+05 -2.2692E+03   1.9540E+05  0.000E+00  0.000E+00  0.000E+00  3.98859E+01  2.155E-01  2.000E+01  2.000E+04 -1.135E-01
   1   13   20     1    20    1.9540E+05 -5.8187E+03   2.0122E+05  0.000E+00  0.000E+00  0.000E+00  3.94113E+01  2.181E-01  2.000E+01  2.000E+04 -2.909E-01
   1   14   21     1    21    2.0122E+05 -6.1942E+03   2.0741E+05  0.000E+00  0.000E+00  0.000E+00  3.89380E+01  2.221E-01  2.000E+01  2.000E+04 -3.097E-01
   1   14   22     1    22    2.0741E+05  3.6646E+03   2.0375E+05  0.000E+00  0.000E+00  0.000E+00  3.84615E+01  2.229E-01  2.000E+01  2.000E+04  1.832E-01
   1    9   30     2     1    5.0000E+04 -4.7665E+03   5.4767E+04  0.000E+00  0.000E+00  0.000E+00  4.02441E+01  1.191E-01  2.000E+01  2.000E+04 -2.383E-01
   1    9   29     2     2    5.4767E+04 -5.0459E+03   5.9812E+04  0.000E+00  0.000E+00  0.000E+00  4.00007E+01  1.257E-01  2.000E+01  2.000E+04 -2.523E-01
   1    9   28     2     3    5.9812E+04 -5.2889E+03   6.5101E+04  0.000E+00  0.000E+00  0.000E+00  3.97574E+01  1.324E-01  2.000E+01  2.000E+04 -2.644E-01
   1    9   27     2     4    6.5101E+04 -7.8910E+03   7.2992E+04  0.000E+00  0.000E+00  0.000E+00  3.95156E+01  1.406E-01  2.000E+01  2.000E+04 -3.945E-01
   1   10   26     2     5    7.2992E+04 -6.9121E+03   7.9904E+04  0.000E+00  0.000E+00  0.000E+00  3.92745E+01  1.495E-01  2.000E+01  2.000E+04 -3.456E-01
   1   11   25     2     6    7.9904E+04 -6.3045E+03   8.6209E+04  0.000E+00  0.000E+00  0.000E+00  3.90321E+01  1.571E-01  2.000E+01  2.000E+04 -3.152E-01
   1   12   24     2     7    8.6209E+04 -5.7010E+03   9.1910E+04  0.000E+00  0.000E+00  0.000E+00  3.87888E+01  1.638E-01  2.000E+01  2.000E+04 -2.850E-01
   1   13   23     2     8    9.1910E+04 -1.5416E+03   9.3451E+04  0.000E+00  0.000E+00  0.000E+00  3.85428E+01  1.678E-01  2.000E+01  2.000E+04 -7.708E-02
   1   14   22     2     9    9.3451E+04  3.0309E+02   9.3148E+04  0.000E+00  0.000E+00  0.000E+00  3.82935E+01  1.685E-01  2.000E+01  2.000E+04  1.515E-02
   1   14   22     3     1    2.9689E+05 -9.7975E+03   3.0669E+05  0.000E+00  0.000E+00  0.000E+00  3.77884E+01  2.329E-01  2.000E+01  2.000E+04 -4.899E-01
   1   15   23     3     2    3.0669E+05 -1.9886E+03   3.0868E+05  0.000E+00  0.000E+00  0.000E+00  3.69023E+01  2.356E-01  2.000E+01  2.000E+04 -9.943E-02
   1   15   24     3     3    3.0868E+05 -1.5301E+03   3.1021E+05  0.000E+00  0.000E+00  0.000E+00  3.60142E+01  2.364E-01  2.000E+01  2.000E+04 -7.651E-02
   1   15   25     3     4    3.1021E+05 -1.5797E+03   3.1179E+05  0.000E+00  0.000E+00  0.000E+00  3.51260E+01  2.371E-01  2.000E+01  2.000E+04 -7.898E-02
   1   15   26     3     5    3.1179E+05 -1.8831E+03   3.1367E+05  0.000E+00  0.000E+00  0.000E+00  3.42379E+01  2.379E-01  2.000E+01  2.000E+04 -9.415E-02
   1   16   27     3     6    3.1367E+05 -2.1649E+03   3.1584E+05  0.000E+00  0.000E+00  0.000E+00  3.33499E+01  2.388E-01  2.000E+01  2.000E+04 -1.082E-01
   1   17   28     3     7    3.1584E+05 -6.5809E+03   3.2242E+05  0.000E+00  0.000E+00  0.000E+00  3.24630E+01  2.408E-01  2.000E+01  2.000E+04 -3.290E-01
   1   18   29     3     8    3.2242E+05 -7.9956E+03   3.3041E+05  0.000E+00  0.000E+00  0.000E+00  3.15774E+01  2.441E-01  2.000E+01  2.000E+04 -3.998E-01
   1   18   30     3     9    3.3041E+05 -7.1755E+03   3.3759E+05  0.000E+00  0.000E+00  0.000E+00  3.06919E+01  2.475E-01  2.000E+01  2.000E+04 -3.588E-01



1
              HEAD IN LAYER   1 AT END OF TIME STEP   1 IN STRESS PERIOD    1
  ---------------------------------------------------------------------------

          1      2      3      4      5      6      7      8      9     10
         11     12     13     14     15     16     17     18     19     20
         21     22     23     24     25     26     27     28     29     30
 .........................................................................
   1  ****** ****** ****** ****** ****** ****** ****** ****** ****** ******
      ****** ****** ****** ****** ****** ****** ****** ****** ****** ******
      ****** ****** ****** ****** ****** ****** ****** ****** ****** ******
   2  ****** ****** ****** ****** ****** ****** ****** ****** ****** ******
      ****** ****** ****** ****** ****** ****** ****** ****** ****** ******
      ****** ****** ****** ****** ****** ****** ****** ****** ****** ******
   3  ****** ****** ****** ****** ****** ****** ****** ****** ****** ******
      ****** ****** ****** ****** ****** ****** ****** ****** ****** ******
      ****** ****** ****** ****** ****** ****** ****** ****** ****** ******
   4  ****** ****** ****** ****** ****** ****** ****** ****** ****** ******
      ****** ****** ****** ****** ****** ****** ****** ****** ****** ******
      ****** ****** ****** ****** ****** ****** ****** ****** ****** ******
   5  ****** ****** ****** ****** ****** ****** ****** ****** ****** ******
      ****** ****** ****** ****** ****** ****** ****** ****** ****** ******
      ****** ****** ****** ****** ****** ****** ****** ****** ****** ******
   6  ****** ****** ****** ****** ****** ****** ****** ****** ****** ******
      ****** ****** ****** ****** ****** ****** ****** ****** ****** ******
      ****** ****** ****** ****** ****** ****** ****** ****** ****** ******
   7  ****** ****** ****** ****** ****** ****** ****** ****** ****** ******
      ****** ****** ****** ****** ****** ****** ****** ****** ****** ******
      ****** ****** ****** ****** ****** ****** ****** ****** ****** ******
   8  ****** ****** ****** ****** ****** ****** ****** ****** ****** ******
      ****** ****** ****** ****** ****** ****** ****** ****** ****** ******
      ****** ****** ****** ****** ****** ****** ****** ****** ****** ******
   9  ****** ****** ****** ****** ****** ****** ****** ****** ****** ******
      ****** ****** ****** ****** ****** ****** ****** ****** ****** ******
      ****** ****** ****** ****** ****** ****** ****** ****** ****** ******
  10  ****** ****** ****** ****** ****** ****** ****** ****** ****** ******
      ****** ****** ****** ****** ****** ****** ****** ****** ****** ******
      ****** ****** ****** ****** ****** ****** ****** ****** ****** ******
  11  ****** ****** ****** ****** ****** ****** ****** ****** ****** ******
      ****** ****** ****** ****** ****** ****** ****** ****** ****** ******
      ****** ****** ****** ****** ****** ****** ****** ****** ****** ******
  12  ****** ****** ****** ****** ****** ****** ****** ****** ****** ******
      ****** ****** ****** ****** ****** ****** ****** ****** ****** ******
      ****** ****** ****** ****** ****** ****** ****** ****** ****** ******
  13  ****** ****** ****** ****** ****** ****** ****** ****** ****** ******
      ****** ****** ****** ****** ****** ****** ****** ****** ****** ******
      ****** ****** ****** ****** ****** ****** ****** ****** ****** ******
  14  ****** ****** ****** ****** ****** ****** ****** ****** ****** ******
      ****** ****** ****** ****** ****** ****** ****** ****** ****** ******
      ****** ****** ****** ****** ****** ****** ****** ****** ****** ******
  15  ****** ****** ****** ****** ****** ****** ****** ****** ****** ******
      ****** ****** ****** ****** ****** ****** ****** ****** ****** ******
      ****** ****** ****** ****** ****** ****** ****** ****** ****** ******
  16  ****** ****** ****** ****** ****** ****** ****** ****** ****** ******
      ****** ****** ****** ****** ****** ****** ****** ****** ****** ******
      ****** ****** ****** ****** ****** ****** ****** ****** ****** ******
  17  ****** ****** ****** ****** ****** ****** ****** ****** ****** ******
      ****** ****** ****** ****** ****** ****** ****** ****** ****** ******
      ****** ****** ****** ****** ****** ****** ****** ****** ****** ******
  18  ****** ****** ****** ****** ****** ****** ****** ****** ****** ******
      ****** ****** ****** ****** ****** ****** ****** ****** ****** ******
      ****** ****** ****** ****** ****** ****** ****** ****** ****** ******
  19  ****** ****** ****** ****** ****** ****** ****** ****** ****** ******
      ****** ****** ****** ****** ****** ****** ****** ****** ****** ******
      ****** ****** ****** ****** ****** ****** ****** ****** ****** ******
  20  ****** ****** ****** ****** ****** ****** ****** ****** ****** ******
      ****** ****** ****** ****** ****** ****** ****** ****** ****** ******
      ****** ****** ****** ****** ****** ****** ****** ****** ****** ******
  21  ****** ****** ****** ****** ****** ****** ****** ****** ****** ******
      ****** ****** ****** ****** ****** ****** ****** ****** ****** ******
      ****** ****** ****** ****** ****** ****** ****** ****** ****** ******
  22  ****** ****** ****** ****** ****** ****** ****** ****** ****** ******
      ****** ****** ****** ****** ****** ****** ****** ****** ****** ******
      ****** ****** ****** ****** ****** ****** ****** ****** ****** ******
  23  ****** ****** ****** ****** ****** ****** ****** ****** ****** ******
      ****** ****** ****** ****** ****** ****** ****** ****** ****** ******
      ****** ****** ****** ****** ****** ****** ****** ****** ****** ******
  24  ****** ****** ****** ****** ****** ****** ****** ****** ****** ******
      ****** ****** ****** ****** ****** ****** ****** ****** ****** ******
      ****** ****** ****** ****** ****** ****** ****** ****** ****** ******
  25  ****** ****** ****** ****** ****** ****** ****** ****** ****** ******
      ****** ****** ****** ****** ****** ****** ****** ****** ****** ******
      ****** ****** ****** ****** ****** ****** ****** ****** ****** ******

 HEAD WILL BE SAVED ON UNIT   51 AT END OF TIME STEP    1, STRESS PERIOD    1
1
  VOLUMETRIC BUDGET FOR ENTIRE MODEL AT END OF TIME STEP    1, STRESS PERIOD   1
  ------------------------------------------------------------------------------

     CUMULATIVE VOLUMES      L**3       RATES FOR THIS TIME STEP      L**3/T
     ------------------                 ------------------------

           IN:                                      IN:
           ---                                      ---
             STORAGE =    17599361.6903               STORAGE =      191297.4097
       CONSTANT HEAD =     1163072.7010         CONSTANT HEAD =       12642.0946
               WELLS =           0.0000                 WELLS =           0.0000
            RECHARGE =     1269600.0000              RECHARGE =       13800.0000
      STREAM LEAKAGE =      365025.9045        STREAM LEAKAGE =        3967.6729

            TOTAL IN =    20397060.2958              TOTAL IN =      221707.1771

          OUT:                                     OUT:
          ----                                     ----
             STORAGE =           0.0000               STORAGE =           0.0000
       CONSTANT HEAD =           0.0000         CONSTANT HEAD =           0.0000
               WELLS =     2773772.6460                 WELLS =       30149.7027
            RECHARGE =           0.0000              RECHARGE =           0.0000
      STREAM LEAKAGE =    17623287.9389        STREAM LEAKAGE =      191557.4776

           TOTAL OUT =    20397060.5850             TOTAL OUT =      221707.1803

            IN - OUT =          -0.2892              IN - OUT =      -3.1431E-03

 PERCENT DISCREPANCY =          -0.00     PERCENT DISCREPANCY =          -0.00






         TIME SUMMARY AT END OF TIME STEP    1 IN STRESS PERIOD    1
                    SECONDS     MINUTES      HOURS       DAYS        YEARS
                    -----------------------------------------------------------
   TIME STEP LENGTH 7.94880E+06 1.32480E+05  2208.0      92.000     0.25188    
 STRESS PERIOD TIME 7.94880E+06 1.32480E+05  2208.0      92.000     0.25188    
         TOTAL TIME 7.94880E+06 1.32480E+05  2208.0      92.000     0.25188    
1
1
                            STRESS PERIOD NO.    2, LENGTH =   91.00000    
                            -----------------------------------------------

                              NUMBER OF TIME STEPS =     1

                               MULTIPLIER FOR DELT =     1.500

                            INITIAL TIME STEP SIZE =   91.00000    

 WELL NO.  LAYER   ROW   COL   STRESS RATE         
 --------------------------------------------------
      1      1     11     18      -9961.    
      2      1      5     20     -0.1016E+05
      3      1     11     16      -434.0    
      4      1     11     19      -9596.    

      4 WELLS

                 RECHARGE =  2.000000E-03

 REUSING STREAM SEGMENT DATA FROM LAST STRESS PERIOD
 
 SOLVING FOR HEAD 


     7 CALLS TO PCG ROUTINE FOR TIME STEP   1 IN STRESS PERIOD    2
    27 TOTAL ITERATIONS

 OUTPUT CONTROL FOR STRESS PERIOD    2   TIME STEP    1
    SAVE BUDGET
    SAVE HEAD FOR ALL LAYERS
    PRINT HEAD FOR ALL LAYERS
 UBDSV2 SAVING "STREAMFLOW OUT  " ON UNIT  50 AT TIME STEP  1, STRESS PERIOD   2



 STREAM LISTING     PERIOD      2   STEP        1

 LAYER ROW COL. STREAM  RCH.  FLOW INTO     FLOW TO   FLOW OUT OF   OVRLND.     DIRECT     STREAM       STREAM     STREAM     STREAM   STREAMBED  STREAMBED
                SEG.NO.  NO.  STRM. RCH.    AQUIFER    STRM. RCH.    RUNOFF     PRECIP       ET          HEAD       DEPTH      WIDTH   CONDCTNC.   GRADIENT

   1   13    1     1     1    1.0000E+05 -3.9927E+03   1.0399E+05  0.000E+00  0.000E+00  0.000E+00  4.84077E+01  1.464E-01  2.000E+01  2.000E+04 -1.996E-01
   1   13    2     1     2    1.0399E+05 -5.2539E+03   1.0925E+05  0.000E+00  0.000E+00  0.000E+00  4.79344E+01  1.503E-01  2.000E+01  2.000E+04 -2.627E-01
   1   14    3     1     3    1.0925E+05 -1.1156E+03   1.1036E+05  0.000E+00  0.000E+00  0.000E+00  4.74598E+01  1.530E-01  2.000E+01  2.000E+04 -5.578E-02
   1   15    4     1     4    1.1036E+05 -1.1441E+03   1.1151E+05  0.000E+00  0.000E+00  0.000E+00  4.69835E+01  1.539E-01  2.000E+01  2.000E+04 -5.721E-02
   1   16    5     1     5    1.1151E+05 -4.2599E+03   1.1577E+05  0.000E+00  0.000E+00  0.000E+00  4.65085E+01  1.562E-01  2.000E+01  2.000E+04 -2.130E-01
   1   16    6     1     6    1.1577E+05 -2.5120E+03   1.1828E+05  0.000E+00  0.000E+00  0.000E+00  4.60340E+01  1.590E-01  2.000E+01  2.000E+04 -1.256E-01
   1   16    7     1     7    1.1828E+05 -2.4185E+03   1.2070E+05  0.000E+00  0.000E+00  0.000E+00  4.55587E+01  1.610E-01  2.000E+01  2.000E+04 -1.209E-01
   1   16    8     1     8    1.2070E+05 -2.3904E+03   1.2309E+05  0.000E+00  0.000E+00  0.000E+00  4.50834E+01  1.629E-01  2.000E+01  2.000E+04 -1.195E-01
   1   16    9     1     9    1.2309E+05 -2.3710E+03   1.2546E+05  0.000E+00  0.000E+00  0.000E+00  4.46080E+01  1.648E-01  2.000E+01  2.000E+04 -1.186E-01
   1   16   10     1    10    1.2546E+05 -2.3484E+03   1.2781E+05  0.000E+00  0.000E+00  0.000E+00  4.41326E+01  1.667E-01  2.000E+01  2.000E+04 -1.174E-01
   1   16   11     1    11    1.2781E+05 -2.3565E+03   1.3016E+05  0.000E+00  0.000E+00  0.000E+00  4.36572E+01  1.685E-01  2.000E+01  2.000E+04 -1.178E-01
   1   16   12     1    12    1.3016E+05 -4.1276E+03   1.3429E+05  0.000E+00  0.000E+00  0.000E+00  4.31824E+01  1.710E-01  2.000E+01  2.000E+04 -2.064E-01
   1   15   13     1    13    1.3429E+05 -4.0205E+03   1.3831E+05  0.000E+00  0.000E+00  0.000E+00  4.27083E+01  1.742E-01  2.000E+01  2.000E+04 -2.010E-01
   1   14   14     1    14    1.3831E+05 -4.2843E+03   1.4260E+05  0.000E+00  0.000E+00  0.000E+00  4.22342E+01  1.774E-01  2.000E+01  2.000E+04 -2.142E-01
   1   13   15     1    15    1.4260E+05 -4.3747E+03   1.4697E+05  0.000E+00  0.000E+00  0.000E+00  4.17602E+01  1.806E-01  2.000E+01  2.000E+04 -2.187E-01
   1   12   16     1    16    1.4697E+05 -4.0647E+03   1.5103E+05  0.000E+00  0.000E+00  0.000E+00  4.12860E+01  1.838E-01  2.000E+01  2.000E+04 -2.032E-01
   1   12   17     1    17    1.5103E+05 -1.4936E+03   1.5253E+05  0.000E+00  0.000E+00  0.000E+00  4.08108E+01  1.858E-01  2.000E+01  2.000E+04 -7.468E-02
   1   12   18     1    18    1.5253E+05  1.4774E+03   1.5105E+05  0.000E+00  0.000E+00  0.000E+00  4.03335E+01  1.858E-01  2.000E+01  2.000E+04  7.387E-02
   1   12   19     1    19    1.5105E+05  1.3366E+03   1.4971E+05  0.000E+00  0.000E+00  0.000E+00  3.98552E+01  1.848E-01  2.000E+01  2.000E+04  6.683E-02
   1   13   20     1    20    1.4971E+05 -2.5266E+03   1.5224E+05  0.000E+00  0.000E+00  0.000E+00  3.93784E+01  1.852E-01  2.000E+01  2.000E+04 -1.263E-01
   1   14   21     1    21    1.5224E+05 -3.4455E+03   1.5569E+05  0.000E+00  0.000E+00  0.000E+00  3.89033E+01  1.874E-01  2.000E+01  2.000E+04 -1.723E-01
   1   14   22     1    22    1.5569E+05  4.4340E+03   1.5125E+05  0.000E+00  0.000E+00  0.000E+00  3.84257E+01  1.870E-01  2.000E+01  2.000E+04  2.217E-01
   1    9   30     2     1    5.0000E+04 -1.9769E+03   5.1977E+04  0.000E+00  0.000E+00  0.000E+00  4.02422E+01  1.172E-01  2.000E+01  2.000E+04 -9.885E-02
   1    9   29     2     2    5.1977E+04 -2.2608E+03   5.4238E+04  0.000E+00  0.000E+00  0.000E+00  3.99951E+01  1.201E-01  2.000E+01  2.000E+04 -1.130E-01
   1    9   28     2     3    5.4238E+04 -2.4978E+03   5.6736E+04  0.000E+00  0.000E+00  0.000E+00  3.97483E+01  1.233E-01  2.000E+01  2.000E+04 -1.249E-01
   1    9   27     2     4    5.6736E+04 -4.1862E+03   6.0922E+04  0.000E+00  0.000E+00  0.000E+00  3.95027E+01  1.277E-01  2.000E+01  2.000E+04 -2.093E-01
   1   10   26     2     5    6.0922E+04 -3.0935E+03   6.4015E+04  0.000E+00  0.000E+00  0.000E+00  3.92574E+01  1.324E-01  2.000E+01  2.000E+04 -1.547E-01
   1   11   25     2     6    6.4015E+04 -2.6433E+03   6.6659E+04  0.000E+00  0.000E+00  0.000E+00  3.90110E+01  1.360E-01  2.000E+01  2.000E+04 -1.322E-01
   1   12   24     2     7    6.6659E+04 -2.3827E+03   6.9041E+04  0.000E+00  0.000E+00  0.000E+00  3.87642E+01  1.392E-01  2.000E+01  2.000E+04 -1.191E-01
   1   13   23     2     8    6.9041E+04 -4.6181E+02   6.9503E+04  0.000E+00  0.000E+00  0.000E+00  3.85159E+01  1.409E-01  2.000E+01  2.000E+04 -2.309E-02
   1   14   22     2     9    6.9503E+04  1.2290E+03   6.8274E+04  0.000E+00  0.000E+00  0.000E+00  3.82654E+01  1.404E-01  2.000E+01  2.000E+04  6.145E-02
   1   14   22     3     1    2.1953E+05 -9.0731E+03   2.2860E+05  0.000E+00  0.000E+00  0.000E+00  3.77503E+01  1.948E-01  2.000E+01  2.000E+04 -4.537E-01
   1   15   23     3     2    2.2860E+05 -1.0545E+03   2.2965E+05  0.000E+00  0.000E+00  0.000E+00  3.68641E+01  1.974E-01  2.000E+01  2.000E+04 -5.273E-02
   1   15   24     3     3    2.2965E+05 -6.6545E+02   2.3032E+05  0.000E+00  0.000E+00  0.000E+00  3.59756E+01  1.978E-01  2.000E+01  2.000E+04 -3.327E-02
   1   15   25     3     4    2.3032E+05 -6.7148E+02   2.3099E+05  0.000E+00  0.000E+00  0.000E+00  3.50871E+01  1.982E-01  2.000E+01  2.000E+04 -3.357E-02
   1   15   26     3     5    2.3099E+05 -7.7308E+02   2.3176E+05  0.000E+00  0.000E+00  0.000E+00  3.41986E+01  1.986E-01  2.000E+01  2.000E+04 -3.865E-02
   1   16   27     3     6    2.3176E+05 -8.9896E+02   2.3266E+05  0.000E+00  0.000E+00  0.000E+00  3.33101E+01  1.990E-01  2.000E+01  2.000E+04 -4.495E-02
   1   17   28     3     7    2.3266E+05 -3.2597E+03   2.3592E+05  0.000E+00  0.000E+00  0.000E+00  3.24223E+01  2.001E-01  2.000E+01  2.000E+04 -1.630E-01
   1   18   29     3     8    2.3592E+05 -5.0587E+03   2.4098E+05  0.000E+00  0.000E+00  0.000E+00  3.15355E+01  2.022E-01  2.000E+01  2.000E+04 -2.529E-01
   1   18   30     3     9    2.4098E+05 -4.6864E+03   2.4567E+05  0.000E+00  0.000E+00  0.000E+00  3.06491E+01  2.047E-01  2.000E+01  2.000E+04 -2.343E-01



1
              HEAD IN LAYER   1 AT END OF TIME STEP   1 IN STRESS PERIOD    2
  ---------------------------------------------------------------------------

          1      2      3      4      5      6      7      8      9     10
         11     12     13     14     15     16     17     18     19     20
         21     22     23     24     25     26     27     28     29     30
 .........................................................................
   1  ****** ****** ****** ****** ****** ****** ****** ****** ****** ******
      ****** ****** ****** ****** ****** ****** ****** ****** ****** ******
      ****** ****** ****** ****** ****** ****** ****** ****** ****** ******
   2  ****** ****** ****** ****** ****** ****** ****** ****** ****** ******
      ****** ****** ****** ****** ****** ****** ****** ****** ****** ******
      ****** ****** ****** ****** ****** ****** ****** ****** ****** ******
   3  ****** ****** ****** ****** ****** ****** ****** ****** ****** ******
      ****** ****** ****** ****** ****** ****** ****** ****** ****** ******
      ****** ****** ****** ****** ****** ****** ****** ****** ****** ******
   4  ****** ****** ****** ****** ****** ****** ****** ****** ****** ******
      ****** ****** ****** ****** ****** ****** ****** ****** ****** ******
      ****** ****** ****** ****** ****** ****** ****** ****** ****** ******
   5  ****** ****** ****** ****** ****** ****** ****** ****** ****** ******
      ****** ****** ****** ****** ****** ****** ****** ****** ****** ******
      ****** ****** ****** ****** ****** ****** ****** ****** ****** ******
   6  ****** ****** ****** ****** ****** ****** ****** ****** ****** ******
      ****** ****** ****** ****** ****** ****** ****** ****** ****** ******
      ****** ****** ****** ****** ****** ****** ****** ****** ****** ******
   7  ****** ****** ****** ****** ****** ****** ****** ****** ****** ******
      ****** ****** ****** ****** ****** ****** ****** ****** ****** ******
      ****** ****** ****** ****** ****** ****** ****** ****** ****** ******
   8  ****** ****** ****** ****** ****** ****** ****** ****** ****** ******
      ****** ****** ****** ****** ****** ****** ****** ****** ****** ******
      ****** ****** ****** ****** ****** ****** ****** ****** ****** ******
   9  ****** ****** ****** ****** ****** ****** ****** ****** ****** ******
      ****** ****** ****** ****** ****** ****** ****** ****** ****** ******
      ****** ****** ****** ****** ****** ****** ****** ****** ****** ******
  10  ****** ****** ****** ****** ****** ****** ****** ****** ****** ******
      ****** ****** ****** ****** ****** ****** ****** ****** ****** ******
      ****** ****** ****** ****** ****** ****** ****** ****** ****** ******
  11  ****** ****** ****** ****** ****** ****** ****** ****** ****** ******
      ****** ****** ****** ****** ****** ****** ****** ****** ****** ******
      ****** ****** ****** ****** ****** ****** ****** ****** ****** ******
  12  ****** ****** ****** ****** ****** ****** ****** ****** ****** ******
      ****** ****** ****** ****** ****** ****** ****** ****** ****** ******
      ****** ****** ****** ****** ****** ****** ****** ****** ****** ******
  13  ****** ****** ****** ****** ****** ****** ****** ****** ****** ******
      ****** ****** ****** ****** ****** ****** ****** ****** ****** ******
      ****** ****** ****** ****** ****** ****** ****** ****** ****** ******
  14  ****** ****** ****** ****** ****** ****** ****** ****** ****** ******
      ****** ****** ****** ****** ****** ****** ****** ****** ****** ******
      ****** ****** ****** ****** ****** ****** ****** ****** ****** ******
  15  ****** ****** ****** ****** ****** ****** ****** ****** ****** ******
      ****** ****** ****** ****** ****** ****** ****** ****** ****** ******
      ****** ****** ****** ****** ****** ****** ****** ****** ****** ******
  16  ****** ****** ****** ****** ****** ****** ****** ****** ****** ******
      ****** ****** ****** ****** ****** ****** ****** ****** ****** ******
      ****** ****** ****** ****** ****** ****** ****** ****** ****** ******
  17  ****** ****** ****** ****** ****** ****** ****** ****** ****** ******
      ****** ****** ****** ****** ****** ****** ****** ****** ****** ******
      ****** ****** ****** ****** ****** ****** ****** ****** ****** ******
  18  ****** ****** ****** ****** ****** ****** ****** ****** ****** ******
      ****** ****** ****** ****** ****** ****** ****** ****** ****** ******
      ****** ****** ****** ****** ****** ****** ****** ****** ****** ******
  19  ****** ****** ****** ****** ****** ****** ****** ****** ****** ******
      ****** ****** ****** ****** ****** ****** ****** ****** ****** ******
      ****** ****** ****** ****** ****** ****** ****** ****** ****** ******
  20  ****** ****** ****** ****** ****** ****** ****** ****** ****** ******
      ****** ****** ****** ****** ****** ****** ****** ****** ****** ******
      ****** ****** ****** ****** ****** ****** ****** ****** ****** ******
  21  ****** ****** ****** ****** ****** ****** ****** ****** ****** ******
      ****** ****** ****** ****** ****** ****** ****** ****** ****** ******
      ****** ****** ****** ****** ****** ****** ****** ****** ****** ******
  22  ****** ****** ****** ****** ****** ****** ****** ****** ****** ******
      ****** ****** ****** ****** ****** ****** ****** ****** ****** ******
      ****** ****** ****** ****** ****** ****** ****** ****** ****** ******
  23  ****** ****** ****** ****** ****** ****** ****** ****** ****** ******
      ****** ****** ****** ****** ****** ****** ****** ****** ****** ******
      ****** ****** ****** ****** ****** ****** ****** ****** ****** ******
  24  ****** ****** ****** ****** ****** ****** ****** ****** ****** ******
      ****** ****** ****** ****** ****** ****** ****** ****** ****** ******
      ****** ****** ****** ****** ****** ****** ****** ****** ****** ******
  25  ****** ****** ****** ****** ****** ****** ****** ****** ****** ******
      ****** ****** ****** ****** ****** ****** ****** ****** ****** ******
      ****** ****** ****** ****** ****** ****** ****** ****** ****** ******

 HEAD WILL BE SAVED ON UNIT   51 AT END OF TIME STEP    1, STRESS PERIOD    2
1
  VOLUMETRIC BUDGET FOR ENTIRE MODEL AT END OF TIME STEP    1, STRESS PERIOD   2
  ------------------------------------------------------------------------------

     CUMULATIVE VOLUMES      L**3       RATES FOR THIS TIME STEP      L**3/T
     ------------------                 ------------------------

           IN:                                      IN:
           ---                                      ---
             STORAGE =    22460061.0243               STORAGE =       53414.2784
       CONSTANT HEAD =     2728582.6744         CONSTANT HEAD =       17203.4063
               WELLS =           0.0000                 WELLS =           0.0000
            RECHARGE =     6292800.0000              RECHARGE =       55200.0000
      STREAM LEAKAGE =     1136440.6517        STREAM LEAKAGE =        8477.0851

            TOTAL IN =    32617884.3505              TOTAL IN =      134294.7698

          OUT:                                     OUT:
          ----                                     ----
             STORAGE =           0.0000               STORAGE =           0.0000
       CONSTANT HEAD =           0.0000         CONSTANT HEAD =           0.0000
               WELLS =     5517395.5894                 WELLS =       30149.7027
            RECHARGE =           0.0000              RECHARGE =           0.0000
      STREAM LEAKAGE =    27100489.9805        STREAM LEAKAGE =      104145.0774

           TOTAL OUT =    32617885.5699             TOTAL OUT =      134294.7801

            IN - OUT =          -1.2194              IN - OUT =      -1.0222E-02

 PERCENT DISCREPANCY =          -0.00     PERCENT DISCREPANCY =          -0.00






         TIME SUMMARY AT END OF TIME STEP    1 IN STRESS PERIOD    2
                    SECONDS     MINUTES      HOURS       DAYS        YEARS
                    -----------------------------------------------------------
   TIME STEP LENGTH 7.86240E+06 1.31040E+05  2184.0      91.000     0.24914    
 STRESS PERIOD TIME 7.86240E+06 1.31040E+05  2184.0      91.000     0.24914    
         TOTAL TIME 1.58112E+07 2.63520E+05  4392.0      183.00     0.50103    
1
1
                            STRESS PERIOD NO.    3, LENGTH =   91.00000    
                            -----------------------------------------------

                              NUMBER OF TIME STEPS =     1

                               MULTIPLIER FOR DELT =     1.500

                            INITIAL TIME STEP SIZE =   91.00000    

 WELL NO.  LAYER   ROW   COL   STRESS RATE         
 --------------------------------------------------
      1      1     11     18      -9961.    
      2      1      5     20     -0.1016E+05
      3      1     11     16      -434.0    
      4      1     11     19      -9596.    

      4 WELLS

                 RECHARGE =   0.00000    

 REUSING STREAM SEGMENT DATA FROM LAST STRESS PERIOD
 
 SOLVING FOR HEAD 


     7 CALLS TO PCG ROUTINE FOR TIME STEP   1 IN STRESS PERIOD    3
    27 TOTAL ITERATIONS

 OUTPUT CONTROL FOR STRESS PERIOD    3   TIME STEP    1
    SAVE BUDGET
    SAVE HEAD FOR ALL LAYERS
    PRINT HEAD FOR ALL LAYERS
 UBDSV2 SAVING "STREAMFLOW OUT  " ON UNIT  50 AT TIME STEP  1, STRESS PERIOD   3



 STREAM LISTING     PERIOD      3   STEP        1

 LAYER ROW COL. STREAM  RCH.  FLOW INTO     FLOW TO   FLOW OUT OF   OVRLND.     DIRECT     STREAM       STREAM     STREAM     STREAM   STREAMBED  STREAMBED
                SEG.NO.  NO.  STRM. RCH.    AQUIFER    STRM. RCH.    RUNOFF     PRECIP       ET          HEAD       DEPTH      WIDTH   CONDCTNC.   GRADIENT

   1   13    1     1     1    1.0000E+05 -2.7344E+03   1.0273E+05  0.000E+00  0.000E+00  0.000E+00  4.84072E+01  1.458E-01  2.000E+01  2.000E+04 -1.367E-01
   1   13    2     1     2    1.0273E+05 -3.8412E+03   1.0658E+05  0.000E+00  0.000E+00  0.000E+00  4.79327E+01  1.487E-01  2.000E+01  2.000E+04 -1.921E-01
   1   14    3     1     3    1.0658E+05 -6.5452E+02   1.0723E+05  0.000E+00  0.000E+00  0.000E+00  4.74574E+01  1.506E-01  2.000E+01  2.000E+04 -3.273E-02
   1   15    4     1     4    1.0723E+05 -6.3931E+02   1.0787E+05  0.000E+00  0.000E+00  0.000E+00  4.69807E+01  1.511E-01  2.000E+01  2.000E+04 -3.197E-02
   1   16    5     1     5    1.0787E+05 -2.4712E+03   1.1034E+05  0.000E+00  0.000E+00  0.000E+00  4.65047E+01  1.524E-01  2.000E+01  2.000E+04 -1.236E-01
   1   16    6     1     6    1.1034E+05 -1.5126E+03   1.1185E+05  0.000E+00  0.000E+00  0.000E+00  4.60291E+01  1.541E-01  2.000E+01  2.000E+04 -7.563E-02
   1   16    7     1     7    1.1185E+05 -1.4773E+03   1.1333E+05  0.000E+00  0.000E+00  0.000E+00  4.55530E+01  1.553E-01  2.000E+01  2.000E+04 -7.387E-02
   1   16    8     1     8    1.1333E+05 -1.4676E+03   1.1480E+05  0.000E+00  0.000E+00  0.000E+00  4.50770E+01  1.565E-01  2.000E+01  2.000E+04 -7.338E-02
   1   16    9     1     9    1.1480E+05 -1.4532E+03   1.1625E+05  0.000E+00  0.000E+00  0.000E+00  4.46009E+01  1.577E-01  2.000E+01  2.000E+04 -7.266E-02
   1   16   10     1    10    1.1625E+05 -1.4317E+03   1.1768E+05  0.000E+00  0.000E+00  0.000E+00  4.41248E+01  1.589E-01  2.000E+01  2.000E+04 -7.158E-02
   1   16   11     1    11    1.1768E+05 -1.4355E+03   1.1912E+05  0.000E+00  0.000E+00  0.000E+00  4.36487E+01  1.601E-01  2.000E+01  2.000E+04 -7.178E-02
   1   16   12     1    12    1.1912E+05 -2.5256E+03   1.2164E+05  0.000E+00  0.000E+00  0.000E+00  4.31730E+01  1.617E-01  2.000E+01  2.000E+04 -1.263E-01
   1   15   13     1    13    1.2164E+05 -2.3587E+03   1.2400E+05  0.000E+00  0.000E+00  0.000E+00  4.26977E+01  1.636E-01  2.000E+01  2.000E+04 -1.179E-01
   1   14   14     1    14    1.2400E+05 -2.5548E+03   1.2656E+05  0.000E+00  0.000E+00  0.000E+00  4.22224E+01  1.656E-01  2.000E+01  2.000E+04 -1.277E-01
   1   13   15     1    15    1.2656E+05 -2.6122E+03   1.2917E+05  0.000E+00  0.000E+00  0.000E+00  4.17472E+01  1.676E-01  2.000E+01  2.000E+04 -1.306E-01
   1   12   16     1    16    1.2917E+05 -2.1733E+03   1.3134E+05  0.000E+00  0.000E+00  0.000E+00  4.12718E+01  1.695E-01  2.000E+01  2.000E+04 -1.087E-01
   1   12   17     1    17    1.3134E+05 -1.3163E+02   1.3147E+05  0.000E+00  0.000E+00  0.000E+00  4.07954E+01  1.704E-01  2.000E+01  2.000E+04 -6.582E-03
   1   12   18     1    18    1.3147E+05  2.8241E+03   1.2865E+05  0.000E+00  0.000E+00  0.000E+00  4.03171E+01  1.694E-01  2.000E+01  2.000E+04  1.412E-01
   1   12   19     1    19    1.2865E+05  3.0543E+03   1.2560E+05  0.000E+00  0.000E+00  0.000E+00  3.98375E+01  1.671E-01  2.000E+01  2.000E+04  1.527E-01
   1   13   20     1    20    1.2560E+05 -1.0247E+03   1.2662E+05  0.000E+00  0.000E+00  0.000E+00  3.93594E+01  1.663E-01  2.000E+01  2.000E+04 -5.123E-02
   1   14   21     1    21    1.2662E+05 -1.9788E+03   1.2860E+05  0.000E+00  0.000E+00  0.000E+00  3.88833E+01  1.674E-01  2.000E+01  2.000E+04 -9.894E-02
   1   14   22     1    22    1.2860E+05  4.7901E+03   1.2381E+05  0.000E+00  0.000E+00  0.000E+00  3.84050E+01  1.663E-01  2.000E+01  2.000E+04  2.395E-01
   1    9   30     2     1    5.0000E+04 -7.3374E+02   5.0734E+04  0.000E+00  0.000E+00  0.000E+00  4.02414E+01  1.164E-01  2.000E+01  2.000E+04 -3.669E-02
   1    9   29     2     2    5.0734E+04 -1.0152E+03   5.1749E+04  0.000E+00  0.000E+00  0.000E+00  3.99926E+01  1.176E-01  2.000E+01  2.000E+04 -5.076E-02
   1    9   28     2     3    5.1749E+04 -1.2284E+03   5.2977E+04  0.000E+00  0.000E+00  0.000E+00  3.97441E+01  1.191E-01  2.000E+01  2.000E+04 -6.142E-02
   1    9   27     2     4    5.2977E+04 -2.3178E+03   5.5295E+04  0.000E+00  0.000E+00  0.000E+00  3.94965E+01  1.215E-01  2.000E+01  2.000E+04 -1.159E-01
   1   10   26     2     5    5.5295E+04 -1.3631E+03   5.6658E+04  0.000E+00  0.000E+00  0.000E+00  3.92490E+01  1.240E-01  2.000E+01  2.000E+04 -6.815E-02
   1   11   25     2     6    5.6658E+04 -1.0323E+03   5.7691E+04  0.000E+00  0.000E+00  0.000E+00  3.90006E+01  1.256E-01  2.000E+01  2.000E+04 -5.161E-02
   1   12   24     2     7    5.7691E+04 -9.3461E+02   5.8625E+04  0.000E+00  0.000E+00  0.000E+00  3.87519E+01  1.269E-01  2.000E+01  2.000E+04 -4.673E-02
   1   13   23     2     8    5.8625E+04 -1.1176E+02   5.8737E+04  0.000E+00  0.000E+00  0.000E+00  3.85025E+01  1.275E-01  2.000E+01  2.000E+04 -5.588E-03
   1   14   22     2     9    5.8737E+04  1.7207E+03   5.7016E+04  0.000E+00  0.000E+00  0.000E+00  3.82515E+01  1.265E-01  2.000E+01  2.000E+04  8.604E-02
   1   14   22     3     1    1.8083E+05 -8.7235E+03   1.8955E+05  0.000E+00  0.000E+00  0.000E+00  3.77293E+01  1.737E-01  2.000E+01  2.000E+04 -4.362E-01
   1   15   23     3     2    1.8955E+05 -6.6892E+02   1.9022E+05  0.000E+00  0.000E+00  0.000E+00  3.68430E+01  1.764E-01  2.000E+01  2.000E+04 -3.345E-02
   1   15   24     3     3    1.9022E+05 -3.4551E+02   1.9056E+05  0.000E+00  0.000E+00  0.000E+00  3.59544E+01  1.766E-01  2.000E+01  2.000E+04 -1.728E-02
   1   15   25     3     4    1.9056E+05 -3.3436E+02   1.9090E+05  0.000E+00  0.000E+00  0.000E+00  3.50657E+01  1.768E-01  2.000E+01  2.000E+04 -1.672E-02
   1   15   26     3     5    1.9090E+05 -3.7043E+02   1.9127E+05  0.000E+00  0.000E+00  0.000E+00  3.41770E+01  1.770E-01  2.000E+01  2.000E+04 -1.852E-02
   1   16   27     3     6    1.9127E+05 -4.3543E+02   1.9170E+05  0.000E+00  0.000E+00  0.000E+00  3.32884E+01  1.772E-01  2.000E+01  2.000E+04 -2.177E-02
   1   17   28     3     7    1.9170E+05 -1.8548E+03   1.9356E+05  0.000E+00  0.000E+00  0.000E+00  3.24001E+01  1.779E-01  2.000E+01  2.000E+04 -9.274E-02
   1   18   29     3     8    1.9356E+05 -3.5562E+03   1.9712E+05  0.000E+00  0.000E+00  0.000E+00  3.15127E+01  1.794E-01  2.000E+01  2.000E+04 -1.778E-01
   1   18   30     3     9    1.9712E+05 -3.5586E+03   2.0067E+05  0.000E+00  0.000E+00  0.000E+00  3.06258E+01  1.813E-01  2.000E+01  2.000E+04 -1.779E-01



1
              HEAD IN LAYER   1 AT END OF TIME STEP   1 IN STRESS PERIOD    3
  ---------------------------------------------------------------------------

          1      2      3      4      5      6      7      8      9     10
         11     12     13     14     15     16     17     18     19     20
         21     22     23     24     25     26     27     28     29     30
 .........................................................................
   1  ****** ****** ****** ****** ****** ****** ****** ****** ****** ******
      ****** ****** ****** ****** ****** ****** ****** ****** ****** ******
      ****** ****** ****** ****** ****** ****** ****** ****** ****** ******
   2  ****** ****** ****** ****** ****** ****** ****** ****** ****** ******
      ****** ****** ****** ****** ****** ****** ****** ****** ****** ******
      ****** ****** ****** ****** ****** ****** ****** ****** ****** ******
   3  ****** ****** ****** ****** ****** ****** ****** ****** ****** ******
      ****** ****** ****** ****** ****** ****** ****** ****** ****** ******
      ****** ****** ****** ****** ****** ****** ****** ****** ****** ******
   4  ****** ****** ****** ****** ****** ****** ****** ****** ****** ******
      ****** ****** ****** ****** ****** ****** ****** ****** ****** ******
      ****** ****** ****** ****** ****** ****** ****** ****** ****** ******
   5  ****** ****** ****** ****** ****** ****** ****** ****** ****** ******
      ****** ****** ****** ****** ****** ****** ****** ****** ****** ******
      ****** ****** ****** ****** ****** ****** ****** ****** ****** ******
   6  ****** ****** ****** ****** ****** ****** ****** ****** ****** ******
      ****** ****** ****** ****** ****** ****** ****** ****** ****** ******
      ****** ****** ****** ****** ****** ****** ****** ****** ****** ******
   7  ****** ****** ****** ****** ****** ****** ****** ****** ****** ******
      ****** ****** ****** ****** ****** ****** ****** ****** ****** ******
      ****** ****** ****** ****** ****** ****** ****** ****** ****** ******
   8  ****** ****** ****** ****** ****** ****** ****** ****** ****** ******
      ****** ****** ****** ****** ****** ****** ****** ****** ****** ******
      ****** ****** ****** ****** ****** ****** ****** ****** ****** ******
   9  ****** ****** ****** ****** ****** ****** ****** ****** ****** ******
      ****** ****** ****** ****** ****** ****** ****** ****** ****** ******
      ****** ****** ****** ****** ****** ****** ****** ****** ****** ******
  10  ****** ****** ****** ****** ****** ****** ****** ****** ****** ******
      ****** ****** ****** ****** ****** ****** ****** ****** ****** ******
      ****** ****** ****** ****** ****** ****** ****** ****** ****** ******
  11  ****** ****** ****** ****** ****** ****** ****** ****** ****** ******
      ****** ****** ****** ****** ****** ****** ****** ****** ****** ******
      ****** ****** ****** ****** ****** ****** ****** ****** ****** ******
  12  ****** ****** ****** ****** ****** ****** ****** ****** ****** ******
      ****** ****** ****** ****** ****** ****** ****** ****** ****** ******
      ****** ****** ****** ****** ****** ****** ****** ****** ****** ******
  13  ****** ****** ****** ****** ****** ****** ****** ****** ****** ******
      ****** ****** ****** ****** ****** ****** ****** ****** ****** ******
      ****** ****** ****** ****** ****** ****** ****** ****** ****** ******
  14  ****** ****** ****** ****** ****** ****** ****** ****** ****** ******
      ****** ****** ****** ****** ****** ****** ****** ****** ****** ******
      ****** ****** ****** ****** ****** ****** ****** ****** ****** ******
  15  ****** ****** ****** ****** ****** ****** ****** ****** ****** ******
      ****** ****** ****** ****** ****** ****** ****** ****** ****** ******
      ****** ****** ****** ****** ****** ****** ****** ****** ****** ******
  16  ****** ****** ****** ****** ****** ****** ****** ****** ****** ******
      ****** ****** ****** ****** ****** ****** ****** ****** ****** ******
      ****** ****** ****** ****** ****** ****** ****** ****** ****** ******
  17  ****** ****** ****** ****** ****** ****** ****** ****** ****** ******
      ****** ****** ****** ****** ****** ****** ****** ****** ****** ******
      ****** ****** ****** ****** ****** ****** ****** ****** ****** ******
  18  ****** ****** ****** ****** ****** ****** ****** ****** ****** ******
      ****** ****** ****** ****** ****** ****** ****** ****** ****** ******
      ****** ****** ****** ****** ****** ****** ****** ****** ****** ******
  19  ****** ****** ****** ****** ****** ****** ****** ****** ****** ******
      ****** ****** ****** ****** ****** ****** ****** ****** ****** ******
      ****** ****** ****** ****** ****** ****** ****** ****** ****** ******
  20  ****** ****** ****** ****** ****** ****** ****** ****** ****** ******
      ****** ****** ****** ****** ****** ****** ****** ****** ****** ******
      ****** ****** ****** ****** ****** ****** ****** ****** ****** ******
  21  ****** ****** ****** ****** ****** ****** ****** ****** ****** ******
      ****** ****** ****** ****** ****** ****** ****** ****** ****** ******
      ****** ****** ****** ****** ****** ****** ****** ****** ****** ******
  22  ****** ****** ****** ****** ****** ****** ****** ****** ****** ******
      ****** ****** ****** ****** ****** ****** ****** ****** ****** ******
      ****** ****** ****** ****** ****** ****** ****** ****** ****** ******
  23  ****** ****** ****** ****** ****** ****** ****** ****** ****** ******
      ****** ****** ****** ****** ****** ****** ****** ****** ****** ******
      ****** ****** ****** ****** ****** ****** ****** ****** ****** ******
  24  ****** ****** ****** ****** ****** ****** ****** ****** ****** ******
      ****** ****** ****** ****** ****** ****** ****** ****** ****** ******
      ****** ****** ****** ****** ****** ****** ****** ****** ****** ******
  25  ****** ****** ****** ****** ****** ****** ****** ****** ****** ******
      ****** ****** ****** ****** ****** ****** ****** ****** ****** ******
      ****** ****** ****** ****** ****** ****** ****** ****** ****** ******

 HEAD WILL BE SAVED ON UNIT   51 AT END OF TIME STEP    1, STRESS PERIOD    3
1
  VOLUMETRIC BUDGET FOR ENTIRE MODEL AT END OF TIME STEP    1, STRESS PERIOD   3
  ------------------------------------------------------------------------------

     CUMULATIVE VOLUMES      L**3       RATES FOR THIS TIME STEP      L**3/T
     ------------------                 ------------------------

           IN:                                      IN:
           ---                                      ---
             STORAGE =    27468902.1423               STORAGE =       55042.2101
       CONSTANT HEAD =     5074674.5205         CONSTANT HEAD =       25781.2291
               WELLS =           0.0000                 WELLS =           0.0000
            RECHARGE =     6292800.0000              RECHARGE =           0.0000
      STREAM LEAKAGE =     2263858.9911        STREAM LEAKAGE =       12389.2125

            TOTAL IN =    41100235.6539              TOTAL IN =       93212.6517

          OUT:                                     OUT:
          ----                                     ----
             STORAGE =           0.0000               STORAGE =           0.0000
       CONSTANT HEAD =           0.0000         CONSTANT HEAD =           0.0000
               WELLS =     8261018.5327                 WELLS =       30149.7027
            RECHARGE =           0.0000              RECHARGE =           0.0000
      STREAM LEAKAGE =    32839219.0134        STREAM LEAKAGE =       63062.9564

           TOTAL OUT =    41100237.5461             TOTAL OUT =       93212.6591

            IN - OUT =          -1.8923              IN - OUT =      -7.3948E-03

 PERCENT DISCREPANCY =          -0.00     PERCENT DISCREPANCY =          -0.00






         TIME SUMMARY AT END OF TIME STEP    1 IN STRESS PERIOD    3
                    SECONDS     MINUTES      HOURS       DAYS        YEARS
                    -----------------------------------------------------------
   TIME STEP LENGTH 7.86240E+06 1.31040E+05  2184.0      91.000     0.24914    
 STRESS PERIOD TIME 7.86240E+06 1.31040E+05  2184.0      91.000     0.24914    
         TOTAL TIME 2.36736E+07 3.94560E+05  6576.0      274.00     0.75017    
1
1
                            STRESS PERIOD NO.    4, LENGTH =   91.00000    
                            -----------------------------------------------

                              NUMBER OF TIME STEPS =     1

                               MULTIPLIER FOR DELT =     1.500

                            INITIAL TIME STEP SIZE =   91.00000    

 WELL NO.  LAYER   ROW   COL   STRESS RATE         
 --------------------------------------------------
      1      1     11     18      -9961.    
      2      1      5     20     -0.1016E+05
      3      1     11     16      -434.0    
      4      1     11     19      -9596.    

      4 WELLS

                 RECHARGE =  1.000000E-03

 REUSING STREAM SEGMENT DATA FROM LAST STRESS PERIOD
 
 SOLVING FOR HEAD 


     6 CALLS TO PCG ROUTINE FOR TIME STEP   1 IN STRESS PERIOD    4
    23 TOTAL ITERATIONS

 OUTPUT CONTROL FOR STRESS PERIOD    4   TIME STEP    1
    SAVE BUDGET
    SAVE HEAD FOR ALL LAYERS
    PRINT HEAD FOR ALL LAYERS
 UBDSV2 SAVING "STREAMFLOW OUT  " ON UNIT  50 AT TIME STEP  1, STRESS PERIOD   4



 STREAM LISTING     PERIOD      4   STEP        1

 LAYER ROW COL. STREAM  RCH.  FLOW INTO     FLOW TO   FLOW OUT OF   OVRLND.     DIRECT     STREAM       STREAM     STREAM     STREAM   STREAMBED  STREAMBED
                SEG.NO.  NO.  STRM. RCH.    AQUIFER    STRM. RCH.    RUNOFF     PRECIP       ET          HEAD       DEPTH      WIDTH   CONDCTNC.   GRADIENT

   1   13    1     1     1    1.0000E+05 -2.4914E+03   1.0249E+05  0.000E+00  0.000E+00  0.000E+00  4.84071E+01  1.457E-01  2.000E+01  2.000E+04 -1.246E-01
   1   13    2     1     2    1.0249E+05 -3.5592E+03   1.0605E+05  0.000E+00  0.000E+00  0.000E+00  4.79324E+01  1.483E-01  2.000E+01  2.000E+04 -1.780E-01
   1   14    3     1     3    1.0605E+05 -6.2575E+02   1.0668E+05  0.000E+00  0.000E+00  0.000E+00  4.74569E+01  1.501E-01  2.000E+01  2.000E+04 -3.129E-02
   1   15    4     1     4    1.0668E+05 -6.0127E+02   1.0728E+05  0.000E+00  0.000E+00  0.000E+00  4.69802E+01  1.506E-01  2.000E+01  2.000E+04 -3.006E-02
   1   16    5     1     5    1.0728E+05 -2.1759E+03   1.0945E+05  0.000E+00  0.000E+00  0.000E+00  4.65041E+01  1.518E-01  2.000E+01  2.000E+04 -1.088E-01
   1   16    6     1     6    1.0945E+05 -1.3679E+03   1.1082E+05  0.000E+00  0.000E+00  0.000E+00  4.60283E+01  1.533E-01  2.000E+01  2.000E+04 -6.839E-02
   1   16    7     1     7    1.1082E+05 -1.3440E+03   1.1217E+05  0.000E+00  0.000E+00  0.000E+00  4.55521E+01  1.544E-01  2.000E+01  2.000E+04 -6.720E-02
   1   16    8     1     8    1.1217E+05 -1.3390E+03   1.1350E+05  0.000E+00  0.000E+00  0.000E+00  4.50760E+01  1.555E-01  2.000E+01  2.000E+04 -6.695E-02
   1   16    9     1     9    1.1350E+05 -1.3280E+03   1.1483E+05  0.000E+00  0.000E+00  0.000E+00  4.45998E+01  1.566E-01  2.000E+01  2.000E+04 -6.640E-02
   1   16   10     1    10    1.1483E+05 -1.3111E+03   1.1614E+05  0.000E+00  0.000E+00  0.000E+00  4.41236E+01  1.577E-01  2.000E+01  2.000E+04 -6.555E-02
   1   16   11     1    11    1.1614E+05 -1.3167E+03   1.1746E+05  0.000E+00  0.000E+00  0.000E+00  4.36474E+01  1.588E-01  2.000E+01  2.000E+04 -6.584E-02
   1   16   12     1    12    1.1746E+05 -2.2734E+03   1.1973E+05  0.000E+00  0.000E+00  0.000E+00  4.31716E+01  1.602E-01  2.000E+01  2.000E+04 -1.137E-01
   1   15   13     1    13    1.1973E+05 -2.1126E+03   1.2185E+05  0.000E+00  0.000E+00  0.000E+00  4.26961E+01  1.620E-01  2.000E+01  2.000E+04 -1.056E-01
   1   14   14     1    14    1.2185E+05 -2.2755E+03   1.2412E+05  0.000E+00  0.000E+00  0.000E+00  4.22206E+01  1.638E-01  2.000E+01  2.000E+04 -1.138E-01
   1   13   15     1    15    1.2412E+05 -2.2939E+03   1.2642E+05  0.000E+00  0.000E+00  0.000E+00  4.17451E+01  1.656E-01  2.000E+01  2.000E+04 -1.147E-01
   1   12   16     1    16    1.2642E+05 -1.7284E+03   1.2814E+05  0.000E+00  0.000E+00  0.000E+00  4.12695E+01  1.672E-01  2.000E+01  2.000E+04 -8.642E-02
   1   12   17     1    17    1.2814E+05  1.3402E+02   1.2801E+05  0.000E+00  0.000E+00  0.000E+00  4.07928E+01  1.678E-01  2.000E+01  2.000E+04  6.701E-03
   1   12   18     1    18    1.2801E+05  3.0727E+03   1.2494E+05  0.000E+00  0.000E+00  0.000E+00  4.03143E+01  1.665E-01  2.000E+01  2.000E+04  1.536E-01
   1   12   19     1    19    1.2494E+05  3.3742E+03   1.2156E+05  0.000E+00  0.000E+00  0.000E+00  3.98344E+01  1.640E-01  2.000E+01  2.000E+04  1.687E-01
   1   13   20     1    20    1.2156E+05 -8.3908E+02   1.2240E+05  0.000E+00  0.000E+00  0.000E+00  3.93562E+01  1.630E-01  2.000E+01  2.000E+04 -4.195E-02
   1   14   21     1    21    1.2240E+05 -1.7620E+03   1.2416E+05  0.000E+00  0.000E+00  0.000E+00  3.88799E+01  1.640E-01  2.000E+01  2.000E+04 -8.810E-02
   1   14   22     1    22    1.2416E+05  4.8248E+03   1.1934E+05  0.000E+00  0.000E+00  0.000E+00  3.84014E+01  1.628E-01  2.000E+01  2.000E+04  2.412E-01
   1    9   30     2     1    5.0000E+04 -6.2242E+02   5.0622E+04  0.000E+00  0.000E+00  0.000E+00  4.02413E+01  1.163E-01  2.000E+01  2.000E+04 -3.112E-02
   1    9   29     2     2    5.0622E+04 -8.9512E+02   5.1518E+04  0.000E+00  0.000E+00  0.000E+00  3.99923E+01  1.173E-01  2.000E+01  2.000E+04 -4.476E-02
   1    9   28     2     3    5.1518E+04 -1.0834E+03   5.2601E+04  0.000E+00  0.000E+00  0.000E+00  3.97437E+01  1.187E-01  2.000E+01  2.000E+04 -5.417E-02
   1    9   27     2     4    5.2601E+04 -1.9911E+03   5.4592E+04  0.000E+00  0.000E+00  0.000E+00  3.94958E+01  1.208E-01  2.000E+01  2.000E+04 -9.956E-02
   1   10   26     2     5    5.4592E+04 -1.1602E+03   5.5752E+04  0.000E+00  0.000E+00  0.000E+00  3.92479E+01  1.229E-01  2.000E+01  2.000E+04 -5.801E-02
   1   11   25     2     6    5.5752E+04 -8.7461E+02   5.6627E+04  0.000E+00  0.000E+00  0.000E+00  3.89993E+01  1.243E-01  2.000E+01  2.000E+04 -4.373E-02
   1   12   24     2     7    5.6627E+04 -7.9621E+02   5.7423E+04  0.000E+00  0.000E+00  0.000E+00  3.87504E+01  1.254E-01  2.000E+01  2.000E+04 -3.981E-02
   1   13   23     2     8    5.7423E+04 -1.3133E+02   5.7554E+04  0.000E+00  0.000E+00  0.000E+00  3.85010E+01  1.260E-01  2.000E+01  2.000E+04 -6.567E-03
   1   14   22     2     9    5.7554E+04  1.7942E+03   5.5760E+04  0.000E+00  0.000E+00  0.000E+00  3.82499E+01  1.249E-01  2.000E+01  2.000E+04  8.971E-02
   1   14   22     3     1    1.7510E+05 -8.6830E+03   1.8378E+05  0.000E+00  0.000E+00  0.000E+00  3.77260E+01  1.705E-01  2.000E+01  2.000E+04 -4.342E-01
   1   15   23     3     2    1.8378E+05 -6.5047E+02   1.8443E+05  0.000E+00  0.000E+00  0.000E+00  3.68398E+01  1.731E-01  2.000E+01  2.000E+04 -3.252E-02
   1   15   24     3     3    1.8443E+05 -3.4718E+02   1.8478E+05  0.000E+00  0.000E+00  0.000E+00  3.59512E+01  1.734E-01  2.000E+01  2.000E+04 -1.736E-02
   1   15   25     3     4    1.8478E+05 -3.3546E+02   1.8512E+05  0.000E+00  0.000E+00  0.000E+00  3.50625E+01  1.736E-01  2.000E+01  2.000E+04 -1.677E-02
   1   15   26     3     5    1.8512E+05 -3.8067E+02   1.8550E+05  0.000E+00  0.000E+00  0.000E+00  3.41738E+01  1.738E-01  2.000E+01  2.000E+04 -1.903E-02
   1   16   27     3     6    1.8550E+05 -4.3784E+02   1.8593E+05  0.000E+00  0.000E+00  0.000E+00  3.32851E+01  1.740E-01  2.000E+01  2.000E+04 -2.189E-02
   1   17   28     3     7    1.8593E+05 -1.7989E+03   1.8773E+05  0.000E+00  0.000E+00  0.000E+00  3.23969E+01  1.747E-01  2.000E+01  2.000E+04 -8.994E-02
   1   18   29     3     8    1.8773E+05 -3.3552E+03   1.9109E+05  0.000E+00  0.000E+00  0.000E+00  3.15094E+01  1.761E-01  2.000E+01  2.000E+04 -1.678E-01
   1   18   30     3     9    1.9109E+05 -3.4606E+03   1.9455E+05  0.000E+00  0.000E+00  0.000E+00  3.06224E+01  1.780E-01  2.000E+01  2.000E+04 -1.730E-01



1
              HEAD IN LAYER   1 AT END OF TIME STEP   1 IN STRESS PERIOD    4
  ---------------------------------------------------------------------------

          1      2      3      4      5      6      7      8      9     10
         11     12     13     14     15     16     17     18     19     20
         21     22     23     24     25     26     27     28     29     30
 .........................................................................
   1  ****** ****** ****** ****** ****** ****** ****** ****** ****** ******
      ****** ****** ****** ****** ****** ****** ****** ****** ****** ******
      ****** ****** ****** ****** ****** ****** ****** ****** ****** ******
   2  ****** ****** ****** ****** ****** ****** ****** ****** ****** ******
      ****** ****** ****** ****** ****** ****** ****** ****** ****** ******
      ****** ****** ****** ****** ****** ****** ****** ****** ****** ******
   3  ****** ****** ****** ****** ****** ****** ****** ****** ****** ******
      ****** ****** ****** ****** ****** ****** ****** ****** ****** ******
      ****** ****** ****** ****** ****** ****** ****** ****** ****** ******
   4  ****** ****** ****** ****** ****** ****** ****** ****** ****** ******
      ****** ****** ****** ****** ****** ****** ****** ****** ****** ******
      ****** ****** ****** ****** ****** ****** ****** ****** ****** ******
   5  ****** ****** ****** ****** ****** ****** ****** ****** ****** ******
      ****** ****** ****** ****** ****** ****** ****** ****** ****** ******
      ****** ****** ****** ****** ****** ****** ****** ****** ****** ******
   6  ****** ****** ****** ****** ****** ****** ****** ****** ****** ******
      ****** ****** ****** ****** ****** ****** ****** ****** ****** ******
      ****** ****** ****** ****** ****** ****** ****** ****** ****** ******
   7  ****** ****** ****** ****** ****** ****** ****** ****** ****** ******
      ****** ****** ****** ****** ****** ****** ****** ****** ****** ******
      ****** ****** ****** ****** ****** ****** ****** ****** ****** ******
   8  ****** ****** ****** ****** ****** ****** ****** ****** ****** ******
      ****** ****** ****** ****** ****** ****** ****** ****** ****** ******
      ****** ****** ****** ****** ****** ****** ****** ****** ****** ******
   9  ****** ****** ****** ****** ****** ****** ****** ****** ****** ******
      ****** ****** ****** ****** ****** ****** ****** ****** ****** ******
      ****** ****** ****** ****** ****** ****** ****** ****** ****** ******
  10  ****** ****** ****** ****** ****** ****** ****** ****** ****** ******
      ****** ****** ****** ****** ****** ****** ****** ****** ****** ******
      ****** ****** ****** ****** ****** ****** ****** ****** ****** ******
  11  ****** ****** ****** ****** ****** ****** ****** ****** ****** ******
      ****** ****** ****** ****** ****** ****** ****** ****** ****** ******
      ****** ****** ****** ****** ****** ****** ****** ****** ****** ******
  12  ****** ****** ****** ****** ****** ****** ****** ****** ****** ******
      ****** ****** ****** ****** ****** ****** ****** ****** ****** ******
      ****** ****** ****** ****** ****** ****** ****** ****** ****** ******
  13  ****** ****** ****** ****** ****** ****** ****** ****** ****** ******
      ****** ****** ****** ****** ****** ****** ****** ****** ****** ******
      ****** ****** ****** ****** ****** ****** ****** ****** ****** ******
  14  ****** ****** ****** ****** ****** ****** ****** ****** ****** ******
      ****** ****** ****** ****** ****** ****** ****** ****** ****** ******
      ****** ****** ****** ****** ****** ****** ****** ****** ****** ******
  15  ****** ****** ****** ****** ****** ****** ****** ****** ****** ******
      ****** ****** ****** ****** ****** ****** ****** ****** ****** ******
      ****** ****** ****** ****** ****** ****** ****** ****** ****** ******
  16  ****** ****** ****** ****** ****** ****** ****** ****** ****** ******
      ****** ****** ****** ****** ****** ****** ****** ****** ****** ******
      ****** ****** ****** ****** ****** ****** ****** ****** ****** ******
  17  ****** ****** ****** ****** ****** ****** ****** ****** ****** ******
      ****** ****** ****** ****** ****** ****** ****** ****** ****** ******
      ****** ****** ****** ****** ****** ****** ****** ****** ****** ******
  18  ****** ****** ****** ****** ****** ****** ****** ****** ****** ******
      ****** ****** ****** ****** ****** ****** ****** ****** ****** ******
      ****** ****** ****** ****** ****** ****** ****** ****** ****** ******
  19  ****** ****** ****** ****** ****** ****** ****** ****** ****** ******
      ****** ****** ****** ****** ****** ****** ****** ****** ****** ******
      ****** ****** ****** ****** ****** ****** ****** ****** ****** ******
  20  ****** ****** ****** ****** ****** ****** ****** ****** ****** ******
      ****** ****** ****** ****** ****** ****** ****** ****** ****** ******
      ****** ****** ****** ****** ****** ****** ****** ****** ****** ******
  21  ****** ****** ****** ****** ****** ****** ****** ****** ****** ******
      ****** ****** ****** ****** ****** ****** ****** ****** ****** ******
      ****** ****** ****** ****** ****** ****** ****** ****** ****** ******
  22  ****** ****** ****** ****** ****** ****** ****** ****** ****** ******
      ****** ****** ****** ****** ****** ****** ****** ****** ****** ******
      ****** ****** ****** ****** ****** ****** ****** ****** ****** ******
  23  ****** ****** ****** ****** ****** ****** ****** ****** ****** ******
      ****** ****** ****** ****** ****** ****** ****** ****** ****** ******
      ****** ****** ****** ****** ****** ****** ****** ****** ****** ******
  24  ****** ****** ****** ****** ****** ****** ****** ****** ****** ******
      ****** ****** ****** ****** ****** ****** ****** ****** ****** ******
      ****** ****** ****** ****** ****** ****** ****** ****** ****** ******
  25  ****** ****** ****** ****** ****** ****** ****** ****** ****** ******
      ****** ****** ****** ****** ****** ****** ****** ****** ****** ******
      ****** ****** ****** ****** ****** ****** ****** ****** ****** ******

 HEAD WILL BE SAVED ON UNIT   51 AT END OF TIME STEP    1, STRESS PERIOD    4
1
  VOLUMETRIC BUDGET FOR ENTIRE MODEL AT END OF TIME STEP    1, STRESS PERIOD   4
  ------------------------------------------------------------------------------

     CUMULATIVE VOLUMES      L**3       RATES FOR THIS TIME STEP      L**3/T
     ------------------                 ------------------------

           IN:                                      IN:
           ---                                      ---
             STORAGE =    29170862.7416               STORAGE =       18702.8637
       CONSTANT HEAD =     7659857.0835         CONSTANT HEAD =       28408.5996
               WELLS =           0.0000                 WELLS =           0.0000
            RECHARGE =     8804400.0000              RECHARGE =       27600.0000
      STREAM LEAKAGE =     3465046.8615        STREAM LEAKAGE =       13199.8667

            TOTAL IN =    49100166.6866              TOTAL IN =       87911.3300

          OUT:                                     OUT:
          ----                                     ----
             STORAGE =        1167.6908               STORAGE =          12.8318
       CONSTANT HEAD =           0.0000         CONSTANT HEAD =           0.0000
               WELLS =    11004641.4761                 WELLS =       30149.7027
            RECHARGE =           0.0000              RECHARGE =           0.0000
      STREAM LEAKAGE =    38094359.4848        STREAM LEAKAGE =       57748.7964

           TOTAL OUT =    49100168.6516             TOTAL OUT =       87911.3308

            IN - OUT =          -1.9650              IN - OUT =      -7.9912E-04

 PERCENT DISCREPANCY =          -0.00     PERCENT DISCREPANCY =          -0.00






         TIME SUMMARY AT END OF TIME STEP    1 IN STRESS PERIOD    4
                    SECONDS     MINUTES      HOURS       DAYS        YEARS
                    -----------------------------------------------------------
   TIME STEP LENGTH 7.86240E+06 1.31040E+05  2184.0      91.000     0.24914    
 STRESS PERIOD TIME 7.86240E+06 1.31040E+05  2184.0      91.000     0.24914    
         TOTAL TIME 3.15360E+07 5.25600E+05  8760.0      365.00     0.99932    
1
1
                            STRESS PERIOD NO.    5, LENGTH =   92.00000    
                            -----------------------------------------------

                              NUMBER OF TIME STEPS =     1

                               MULTIPLIER FOR DELT =     1.500

                            INITIAL TIME STEP SIZE =   92.00000    

 WELL NO.  LAYER   ROW   COL   STRESS RATE         
 --------------------------------------------------
      1      1     11     18      -9961.    
      2      1      5     20     -0.1016E+05
      3      1     11     16      -434.0    
      4      1     11     19      -9596.    

      4 WELLS

                 RECHARGE =  5.000000E-04

 REUSING STREAM SEGMENT DATA FROM LAST STRESS PERIOD
 
 SOLVING FOR HEAD 


     7 CALLS TO PCG ROUTINE FOR TIME STEP   1 IN STRESS PERIOD    5
    26 TOTAL ITERATIONS

 OUTPUT CONTROL FOR STRESS PERIOD    5   TIME STEP    1
    SAVE BUDGET
    SAVE HEAD FOR ALL LAYERS
    PRINT HEAD FOR ALL LAYERS
 UBDSV2 SAVING "STREAMFLOW OUT  " ON UNIT  50 AT TIME STEP  1, STRESS PERIOD   5



 STREAM LISTING     PERIOD      5   STEP        1

 LAYER ROW COL. STREAM  RCH.  FLOW INTO     FLOW TO   FLOW OUT OF   OVRLND.     DIRECT     STREAM       STREAM     STREAM     STREAM   STREAMBED  STREAMBED
                SEG.NO.  NO.  STRM. RCH.    AQUIFER    STRM. RCH.    RUNOFF     PRECIP       ET          HEAD       DEPTH      WIDTH   CONDCTNC.   GRADIENT

   1   13    1     1     1    1.0000E+05 -2.0691E+03   1.0207E+05  0.000E+00  0.000E+00  0.000E+00  4.84069E+01  1.455E-01  2.000E+01  2.000E+04 -1.035E-01
   1   13    2     1     2    1.0207E+05 -3.0819E+03   1.0515E+05  0.000E+00  0.000E+00  0.000E+00  4.79319E+01  1.478E-01  2.000E+01  2.000E+04 -1.541E-01
   1   14    3     1     3    1.0515E+05 -5.0307E+02   1.0565E+05  0.000E+00  0.000E+00  0.000E+00  4.74561E+01  1.493E-01  2.000E+01  2.000E+04 -2.515E-02
   1   15    4     1     4    1.0565E+05 -4.7254E+02   1.0613E+05  0.000E+00  0.000E+00  0.000E+00  4.69793E+01  1.497E-01  2.000E+01  2.000E+04 -2.363E-02
   1   16    5     1     5    1.0613E+05 -1.7500E+03   1.0788E+05  0.000E+00  0.000E+00  0.000E+00  4.65029E+01  1.506E-01  2.000E+01  2.000E+04 -8.750E-02
   1   16    6     1     6    1.0788E+05 -1.1183E+03   1.0899E+05  0.000E+00  0.000E+00  0.000E+00  4.60269E+01  1.519E-01  2.000E+01  2.000E+04 -5.591E-02
   1   16    7     1     7    1.0899E+05 -1.1048E+03   1.1010E+05  0.000E+00  0.000E+00  0.000E+00  4.55505E+01  1.528E-01  2.000E+01  2.000E+04 -5.524E-02
   1   16    8     1     8    1.1010E+05 -1.1036E+03   1.1120E+05  0.000E+00  0.000E+00  0.000E+00  4.50742E+01  1.537E-01  2.000E+01  2.000E+04 -5.518E-02
   1   16    9     1     9    1.1120E+05 -1.0961E+03   1.1230E+05  0.000E+00  0.000E+00  0.000E+00  4.45978E+01  1.546E-01  2.000E+01  2.000E+04 -5.481E-02
   1   16   10     1    10    1.1230E+05 -1.0833E+03   1.1338E+05  0.000E+00  0.000E+00  0.000E+00  4.41214E+01  1.555E-01  2.000E+01  2.000E+04 -5.416E-02
   1   16   11     1    11    1.1338E+05 -1.0897E+03   1.1447E+05  0.000E+00  0.000E+00  0.000E+00  4.36451E+01  1.564E-01  2.000E+01  2.000E+04 -5.448E-02
   1   16   12     1    12    1.1447E+05 -1.8668E+03   1.1634E+05  0.000E+00  0.000E+00  0.000E+00  4.31690E+01  1.576E-01  2.000E+01  2.000E+04 -9.334E-02
   1   15   13     1    13    1.1634E+05 -1.6759E+03   1.1802E+05  0.000E+00  0.000E+00  0.000E+00  4.26932E+01  1.591E-01  2.000E+01  2.000E+04 -8.379E-02
   1   14   14     1    14    1.1802E+05 -1.8046E+03   1.1982E+05  0.000E+00  0.000E+00  0.000E+00  4.22173E+01  1.605E-01  2.000E+01  2.000E+04 -9.023E-02
   1   13   15     1    15    1.1982E+05 -1.7980E+03   1.2162E+05  0.000E+00  0.000E+00  0.000E+00  4.17415E+01  1.620E-01  2.000E+01  2.000E+04 -8.990E-02
   1   12   16     1    16    1.2162E+05 -1.1709E+03   1.2279E+05  0.000E+00  0.000E+00  0.000E+00  4.12654E+01  1.631E-01  2.000E+01  2.000E+04 -5.854E-02
   1   12   17     1    17    1.2279E+05  5.0469E+02   1.2228E+05  0.000E+00  0.000E+00  0.000E+00  4.07884E+01  1.634E-01  2.000E+01  2.000E+04  2.523E-02
   1   12   18     1    18    1.2228E+05  3.4253E+03   1.1886E+05  0.000E+00  0.000E+00  0.000E+00  4.03096E+01  1.618E-01  2.000E+01  2.000E+04  1.713E-01
   1   12   19     1    19    1.1886E+05  3.8068E+03   1.1505E+05  0.000E+00  0.000E+00  0.000E+00  3.98294E+01  1.589E-01  2.000E+01  2.000E+04  1.903E-01
   1   13   20     1    20    1.1505E+05 -4.7811E+02   1.1553E+05  0.000E+00  0.000E+00  0.000E+00  3.93507E+01  1.575E-01  2.000E+01  2.000E+04 -2.391E-02
   1   14   21     1    21    1.1553E+05 -1.3918E+03   1.1692E+05  0.000E+00  0.000E+00  0.000E+00  3.88742E+01  1.583E-01  2.000E+01  2.000E+04 -6.959E-02
   1   14   22     1    22    1.1692E+05  4.9023E+03   1.1202E+05  0.000E+00  0.000E+00  0.000E+00  3.83955E+01  1.569E-01  2.000E+01  2.000E+04  2.451E-01
   1    9   30     2     1    5.0000E+04 -3.7938E+02   5.0379E+04  0.000E+00  0.000E+00  0.000E+00  4.02411E+01  1.161E-01  2.000E+01  2.000E+04 -1.897E-02
   1    9   29     2     2    5.0379E+04 -6.4776E+02   5.1027E+04  0.000E+00  0.000E+00  0.000E+00  3.99918E+01  1.168E-01  2.000E+01  2.000E+04 -3.239E-02
   1    9   28     2     3    5.1027E+04 -8.2209E+02   5.1849E+04  0.000E+00  0.000E+00  0.000E+00  3.97429E+01  1.179E-01  2.000E+01  2.000E+04 -4.110E-02
   1    9   27     2     4    5.1849E+04 -1.5735E+03   5.3423E+04  0.000E+00  0.000E+00  0.000E+00  3.94945E+01  1.195E-01  2.000E+01  2.000E+04 -7.867E-02
   1   10   26     2     5    5.3423E+04 -7.9854E+02   5.4221E+04  0.000E+00  0.000E+00  0.000E+00  3.92461E+01  1.211E-01  2.000E+01  2.000E+04 -3.993E-02
   1   11   25     2     6    5.4221E+04 -5.4354E+02   5.4765E+04  0.000E+00  0.000E+00  0.000E+00  3.89970E+01  1.220E-01  2.000E+01  2.000E+04 -2.718E-02
   1   12   24     2     7    5.4765E+04 -4.9325E+02   5.5258E+04  0.000E+00  0.000E+00  0.000E+00  3.87477E+01  1.227E-01  2.000E+01  2.000E+04 -2.466E-02
   1   13   23     2     8    5.5258E+04 -6.0094E+01   5.5318E+04  0.000E+00  0.000E+00  0.000E+00  3.84981E+01  1.231E-01  2.000E+01  2.000E+04 -3.005E-03
   1   14   22     2     9    5.5318E+04  1.9285E+03   5.3390E+04  0.000E+00  0.000E+00  0.000E+00  3.82468E+01  1.218E-01  2.000E+01  2.000E+04  9.643E-02
   1   14   22     3     1    1.6541E+05 -8.5995E+03   1.7401E+05  0.000E+00  0.000E+00  0.000E+00  3.77204E+01  1.649E-01  2.000E+01  2.000E+04 -4.300E-01
   1   15   23     3     2    1.7401E+05 -5.5457E+02   1.7456E+05  0.000E+00  0.000E+00  0.000E+00  3.68342E+01  1.675E-01  2.000E+01  2.000E+04 -2.773E-02
   1   15   24     3     3    1.7456E+05 -2.7631E+02   1.7484E+05  0.000E+00  0.000E+00  0.000E+00  3.59455E+01  1.678E-01  2.000E+01  2.000E+04 -1.382E-02
   1   15   25     3     4    1.7484E+05 -2.6500E+02   1.7510E+05  0.000E+00  0.000E+00  0.000E+00  3.50568E+01  1.679E-01  2.000E+01  2.000E+04 -1.325E-02
   1   15   26     3     5    1.7510E+05 -3.0908E+02   1.7541E+05  0.000E+00  0.000E+00  0.000E+00  3.41681E+01  1.681E-01  2.000E+01  2.000E+04 -1.545E-02
   1   16   27     3     6    1.7541E+05 -3.4826E+02   1.7576E+05  0.000E+00  0.000E+00  0.000E+00  3.32794E+01  1.683E-01  2.000E+01  2.000E+04 -1.741E-02
   1   17   28     3     7    1.7576E+05 -1.5343E+03   1.7730E+05  0.000E+00  0.000E+00  0.000E+00  3.23910E+01  1.688E-01  2.000E+01  2.000E+04 -7.672E-02
   1   18   29     3     8    1.7730E+05 -2.9885E+03   1.8028E+05  0.000E+00  0.000E+00  0.000E+00  3.15034E+01  1.701E-01  2.000E+01  2.000E+04 -1.494E-01
   1   18   30     3     9    1.8028E+05 -3.2075E+03   1.8349E+05  0.000E+00  0.000E+00  0.000E+00  3.06163E+01  1.719E-01  2.000E+01  2.000E+04 -1.604E-01



1
              HEAD IN LAYER   1 AT END OF TIME STEP   1 IN STRESS PERIOD    5
  ---------------------------------------------------------------------------

          1      2      3      4      5      6      7      8      9     10
         11     12     13     14     15     16     17     18     19     20
         21     22     23     24     25     26     27     28     29     30
 .........................................................................
   1  ****** ****** ****** ****** ****** ****** ****** ****** ****** ******
      ****** ****** ****** ****** ****** ****** ****** ****** ****** ******
      ****** ****** ****** ****** ****** ****** ****** ****** ****** ******
   2  ****** ****** ****** ****** ****** ****** ****** ****** ****** ******
      ****** ****** ****** ****** ****** ****** ****** ****** ****** ******
      ****** ****** ****** ****** ****** ****** ****** ****** ****** ******
   3  ****** ****** ****** ****** ****** ****** ****** ****** ****** ******
      ****** ****** ****** ****** ****** ****** ****** ****** ****** ******
      ****** ****** ****** ****** ****** ****** ****** ****** ****** ******
   4  ****** ****** ****** ****** ****** ****** ****** ****** ****** ******
      ****** ****** ****** ****** ****** ****** ****** ****** ****** ******
      ****** ****** ****** ****** ****** ****** ****** ****** ****** ******
   5  ****** ****** ****** ****** ****** ****** ****** ****** ****** ******
      ****** ****** ****** ****** ****** ****** ****** ****** ****** ******
      ****** ****** ****** ****** ****** ****** ****** ****** ****** ******
   6  ****** ****** ****** ****** ****** ****** ****** ****** ****** ******
      ****** ****** ****** ****** ****** ****** ****** ****** ****** ******
      ****** ****** ****** ****** ****** ****** ****** ****** ****** ******
   7  ****** ****** ****** ****** ****** ****** ****** ****** ****** ******
      ****** ****** ****** ****** ****** ****** ****** ****** ****** ******
      ****** ****** ****** ****** ****** ****** ****** ****** ****** ******
   8  ****** ****** ****** ****** ****** ****** ****** ****** ****** ******
      ****** ****** ****** ****** ****** ****** ****** ****** ****** ******
      ****** ****** ****** ****** ****** ****** ****** ****** ****** ******
   9  ****** ****** ****** ****** ****** ****** ****** ****** ****** ******
      ****** ****** ****** ****** ****** ****** ****** ****** ****** ******
      ****** ****** ****** ****** ****** ****** ****** ****** ****** ******
  10  ****** ****** ****** ****** ****** ****** ****** ****** ****** ******
      ****** ****** ****** ****** ****** ****** ****** ****** ****** ******
      ****** ****** ****** ****** ****** ****** ****** ****** ****** ******
  11  ****** ****** ****** ****** ****** ****** ****** ****** ****** ******
      ****** ****** ****** ****** ****** ****** ****** ****** ****** ******
      ****** ****** ****** ****** ****** ****** ****** ****** ****** ******
  12  ****** ****** ****** ****** ****** ****** ****** ****** ****** ******
      ****** ****** ****** ****** ****** ****** ****** ****** ****** ******
      ****** ****** ****** ****** ****** ****** ****** ****** ****** ******
  13  ****** ****** ****** ****** ****** ****** ****** ****** ****** ******
      ****** ****** ****** ****** ****** ****** ****** ****** ****** ******
      ****** ****** ****** ****** ****** ****** ****** ****** ****** ******
  14  ****** ****** ****** ****** ****** ****** ****** ****** ****** ******
      ****** ****** ****** ****** ****** ****** ****** ****** ****** ******
      ****** ****** ****** ****** ****** ****** ****** ****** ****** ******
  15  ****** ****** ****** ****** ****** ****** ****** ****** ****** ******
      ****** ****** ****** ****** ****** ****** ****** ****** ****** ******
      ****** ****** ****** ****** ****** ****** ****** ****** ****** ******
  16  ****** ****** ****** ****** ****** ****** ****** ****** ****** ******
      ****** ****** ****** ****** ****** ****** ****** ****** ****** ******
      ****** ****** ****** ****** ****** ****** ****** ****** ****** ******
  17  ****** ****** ****** ****** ****** ****** ****** ****** ****** ******
      ****** ****** ****** ****** ****** ****** ****** ****** ****** ******
      ****** ****** ****** ****** ****** ****** ****** ****** ****** ******
  18  ****** ****** ****** ****** ****** ****** ****** ****** ****** ******
      ****** ****** ****** ****** ****** ****** ****** ****** ****** ******
      ****** ****** ****** ****** ****** ****** ****** ****** ****** ******
  19  ****** ****** ****** ****** ****** ****** ****** ****** ****** ******
      ****** ****** ****** ****** ****** ****** ****** ****** ****** ******
      ****** ****** ****** ****** ****** ****** ****** ****** ****** ******
  20  ****** ****** ****** ****** ****** ****** ****** ****** ****** ******
      ****** ****** ****** ****** ****** ****** ****** ****** ****** ******
      ****** ****** ****** ****** ****** ****** ****** ****** ****** ******
  21  ****** ****** ****** ****** ****** ****** ****** ****** ****** ******
      ****** ****** ****** ****** ****** ****** ****** ****** ****** ******
      ****** ****** ****** ****** ****** ****** ****** ****** ****** ******
  22  ****** ****** ****** ****** ****** ****** ****** ****** ****** ******
      ****** ****** ****** ****** ****** ****** ****** ****** ****** ******
      ****** ****** ****** ****** ****** ****** ****** ****** ****** ******
  23  ****** ****** ****** ****** ****** ****** ****** ****** ****** ******
      ****** ****** ****** ****** ****** ****** ****** ****** ****** ******
      ****** ****** ****** ****** ****** ****** ****** ****** ****** ******
  24  ****** ****** ****** ****** ****** ****** ****** ****** ****** ******
      ****** ****** ****** ****** ****** ****** ****** ****** ****** ******
      ****** ****** ****** ****** ****** ****** ****** ****** ****** ******
  25  ****** ****** ****** ****** ****** ****** ****** ****** ****** ******
      ****** ****** ****** ****** ****** ****** ****** ****** ****** ******
      ****** ****** ****** ****** ****** ****** ****** ****** ****** ******

 HEAD WILL BE SAVED ON UNIT   51 AT END OF TIME STEP    1, STRESS PERIOD    5
1
  VOLUMETRIC BUDGET FOR ENTIRE MODEL AT END OF TIME STEP    1, STRESS PERIOD   5
  ------------------------------------------------------------------------------

     CUMULATIVE VOLUMES      L**3       RATES FOR THIS TIME STEP      L**3/T
     ------------------                 ------------------------

           IN:                                      IN:
           ---                                      ---
             STORAGE =    30871830.3894               STORAGE =       18488.7788
       CONSTANT HEAD =    10544325.2737         CONSTANT HEAD =       31352.9151
               WELLS =           0.0000                 WELLS =           0.0000
            RECHARGE =    10074000.0000              RECHARGE =       13800.0000
      STREAM LEAKAGE =     4805269.4136        STREAM LEAKAGE =       14567.6364

            TOTAL IN =    56295425.0766              TOTAL IN =       78209.3303

          OUT:                                     OUT:
          ----                                     ----
             STORAGE =        1167.6908               STORAGE =           0.0000
       CONSTANT HEAD =           0.0000         CONSTANT HEAD =           0.0000
               WELLS =    13778414.1221                 WELLS =       30149.7027
            RECHARGE =           0.0000              RECHARGE =           0.0000
      STREAM LEAKAGE =    42515845.5169        STREAM LEAKAGE =       48059.6308

           TOTAL OUT =    56295427.3298             TOTAL OUT =       78209.3335

            IN - OUT =          -2.2531              IN - OUT =      -3.1317E-03

 PERCENT DISCREPANCY =          -0.00     PERCENT DISCREPANCY =          -0.00






         TIME SUMMARY AT END OF TIME STEP    1 IN STRESS PERIOD    5
                    SECONDS     MINUTES      HOURS       DAYS        YEARS
                    -----------------------------------------------------------
   TIME STEP LENGTH 7.94880E+06 1.32480E+05  2208.0      92.000     0.25188    
 STRESS PERIOD TIME 7.94880E+06 1.32480E+05  2208.0      92.000     0.25188    
         TOTAL TIME 3.94848E+07 6.58080E+05  10968.      457.00      1.2512    
1
1
                            STRESS PERIOD NO.    6, LENGTH =   91.00000    
                            -----------------------------------------------

                              NUMBER OF TIME STEPS =     1

                               MULTIPLIER FOR DELT =     1.500

                            INITIAL TIME STEP SIZE =   91.00000    

 WELL NO.  LAYER   ROW   COL   STRESS RATE         
 --------------------------------------------------
      1      1     11     18      -9961.    
      2      1      5     20     -0.1016E+05
      3      1     11     16      -434.0    
      4      1     11     19      -9596.    

      4 WELLS

                 RECHARGE =  2.000000E-03

 REUSING STREAM SEGMENT DATA FROM LAST STRESS PERIOD
 
 SOLVING FOR HEAD 


     7 CALLS TO PCG ROUTINE FOR TIME STEP   1 IN STRESS PERIOD    6
    26 TOTAL ITERATIONS

 OUTPUT CONTROL FOR STRESS PERIOD    6   TIME STEP    1
    SAVE BUDGET
    SAVE HEAD FOR ALL LAYERS
    PRINT HEAD FOR ALL LAYERS
 UBDSV2 SAVING "STREAMFLOW OUT  " ON UNIT  50 AT TIME STEP  1, STRESS PERIOD   6



 STREAM LISTING     PERIOD      6   STEP        1

 LAYER ROW COL. STREAM  RCH.  FLOW INTO     FLOW TO   FLOW OUT OF   OVRLND.     DIRECT     STREAM       STREAM     STREAM     STREAM   STREAMBED  STREAMBED
                SEG.NO.  NO.  STRM. RCH.    AQUIFER    STRM. RCH.    RUNOFF     PRECIP       ET          HEAD       DEPTH      WIDTH   CONDCTNC.   GRADIENT

   1   13    1     1     1    1.0000E+05 -2.3780E+03   1.0238E+05  0.000E+00  0.000E+00  0.000E+00  4.84070E+01  1.457E-01  2.000E+01  2.000E+04 -1.189E-01
   1   13    2     1     2    1.0238E+05 -3.4198E+03   1.0580E+05  0.000E+00  0.000E+00  0.000E+00  4.79323E+01  1.482E-01  2.000E+01  2.000E+04 -1.710E-01
   1   14    3     1     3    1.0580E+05 -6.5747E+02   1.0646E+05  0.000E+00  0.000E+00  0.000E+00  4.74567E+01  1.499E-01  2.000E+01  2.000E+04 -3.287E-02
   1   15    4     1     4    1.0646E+05 -6.3876E+02   1.0709E+05  0.000E+00  0.000E+00  0.000E+00  4.69800E+01  1.505E-01  2.000E+01  2.000E+04 -3.194E-02
   1   16    5     1     5    1.0709E+05 -2.2495E+03   1.0934E+05  0.000E+00  0.000E+00  0.000E+00  4.65039E+01  1.517E-01  2.000E+01  2.000E+04 -1.125E-01
   1   16    6     1     6    1.0934E+05 -1.4110E+03   1.1075E+05  0.000E+00  0.000E+00  0.000E+00  4.60282E+01  1.532E-01  2.000E+01  2.000E+04 -7.055E-02
   1   16    7     1     7    1.1075E+05 -1.3822E+03   1.1214E+05  0.000E+00  0.000E+00  0.000E+00  4.55521E+01  1.544E-01  2.000E+01  2.000E+04 -6.911E-02
   1   16    8     1     8    1.1214E+05 -1.3765E+03   1.1351E+05  0.000E+00  0.000E+00  0.000E+00  4.50760E+01  1.555E-01  2.000E+01  2.000E+04 -6.883E-02
   1   16    9     1     9    1.1351E+05 -1.3688E+03   1.1488E+05  0.000E+00  0.000E+00  0.000E+00  4.45998E+01  1.566E-01  2.000E+01  2.000E+04 -6.844E-02
   1   16   10     1    10    1.1488E+05 -1.3581E+03   1.1624E+05  0.000E+00  0.000E+00  0.000E+00  4.41237E+01  1.578E-01  2.000E+01  2.000E+04 -6.790E-02
   1   16   11     1    11    1.1624E+05 -1.3685E+03   1.1761E+05  0.000E+00  0.000E+00  0.000E+00  4.36475E+01  1.589E-01  2.000E+01  2.000E+04 -6.842E-02
   1   16   12     1    12    1.1761E+05 -2.3175E+03   1.1993E+05  0.000E+00  0.000E+00  0.000E+00  4.31717E+01  1.604E-01  2.000E+01  2.000E+04 -1.159E-01
   1   15   13     1    13    1.1993E+05 -2.1315E+03   1.2206E+05  0.000E+00  0.000E+00  0.000E+00  4.26963E+01  1.622E-01  2.000E+01  2.000E+04 -1.066E-01
   1   14   14     1    14    1.2206E+05 -2.2514E+03   1.2431E+05  0.000E+00  0.000E+00  0.000E+00  4.22207E+01  1.639E-01  2.000E+01  2.000E+04 -1.126E-01
   1   13   15     1    15    1.2431E+05 -2.2213E+03   1.2653E+05  0.000E+00  0.000E+00  0.000E+00  4.17453E+01  1.657E-01  2.000E+01  2.000E+04 -1.111E-01
   1   12   16     1    16    1.2653E+05 -1.5398E+03   1.2807E+05  0.000E+00  0.000E+00  0.000E+00  4.12695E+01  1.672E-01  2.000E+01  2.000E+04 -7.699E-02
   1   12   17     1    17    1.2807E+05  1.9916E+02   1.2787E+05  0.000E+00  0.000E+00  0.000E+00  4.07927E+01  1.677E-01  2.000E+01  2.000E+04  9.958E-03
   1   12   18     1    18    1.2787E+05  3.1153E+03   1.2476E+05  0.000E+00  0.000E+00  0.000E+00  4.03141E+01  1.664E-01  2.000E+01  2.000E+04  1.558E-01
   1   12   19     1    19    1.2476E+05  3.4238E+03   1.2133E+05  0.000E+00  0.000E+00  0.000E+00  3.98343E+01  1.638E-01  2.000E+01  2.000E+04  1.712E-01
   1   13   20     1    20    1.2133E+05 -8.9819E+02   1.2223E+05  0.000E+00  0.000E+00  0.000E+00  3.93560E+01  1.628E-01  2.000E+01  2.000E+04 -4.491E-02
   1   14   21     1    21    1.2223E+05 -1.8093E+03   1.2404E+05  0.000E+00  0.000E+00  0.000E+00  3.88798E+01  1.639E-01  2.000E+01  2.000E+04 -9.046E-02
   1   14   22     1    22    1.2404E+05  4.7959E+03   1.1924E+05  0.000E+00  0.000E+00  0.000E+00  3.84013E+01  1.627E-01  2.000E+01  2.000E+04  2.398E-01
   1    9   30     2     1    5.0000E+04 -7.3747E+02   5.0737E+04  0.000E+00  0.000E+00  0.000E+00  4.02414E+01  1.164E-01  2.000E+01  2.000E+04 -3.687E-02
   1    9   29     2     2    5.0737E+04 -1.0011E+03   5.1739E+04  0.000E+00  0.000E+00  0.000E+00  3.99926E+01  1.176E-01  2.000E+01  2.000E+04 -5.006E-02
   1    9   28     2     3    5.1739E+04 -1.1678E+03   5.2906E+04  0.000E+00  0.000E+00  0.000E+00  3.97441E+01  1.191E-01  2.000E+01  2.000E+04 -5.839E-02
   1    9   27     2     4    5.2906E+04 -2.0058E+03   5.4912E+04  0.000E+00  0.000E+00  0.000E+00  3.94962E+01  1.212E-01  2.000E+01  2.000E+04 -1.003E-01
   1   10   26     2     5    5.4912E+04 -1.2583E+03   5.6171E+04  0.000E+00  0.000E+00  0.000E+00  3.92484E+01  1.234E-01  2.000E+01  2.000E+04 -6.291E-02
   1   11   25     2     6    5.6171E+04 -9.8990E+02   5.7160E+04  0.000E+00  0.000E+00  0.000E+00  3.89999E+01  1.249E-01  2.000E+01  2.000E+04 -4.950E-02
   1   12   24     2     7    5.7160E+04 -8.9535E+02   5.8056E+04  0.000E+00  0.000E+00  0.000E+00  3.87511E+01  1.261E-01  2.000E+01  2.000E+04 -4.477E-02
   1   13   23     2     8    5.8056E+04 -1.9680E+02   5.8253E+04  0.000E+00  0.000E+00  0.000E+00  3.85019E+01  1.269E-01  2.000E+01  2.000E+04 -9.840E-03
   1   14   22     2     9    5.8253E+04  1.7856E+03   5.6467E+04  0.000E+00  0.000E+00  0.000E+00  3.82508E+01  1.258E-01  2.000E+01  2.000E+04  8.928E-02
   1   14   22     3     1    1.7571E+05 -8.7031E+03   1.8441E+05  0.000E+00  0.000E+00  0.000E+00  3.77264E+01  1.708E-01  2.000E+01  2.000E+04 -4.352E-01
   1   15   23     3     2    1.8441E+05 -6.9380E+02   1.8511E+05  0.000E+00  0.000E+00  0.000E+00  3.68402E+01  1.735E-01  2.000E+01  2.000E+04 -3.469E-02
   1   15   24     3     3    1.8511E+05 -3.9931E+02   1.8551E+05  0.000E+00  0.000E+00  0.000E+00  3.59516E+01  1.738E-01  2.000E+01  2.000E+04 -1.997E-02
   1   15   25     3     4    1.8551E+05 -3.9232E+02   1.8590E+05  0.000E+00  0.000E+00  0.000E+00  3.50629E+01  1.740E-01  2.000E+01  2.000E+04 -1.962E-02
   1   15   26     3     5    1.8590E+05 -4.6106E+02   1.8636E+05  0.000E+00  0.000E+00  0.000E+00  3.41743E+01  1.743E-01  2.000E+01  2.000E+04 -2.305E-02
   1   16   27     3     6    1.8636E+05 -5.1807E+02   1.8688E+05  0.000E+00  0.000E+00  0.000E+00  3.32856E+01  1.745E-01  2.000E+01  2.000E+04 -2.590E-02
   1   17   28     3     7    1.8688E+05 -2.0012E+03   1.8888E+05  0.000E+00  0.000E+00  0.000E+00  3.23975E+01  1.752E-01  2.000E+01  2.000E+04 -1.001E-01
   1   18   29     3     8    1.8888E+05 -3.4369E+03   1.9232E+05  0.000E+00  0.000E+00  0.000E+00  3.15101E+01  1.768E-01  2.000E+01  2.000E+04 -1.718E-01
   1   18   30     3     9    1.9232E+05 -3.5692E+03   1.9589E+05  0.000E+00  0.000E+00  0.000E+00  3.06231E+01  1.787E-01  2.000E+01  2.000E+04 -1.785E-01



1
              HEAD IN LAYER   1 AT END OF TIME STEP   1 IN STRESS PERIOD    6
  ---------------------------------------------------------------------------

          1      2      3      4      5      6      7      8      9     10
         11     12     13     14     15     16     17     18     19     20
         21     22     23     24     25     26     27     28     29     30
 .........................................................................
   1  ****** ****** ****** ****** ****** ****** ****** ****** ****** ******
      ****** ****** ****** ****** ****** ****** ****** ****** ****** ******
      ****** ****** ****** ****** ****** ****** ****** ****** ****** ******
   2  ****** ****** ****** ****** ****** ****** ****** ****** ****** ******
      ****** ****** ****** ****** ****** ****** ****** ****** ****** ******
      ****** ****** ****** ****** ****** ****** ****** ****** ****** ******
   3  ****** ****** ****** ****** ****** ****** ****** ****** ****** ******
      ****** ****** ****** ****** ****** ****** ****** ****** ****** ******
      ****** ****** ****** ****** ****** ****** ****** ****** ****** ******
   4  ****** ****** ****** ****** ****** ****** ****** ****** ****** ******
      ****** ****** ****** ****** ****** ****** ****** ****** ****** ******
      ****** ****** ****** ****** ****** ****** ****** ****** ****** ******
   5  ****** ****** ****** ****** ****** ****** ****** ****** ****** ******
      ****** ****** ****** ****** ****** ****** ****** ****** ****** ******
      ****** ****** ****** ****** ****** ****** ****** ****** ****** ******
   6  ****** ****** ****** ****** ****** ****** ****** ****** ****** ******
      ****** ****** ****** ****** ****** ****** ****** ****** ****** ******
      ****** ****** ****** ****** ****** ****** ****** ****** ****** ******
   7  ****** ****** ****** ****** ****** ****** ****** ****** ****** ******
      ****** ****** ****** ****** ****** ****** ****** ****** ****** ******
      ****** ****** ****** ****** ****** ****** ****** ****** ****** ******
   8  ****** ****** ****** ****** ****** ****** ****** ****** ****** ******
      ****** ****** ****** ****** ****** ****** ****** ****** ****** ******
      ****** ****** ****** ****** ****** ****** ****** ****** ****** ******
   9  ****** ****** ****** ****** ****** ****** ****** ****** ****** ******
      ****** ****** ****** ****** ****** ****** ****** ****** ****** ******
      ****** ****** ****** ****** ****** ****** ****** ****** ****** ******
  10  ****** ****** ****** ****** ****** ****** ****** ****** ****** ******
      ****** ****** ****** ****** ****** ****** ****** ****** ****** ******
      ****** ****** ****** ****** ****** ****** ****** ****** ****** ******
  11  ****** ****** ****** ****** ****** ****** ****** ****** ****** ******
      ****** ****** ****** ****** ****** ****** ****** ****** ****** ******
      ****** ****** ****** ****** ****** ****** ****** ****** ****** ******
  12  ****** ****** ****** ****** ****** ****** ****** ****** ****** ******
      ****** ****** ****** ****** ****** ****** ****** ****** ****** ******
      ****** ****** ****** ****** ****** ****** ****** ****** ****** ******
  13  ****** ****** ****** ****** ****** ****** ****** ****** ****** ******
      ****** ****** ****** ****** ****** ****** ****** ****** ****** ******
      ****** ****** ****** ****** ****** ****** ****** ****** ****** ******
  14  ****** ****** ****** ****** ****** ****** ****** ****** ****** ******
      ****** ****** ****** ****** ****** ****** ****** ****** ****** ******
      ****** ****** ****** ****** ****** ****** ****** ****** ****** ******
  15  ****** ****** ****** ****** ****** ****** ****** ****** ****** ******
      ****** ****** ****** ****** ****** ****** ****** ****** ****** ******
      ****** ****** ****** ****** ****** ****** ****** ****** ****** ******
  16  ****** ****** ****** ****** ****** ****** ****** ****** ****** ******
      ****** ****** ****** ****** ****** ****** ****** ****** ****** ******
      ****** ****** ****** ****** ****** ****** ****** ****** ****** ******
  17  ****** ****** ****** ****** ****** ****** ****** ****** ****** ******
      ****** ****** ****** ****** ****** ****** ****** ****** ****** ******
      ****** ****** ****** ****** ****** ****** ****** ****** ****** ******
  18  ****** ****** ****** ****** ****** ****** ****** ****** ****** ******
      ****** ****** ****** ****** ****** ****** ****** ****** ****** ******
      ****** ****** ****** ****** ****** ****** ****** ****** ****** ******
  19  ****** ****** ****** ****** ****** ****** ****** ****** ****** ******
      ****** ****** ****** ****** ****** ****** ****** ****** ****** ******
      ****** ****** ****** ****** ****** ****** ****** ****** ****** ******
  20  ****** ****** ****** ****** ****** ****** ****** ****** ****** ******
      ****** ****** ****** ****** ****** ****** ****** ****** ****** ******
      ****** ****** ****** ****** ****** ****** ****** ****** ****** ******
  21  ****** ****** ****** ****** ****** ****** ****** ****** ****** ******
      ****** ****** ****** ****** ****** ****** ****** ****** ****** ******
      ****** ****** ****** ****** ****** ****** ****** ****** ****** ******
  22  ****** ****** ****** ****** ****** ****** ****** ****** ****** ******
      ****** ****** ****** ****** ****** ****** ****** ****** ****** ******
      ****** ****** ****** ****** ****** ****** ****** ****** ****** ******
  23  ****** ****** ****** ****** ****** ****** ****** ****** ****** ******
      ****** ****** ****** ****** ****** ****** ****** ****** ****** ******
      ****** ****** ****** ****** ****** ****** ****** ****** ****** ******
  24  ****** ****** ****** ****** ****** ****** ****** ****** ****** ******
      ****** ****** ****** ****** ****** ****** ****** ****** ****** ******
      ****** ****** ****** ****** ****** ****** ****** ****** ****** ******
  25  ****** ****** ****** ****** ****** ****** ****** ****** ****** ******
      ****** ****** ****** ****** ****** ****** ****** ****** ****** ******
      ****** ****** ****** ****** ****** ****** ****** ****** ****** ******

 HEAD WILL BE SAVED ON UNIT   51 AT END OF TIME STEP    1, STRESS PERIOD    6
1
  VOLUMETRIC BUDGET FOR ENTIRE MODEL AT END OF TIME STEP    1, STRESS PERIOD   6
  ------------------------------------------------------------------------------

     CUMULATIVE VOLUMES      L**3       RATES FOR THIS TIME STEP      L**3/T
     ------------------                 ------------------------

           IN:                                      IN:
           ---                                      ---
             STORAGE =    30871830.3894               STORAGE =           0.0000
       CONSTANT HEAD =    13225428.5576         CONSTANT HEAD =       29462.6735
               WELLS =           0.0000                 WELLS =           0.0000
            RECHARGE =    15097200.0000              RECHARGE =       55200.0000
      STREAM LEAKAGE =     6017369.0107        STREAM LEAKAGE =       13319.7758

            TOTAL IN =    65211827.9577              TOTAL IN =       97982.4492

          OUT:                                     OUT:
          ----                                     ----
             STORAGE =      786288.3349               STORAGE =        8627.6994
       CONSTANT HEAD =           0.0000         CONSTANT HEAD =           0.0000
               WELLS =    16522037.0654                 WELLS =       30149.7027
            RECHARGE =           0.0000              RECHARGE =           0.0000
      STREAM LEAKAGE =    47903504.5516        STREAM LEAKAGE =       59205.0443

           TOTAL OUT =    65211829.9519             TOTAL OUT =       97982.4464

            IN - OUT =          -1.9942              IN - OUT =       2.8449E-03

 PERCENT DISCREPANCY =          -0.00     PERCENT DISCREPANCY =           0.00






         TIME SUMMARY AT END OF TIME STEP    1 IN STRESS PERIOD    6
                    SECONDS     MINUTES      HOURS       DAYS        YEARS
                    -----------------------------------------------------------
   TIME STEP LENGTH 7.86240E+06 1.31040E+05  2184.0      91.000     0.24914    
 STRESS PERIOD TIME 7.86240E+06 1.31040E+05  2184.0      91.000     0.24914    
         TOTAL TIME 4.73472E+07 7.89120E+05  13152.      548.00      1.5003    
1
1
                            STRESS PERIOD NO.    7, LENGTH =   91.00000    
                            -----------------------------------------------

                              NUMBER OF TIME STEPS =     1

                               MULTIPLIER FOR DELT =     1.500

                            INITIAL TIME STEP SIZE =   91.00000    

 WELL NO.  LAYER   ROW   COL   STRESS RATE         
 --------------------------------------------------
      1      1     11     18      -9961.    
      2      1      5     20     -0.1016E+05
      3      1     11     16      -434.0    
      4      1     11     19      -9596.    

      4 WELLS

                 RECHARGE =   0.00000    

 REUSING STREAM SEGMENT DATA FROM LAST STRESS PERIOD
 
 SOLVING FOR HEAD 


     7 CALLS TO PCG ROUTINE FOR TIME STEP   1 IN STRESS PERIOD    7
    26 TOTAL ITERATIONS

 OUTPUT CONTROL FOR STRESS PERIOD    7   TIME STEP    1
    SAVE BUDGET
    SAVE HEAD FOR ALL LAYERS
    PRINT HEAD FOR ALL LAYERS
 UBDSV2 SAVING "STREAMFLOW OUT  " ON UNIT  50 AT TIME STEP  1, STRESS PERIOD   7



 STREAM LISTING     PERIOD      7   STEP        1

 LAYER ROW COL. STREAM  RCH.  FLOW INTO     FLOW TO   FLOW OUT OF   OVRLND.     DIRECT     STREAM       STREAM     STREAM     STREAM   STREAMBED  STREAMBED
                SEG.NO.  NO.  STRM. RCH.    AQUIFER    STRM. RCH.    RUNOFF     PRECIP       ET          HEAD       DEPTH      WIDTH   CONDCTNC.   GRADIENT

   1   13    1     1     1    1.0000E+05 -1.7075E+03   1.0171E+05  0.000E+00  0.000E+00  0.000E+00  4.84068E+01  1.454E-01  2.000E+01  2.000E+04 -8.537E-02
   1   13    2     1     2    1.0171E+05 -2.6695E+03   1.0438E+05  0.000E+00  0.000E+00  0.000E+00  4.79314E+01  1.473E-01  2.000E+01  2.000E+04 -1.335E-01
   1   14    3     1     3    1.0438E+05 -4.0506E+02   1.0478E+05  0.000E+00  0.000E+00  0.000E+00  4.74554E+01  1.486E-01  2.000E+01  2.000E+04 -2.025E-02
   1   15    4     1     4    1.0478E+05 -3.7584E+02   1.0516E+05  0.000E+00  0.000E+00  0.000E+00  4.69785E+01  1.489E-01  2.000E+01  2.000E+04 -1.879E-02
   1   16    5     1     5    1.0516E+05 -1.4980E+03   1.0666E+05  0.000E+00  0.000E+00  0.000E+00  4.65020E+01  1.497E-01  2.000E+01  2.000E+04 -7.490E-02
   1   16    6     1     6    1.0666E+05 -9.5732E+02   1.0761E+05  0.000E+00  0.000E+00  0.000E+00  4.60258E+01  1.508E-01  2.000E+01  2.000E+04 -4.787E-02
   1   16    7     1     7    1.0761E+05 -9.4682E+02   1.0856E+05  0.000E+00  0.000E+00  0.000E+00  4.55493E+01  1.516E-01  2.000E+01  2.000E+04 -4.734E-02
   1   16    8     1     8    1.0856E+05 -9.4716E+02   1.0951E+05  0.000E+00  0.000E+00  0.000E+00  4.50728E+01  1.524E-01  2.000E+01  2.000E+04 -4.736E-02
   1   16    9     1     9    1.0951E+05 -9.4272E+02   1.1045E+05  0.000E+00  0.000E+00  0.000E+00  4.45963E+01  1.531E-01  2.000E+01  2.000E+04 -4.714E-02
   1   16   10     1    10    1.1045E+05 -9.3467E+02   1.1138E+05  0.000E+00  0.000E+00  0.000E+00  4.41198E+01  1.539E-01  2.000E+01  2.000E+04 -4.673E-02
   1   16   11     1    11    1.1138E+05 -9.4432E+02   1.1233E+05  0.000E+00  0.000E+00  0.000E+00  4.36433E+01  1.547E-01  2.000E+01  2.000E+04 -4.722E-02
   1   16   12     1    12    1.1233E+05 -1.6046E+03   1.1393E+05  0.000E+00  0.000E+00  0.000E+00  4.31671E+01  1.558E-01  2.000E+01  2.000E+04 -8.023E-02
   1   15   13     1    13    1.1393E+05 -1.3637E+03   1.1530E+05  0.000E+00  0.000E+00  0.000E+00  4.26911E+01  1.570E-01  2.000E+01  2.000E+04 -6.819E-02
   1   14   14     1    14    1.1530E+05 -1.4538E+03   1.1675E+05  0.000E+00  0.000E+00  0.000E+00  4.22150E+01  1.581E-01  2.000E+01  2.000E+04 -7.269E-02
   1   13   15     1    15    1.1675E+05 -1.4193E+03   1.1817E+05  0.000E+00  0.000E+00  0.000E+00  4.17389E+01  1.593E-01  2.000E+01  2.000E+04 -7.097E-02
   1   12   16     1    16    1.1817E+05 -7.3981E+02   1.1891E+05  0.000E+00  0.000E+00  0.000E+00  4.12625E+01  1.602E-01  2.000E+01  2.000E+04 -3.699E-02
   1   12   17     1    17    1.1891E+05  7.7915E+02   1.1813E+05  0.000E+00  0.000E+00  0.000E+00  4.07852E+01  1.602E-01  2.000E+01  2.000E+04  3.896E-02
   1   12   18     1    18    1.1813E+05  3.6808E+03   1.1445E+05  0.000E+00  0.000E+00  0.000E+00  4.03061E+01  1.584E-01  2.000E+01  2.000E+04  1.840E-01
   1   12   19     1    19    1.1445E+05  4.1157E+03   1.1033E+05  0.000E+00  0.000E+00  0.000E+00  3.98256E+01  1.552E-01  2.000E+01  2.000E+04  2.058E-01
   1   13   20     1    20    1.1033E+05 -2.2888E+02   1.1056E+05  0.000E+00  0.000E+00  0.000E+00  3.93467E+01  1.535E-01  2.000E+01  2.000E+04 -1.144E-02
   1   14   21     1    21    1.1056E+05 -1.1527E+03   1.1172E+05  0.000E+00  0.000E+00  0.000E+00  3.88700E+01  1.541E-01  2.000E+01  2.000E+04 -5.764E-02
   1   14   22     1    22    1.1172E+05  4.9508E+03   1.0677E+05  0.000E+00  0.000E+00  0.000E+00  3.83912E+01  1.525E-01  2.000E+01  2.000E+04  2.475E-01
   1    9   30     2     1    5.0000E+04 -2.2110E+02   5.0221E+04  0.000E+00  0.000E+00  0.000E+00  4.02410E+01  1.160E-01  2.000E+01  2.000E+04 -1.105E-02
   1    9   29     2     2    5.0221E+04 -4.8640E+02   5.0707E+04  0.000E+00  0.000E+00  0.000E+00  3.99915E+01  1.165E-01  2.000E+01  2.000E+04 -2.432E-02
   1    9   28     2     3    5.0707E+04 -6.5126E+02   5.1359E+04  0.000E+00  0.000E+00  0.000E+00  3.97423E+01  1.173E-01  2.000E+01  2.000E+04 -3.256E-02
   1    9   27     2     4    5.1359E+04 -1.3020E+03   5.2661E+04  0.000E+00  0.000E+00  0.000E+00  3.94936E+01  1.186E-01  2.000E+01  2.000E+04 -6.510E-02
   1   10   26     2     5    5.2661E+04 -5.5418E+02   5.3215E+04  0.000E+00  0.000E+00  0.000E+00  3.92449E+01  1.199E-01  2.000E+01  2.000E+04 -2.771E-02
   1   11   25     2     6    5.3215E+04 -3.1512E+02   5.3530E+04  0.000E+00  0.000E+00  0.000E+00  3.89955E+01  1.205E-01  2.000E+01  2.000E+04 -1.576E-02
   1   12   24     2     7    5.3530E+04 -2.8004E+02   5.3810E+04  0.000E+00  0.000E+00  0.000E+00  3.87459E+01  1.209E-01  2.000E+01  2.000E+04 -1.400E-02
   1   13   23     2     8    5.3810E+04 -4.3549E+00   5.3815E+04  0.000E+00  0.000E+00  0.000E+00  3.84961E+01  1.211E-01  2.000E+01  2.000E+04 -2.177E-04
   1   14   22     2     9    5.3815E+04  2.0219E+03   5.1793E+04  0.000E+00  0.000E+00  0.000E+00  3.82447E+01  1.197E-01  2.000E+01  2.000E+04  1.011E-01
   1   14   22     3     1    1.5856E+05 -8.5450E+03   1.6710E+05  0.000E+00  0.000E+00  0.000E+00  3.77164E+01  1.608E-01  2.000E+01  2.000E+04 -4.272E-01
   1   15   23     3     2    1.6710E+05 -4.8891E+02   1.6759E+05  0.000E+00  0.000E+00  0.000E+00  3.68301E+01  1.635E-01  2.000E+01  2.000E+04 -2.445E-02
   1   15   24     3     3    1.6759E+05 -2.2657E+02   1.6782E+05  0.000E+00  0.000E+00  0.000E+00  3.59415E+01  1.637E-01  2.000E+01  2.000E+04 -1.133E-02
   1   15   25     3     4    1.6782E+05 -2.1641E+02   1.6803E+05  0.000E+00  0.000E+00  0.000E+00  3.50527E+01  1.638E-01  2.000E+01  2.000E+04 -1.082E-02
   1   15   26     3     5    1.6803E+05 -2.6039E+02   1.6830E+05  0.000E+00  0.000E+00  0.000E+00  3.41640E+01  1.640E-01  2.000E+01  2.000E+04 -1.302E-02
   1   16   27     3     6    1.6830E+05 -2.8669E+02   1.6858E+05  0.000E+00  0.000E+00  0.000E+00  3.32752E+01  1.641E-01  2.000E+01  2.000E+04 -1.433E-02
   1   17   28     3     7    1.6858E+05 -1.3631E+03   1.6994E+05  0.000E+00  0.000E+00  0.000E+00  3.23868E+01  1.646E-01  2.000E+01  2.000E+04 -6.815E-02
   1   18   29     3     8    1.6994E+05 -2.7579E+03   1.7270E+05  0.000E+00  0.000E+00  0.000E+00  3.14991E+01  1.658E-01  2.000E+01  2.000E+04 -1.379E-01
   1   18   30     3     9    1.7270E+05 -3.0449E+03   1.7575E+05  0.000E+00  0.000E+00  0.000E+00  3.06119E+01  1.675E-01  2.000E+01  2.000E+04 -1.522E-01



1
              HEAD IN LAYER   1 AT END OF TIME STEP   1 IN STRESS PERIOD    7
  ---------------------------------------------------------------------------

          1      2      3      4      5      6      7      8      9     10
         11     12     13     14     15     16     17     18     19     20
         21     22     23     24     25     26     27     28     29     30
 .........................................................................
   1  ****** ****** ****** ****** ****** ****** ****** ****** ****** ******
      ****** ****** ****** ****** ****** ****** ****** ****** ****** ******
      ****** ****** ****** ****** ****** ****** ****** ****** ****** ******
   2  ****** ****** ****** ****** ****** ****** ****** ****** ****** ******
      ****** ****** ****** ****** ****** ****** ****** ****** ****** ******
      ****** ****** ****** ****** ****** ****** ****** ****** ****** ******
   3  ****** ****** ****** ****** ****** ****** ****** ****** ****** ******
      ****** ****** ****** ****** ****** ****** ****** ****** ****** ******
      ****** ****** ****** ****** ****** ****** ****** ****** ****** ******
   4  ****** ****** ****** ****** ****** ****** ****** ****** ****** ******
      ****** ****** ****** ****** ****** ****** ****** ****** ****** ******
      ****** ****** ****** ****** ****** ****** ****** ****** ****** ******
   5  ****** ****** ****** ****** ****** ****** ****** ****** ****** ******
      ****** ****** ****** ****** ****** ****** ****** ****** ****** ******
      ****** ****** ****** ****** ****** ****** ****** ****** ****** ******
   6  ****** ****** ****** ****** ****** ****** ****** ****** ****** ******
      ****** ****** ****** ****** ****** ****** ****** ****** ****** ******
      ****** ****** ****** ****** ****** ****** ****** ****** ****** ******
   7  ****** ****** ****** ****** ****** ****** ****** ****** ****** ******
      ****** ****** ****** ****** ****** ****** ****** ****** ****** ******
      ****** ****** ****** ****** ****** ****** ****** ****** ****** ******
   8  ****** ****** ****** ****** ****** ****** ****** ****** ****** ******
      ****** ****** ****** ****** ****** ****** ****** ****** ****** ******
      ****** ****** ****** ****** ****** ****** ****** ****** ****** ******
   9  ****** ****** ****** ****** ****** ****** ****** ****** ****** ******
      ****** ****** ****** ****** ****** ****** ****** ****** ****** ******
      ****** ****** ****** ****** ****** ****** ****** ****** ****** ******
  10  ****** ****** ****** ****** ****** ****** ****** ****** ****** ******
      ****** ****** ****** ****** ****** ****** ****** ****** ****** ******
      ****** ****** ****** ****** ****** ****** ****** ****** ****** ******
  11  ****** ****** ****** ****** ****** ****** ****** ****** ****** ******
      ****** ****** ****** ****** ****** ****** ****** ****** ****** ******
      ****** ****** ****** ****** ****** ****** ****** ****** ****** ******
  12  ****** ****** ****** ****** ****** ****** ****** ****** ****** ******
      ****** ****** ****** ****** ****** ****** ****** ****** ****** ******
      ****** ****** ****** ****** ****** ****** ****** ****** ****** ******
  13  ****** ****** ****** ****** ****** ****** ****** ****** ****** ******
      ****** ****** ****** ****** ****** ****** ****** ****** ****** ******
      ****** ****** ****** ****** ****** ****** ****** ****** ****** ******
  14  ****** ****** ****** ****** ****** ****** ****** ****** ****** ******
      ****** ****** ****** ****** ****** ****** ****** ****** ****** ******
      ****** ****** ****** ****** ****** ****** ****** ****** ****** ******
  15  ****** ****** ****** ****** ****** ****** ****** ****** ****** ******
      ****** ****** ****** ****** ****** ****** ****** ****** ****** ******
      ****** ****** ****** ****** ****** ****** ****** ****** ****** ******
  16  ****** ****** ****** ****** ****** ****** ****** ****** ****** ******
      ****** ****** ****** ****** ****** ****** ****** ****** ****** ******
      ****** ****** ****** ****** ****** ****** ****** ****** ****** ******
  17  ****** ****** ****** ****** ****** ****** ****** ****** ****** ******
      ****** ****** ****** ****** ****** ****** ****** ****** ****** ******
      ****** ****** ****** ****** ****** ****** ****** ****** ****** ******
  18  ****** ****** ****** ****** ****** ****** ****** ****** ****** ******
      ****** ****** ****** ****** ****** ****** ****** ****** ****** ******
      ****** ****** ****** ****** ****** ****** ****** ****** ****** ******
  19  ****** ****** ****** ****** ****** ****** ****** ****** ****** ******
      ****** ****** ****** ****** ****** ****** ****** ****** ****** ******
      ****** ****** ****** ****** ****** ****** ****** ****** ****** ******
  20  ****** ****** ****** ****** ****** ****** ****** ****** ****** ******
      ****** ****** ****** ****** ****** ****** ****** ****** ****** ******
      ****** ****** ****** ****** ****** ****** ****** ****** ****** ******
  21  ****** ****** ****** ****** ****** ****** ****** ****** ****** ******
      ****** ****** ****** ****** ****** ****** ****** ****** ****** ******
      ****** ****** ****** ****** ****** ****** ****** ****** ****** ******
  22  ****** ****** ****** ****** ****** ****** ****** ****** ****** ******
      ****** ****** ****** ****** ****** ****** ****** ****** ****** ******
      ****** ****** ****** ****** ****** ****** ****** ****** ****** ******
  23  ****** ****** ****** ****** ****** ****** ****** ****** ****** ******
      ****** ****** ****** ****** ****** ****** ****** ****** ****** ******
      ****** ****** ****** ****** ****** ****** ****** ****** ****** ******
  24  ****** ****** ****** ****** ****** ****** ****** ****** ****** ******
      ****** ****** ****** ****** ****** ****** ****** ****** ****** ******
      ****** ****** ****** ****** ****** ****** ****** ****** ****** ******
  25  ****** ****** ****** ****** ****** ****** ****** ****** ****** ******
      ****** ****** ****** ****** ****** ****** ****** ****** ****** ******
      ****** ****** ****** ****** ****** ****** ****** ****** ****** ******

 HEAD WILL BE SAVED ON UNIT   51 AT END OF TIME STEP    1, STRESS PERIOD    7
1
  VOLUMETRIC BUDGET FOR ENTIRE MODEL AT END OF TIME STEP    1, STRESS PERIOD   7
  ------------------------------------------------------------------------------

     CUMULATIVE VOLUMES      L**3       RATES FOR THIS TIME STEP      L**3/T
     ------------------                 ------------------------

           IN:                                      IN:
           ---                                      ---
             STORAGE =    32918916.3219               STORAGE =       22495.4498
       CONSTANT HEAD =    16264994.9881         CONSTANT HEAD =       33401.8289
               WELLS =           0.0000                 WELLS =           0.0000
            RECHARGE =    15097200.0000              RECHARGE =           0.0000
      STREAM LEAKAGE =     7432275.4389        STREAM LEAKAGE =       15548.4223

            TOTAL IN =    71713386.7489              TOTAL IN =       71445.7010

          OUT:                                     OUT:
          ----                                     ----
             STORAGE =      786288.3349               STORAGE =           0.0000
       CONSTANT HEAD =           0.0000         CONSTANT HEAD =           0.0000
               WELLS =    19265660.0088                 WELLS =       30149.7027
            RECHARGE =           0.0000              RECHARGE =           0.0000
      STREAM LEAKAGE =    51661440.8965        STREAM LEAKAGE =       41296.0038

           TOTAL OUT =    71713389.2402             TOTAL OUT =       71445.7065

            IN - OUT =          -2.4913              IN - OUT =      -5.4618E-03

 PERCENT DISCREPANCY =          -0.00     PERCENT DISCREPANCY =          -0.00






         TIME SUMMARY AT END OF TIME STEP    1 IN STRESS PERIOD    7
                    SECONDS     MINUTES      HOURS       DAYS        YEARS
                    -----------------------------------------------------------
   TIME STEP LENGTH 7.86240E+06 1.31040E+05  2184.0      91.000     0.24914    
 STRESS PERIOD TIME 7.86240E+06 1.31040E+05  2184.0      91.000     0.24914    
         TOTAL TIME 5.52096E+07 9.20160E+05  15336.      639.00      1.7495    
1
1
                            STRESS PERIOD NO.    8, LENGTH =   91.00000    
                            -----------------------------------------------

                              NUMBER OF TIME STEPS =     1

                               MULTIPLIER FOR DELT =     1.500

                            INITIAL TIME STEP SIZE =   91.00000    

 WELL NO.  LAYER   ROW   COL   STRESS RATE         
 --------------------------------------------------
      1      1     11     18      -9961.    
      2      1      5     20     -0.1016E+05
      3      1     11     16      -434.0    
      4      1     11     19      -9596.    

      4 WELLS

                 RECHARGE =  1.000000E-03

 REUSING STREAM SEGMENT DATA FROM LAST STRESS PERIOD
 
 SOLVING FOR HEAD 


     6 CALLS TO PCG ROUTINE FOR TIME STEP   1 IN STRESS PERIOD    8
    22 TOTAL ITERATIONS

 OUTPUT CONTROL FOR STRESS PERIOD    8   TIME STEP    1
    SAVE BUDGET
    SAVE HEAD FOR ALL LAYERS
    PRINT HEAD FOR ALL LAYERS
 UBDSV2 SAVING "STREAMFLOW OUT  " ON UNIT  50 AT TIME STEP  1, STRESS PERIOD   8



 STREAM LISTING     PERIOD      8   STEP        1

 LAYER ROW COL. STREAM  RCH.  FLOW INTO     FLOW TO   FLOW OUT OF   OVRLND.     DIRECT     STREAM       STREAM     STREAM     STREAM   STREAMBED  STREAMBED
                SEG.NO.  NO.  STRM. RCH.    AQUIFER    STRM. RCH.    RUNOFF     PRECIP       ET          HEAD       DEPTH      WIDTH   CONDCTNC.   GRADIENT

   1   13    1     1     1    1.0000E+05 -1.7775E+03   1.0178E+05  0.000E+00  0.000E+00  0.000E+00  4.84068E+01  1.454E-01  2.000E+01  2.000E+04 -8.887E-02
   1   13    2     1     2    1.0178E+05 -2.7385E+03   1.0452E+05  0.000E+00  0.000E+00  0.000E+00  4.79315E+01  1.474E-01  2.000E+01  2.000E+04 -1.369E-01
   1   14    3     1     3    1.0452E+05 -4.6865E+02   1.0498E+05  0.000E+00  0.000E+00  0.000E+00  4.74556E+01  1.487E-01  2.000E+01  2.000E+04 -2.343E-02
   1   15    4     1     4    1.0498E+05 -4.4426E+02   1.0543E+05  0.000E+00  0.000E+00  0.000E+00  4.69787E+01  1.491E-01  2.000E+01  2.000E+04 -2.221E-02
   1   16    5     1     5    1.0543E+05 -1.6729E+03   1.0710E+05  0.000E+00  0.000E+00  0.000E+00  4.65023E+01  1.500E-01  2.000E+01  2.000E+04 -8.365E-02
   1   16    6     1     6    1.0710E+05 -1.0646E+03   1.0817E+05  0.000E+00  0.000E+00  0.000E+00  4.60262E+01  1.512E-01  2.000E+01  2.000E+04 -5.323E-02
   1   16    7     1     7    1.0817E+05 -1.0490E+03   1.0922E+05  0.000E+00  0.000E+00  0.000E+00  4.55498E+01  1.521E-01  2.000E+01  2.000E+04 -5.245E-02
   1   16    8     1     8    1.0922E+05 -1.0485E+03   1.1026E+05  0.000E+00  0.000E+00  0.000E+00  4.50734E+01  1.529E-01  2.000E+01  2.000E+04 -5.243E-02
   1   16    9     1     9    1.1026E+05 -1.0454E+03   1.1131E+05  0.000E+00  0.000E+00  0.000E+00  4.45970E+01  1.538E-01  2.000E+01  2.000E+04 -5.227E-02
   1   16   10     1    10    1.1131E+05 -1.0400E+03   1.1235E+05  0.000E+00  0.000E+00  0.000E+00  4.41206E+01  1.547E-01  2.000E+01  2.000E+04 -5.200E-02
   1   16   11     1    11    1.1235E+05 -1.0531E+03   1.1340E+05  0.000E+00  0.000E+00  0.000E+00  4.36442E+01  1.556E-01  2.000E+01  2.000E+04 -5.265E-02
   1   16   12     1    12    1.1340E+05 -1.7674E+03   1.1517E+05  0.000E+00  0.000E+00  0.000E+00  4.31681E+01  1.567E-01  2.000E+01  2.000E+04 -8.837E-02
   1   15   13     1    13    1.1517E+05 -1.5313E+03   1.1670E+05  0.000E+00  0.000E+00  0.000E+00  4.26922E+01  1.581E-01  2.000E+01  2.000E+04 -7.657E-02
   1   14   14     1    14    1.1670E+05 -1.6129E+03   1.1831E+05  0.000E+00  0.000E+00  0.000E+00  4.22162E+01  1.594E-01  2.000E+01  2.000E+04 -8.064E-02
   1   13   15     1    15    1.1831E+05 -1.5640E+03   1.1988E+05  0.000E+00  0.000E+00  0.000E+00  4.17402E+01  1.606E-01  2.000E+01  2.000E+04 -7.820E-02
   1   12   16     1    16    1.1988E+05 -8.4342E+02   1.2072E+05  0.000E+00  0.000E+00  0.000E+00  4.12639E+01  1.616E-01  2.000E+01  2.000E+04 -4.217E-02
   1   12   17     1    17    1.2072E+05  6.7162E+02   1.2005E+05  0.000E+00  0.000E+00  0.000E+00  4.07867E+01  1.617E-01  2.000E+01  2.000E+04  3.358E-02
   1   12   18     1    18    1.2005E+05  3.5661E+03   1.1648E+05  0.000E+00  0.000E+00  0.000E+00  4.03077E+01  1.600E-01  2.000E+01  2.000E+04  1.783E-01
   1   12   19     1    19    1.1648E+05  3.9714E+03   1.1251E+05  0.000E+00  0.000E+00  0.000E+00  3.98273E+01  1.569E-01  2.000E+01  2.000E+04  1.986E-01
   1   13   20     1    20    1.1251E+05 -4.0609E+02   1.1292E+05  0.000E+00  0.000E+00  0.000E+00  3.93486E+01  1.554E-01  2.000E+01  2.000E+04 -2.030E-02
   1   14   21     1    21    1.1292E+05 -1.3131E+03   1.1423E+05  0.000E+00  0.000E+00  0.000E+00  3.88720E+01  1.561E-01  2.000E+01  2.000E+04 -6.566E-02
   1   14   22     1    22    1.1423E+05  4.9032E+03   1.0933E+05  0.000E+00  0.000E+00  0.000E+00  3.83933E+01  1.546E-01  2.000E+01  2.000E+04  2.452E-01
   1    9   30     2     1    5.0000E+04 -3.8243E+02   5.0382E+04  0.000E+00  0.000E+00  0.000E+00  4.02411E+01  1.161E-01  2.000E+01  2.000E+04 -1.912E-02
   1    9   29     2     2    5.0382E+04 -6.4482E+02   5.1027E+04  0.000E+00  0.000E+00  0.000E+00  3.99918E+01  1.168E-01  2.000E+01  2.000E+04 -3.224E-02
   1    9   28     2     3    5.1027E+04 -8.0381E+02   5.1831E+04  0.000E+00  0.000E+00  0.000E+00  3.97428E+01  1.178E-01  2.000E+01  2.000E+04 -4.019E-02
   1    9   27     2     4    5.1831E+04 -1.4755E+03   5.3307E+04  0.000E+00  0.000E+00  0.000E+00  3.94944E+01  1.194E-01  2.000E+01  2.000E+04 -7.378E-02
   1   10   26     2     5    5.3307E+04 -7.5578E+02   5.4062E+04  0.000E+00  0.000E+00  0.000E+00  3.92459E+01  1.209E-01  2.000E+01  2.000E+04 -3.779E-02
   1   11   25     2     6    5.4062E+04 -5.1556E+02   5.4578E+04  0.000E+00  0.000E+00  0.000E+00  3.89968E+01  1.218E-01  2.000E+01  2.000E+04 -2.578E-02
   1   12   24     2     7    5.4578E+04 -4.6183E+02   5.5040E+04  0.000E+00  0.000E+00  0.000E+00  3.87474E+01  1.224E-01  2.000E+01  2.000E+04 -2.309E-02
   1   13   23     2     8    5.5040E+04 -7.8157E+01   5.5118E+04  0.000E+00  0.000E+00  0.000E+00  3.84978E+01  1.228E-01  2.000E+01  2.000E+04 -3.908E-03
   1   14   22     2     9    5.5118E+04  1.9680E+03   5.3150E+04  0.000E+00  0.000E+00  0.000E+00  3.82465E+01  1.215E-01  2.000E+01  2.000E+04  9.840E-02
   1   14   22     3     1    1.6248E+05 -8.5885E+03   1.7107E+05  0.000E+00  0.000E+00  0.000E+00  3.77187E+01  1.631E-01  2.000E+01  2.000E+04 -4.294E-01
   1   15   23     3     2    1.7107E+05 -5.5380E+02   1.7162E+05  0.000E+00  0.000E+00  0.000E+00  3.68325E+01  1.658E-01  2.000E+01  2.000E+04 -2.769E-02
   1   15   24     3     3    1.7162E+05 -2.8747E+02   1.7191E+05  0.000E+00  0.000E+00  0.000E+00  3.59438E+01  1.661E-01  2.000E+01  2.000E+04 -1.437E-02
   1   15   25     3     4    1.7191E+05 -2.7899E+02   1.7219E+05  0.000E+00  0.000E+00  0.000E+00  3.50551E+01  1.662E-01  2.000E+01  2.000E+04 -1.395E-02
   1   15   26     3     5    1.7219E+05 -3.3527E+02   1.7252E+05  0.000E+00  0.000E+00  0.000E+00  3.41664E+01  1.664E-01  2.000E+01  2.000E+04 -1.676E-02
   1   16   27     3     6    1.7252E+05 -3.6894E+02   1.7289E+05  0.000E+00  0.000E+00  0.000E+00  3.32777E+01  1.666E-01  2.000E+01  2.000E+04 -1.845E-02
   1   17   28     3     7    1.7289E+05 -1.5683E+03   1.7446E+05  0.000E+00  0.000E+00  0.000E+00  3.23894E+01  1.672E-01  2.000E+01  2.000E+04 -7.841E-02
   1   18   29     3     8    1.7446E+05 -2.9265E+03   1.7739E+05  0.000E+00  0.000E+00  0.000E+00  3.15018E+01  1.685E-01  2.000E+01  2.000E+04 -1.463E-01
   1   18   30     3     9    1.7739E+05 -3.1936E+03   1.8058E+05  0.000E+00  0.000E+00  0.000E+00  3.06147E+01  1.702E-01  2.000E+01  2.000E+04 -1.597E-01



1
              HEAD IN LAYER   1 AT END OF TIME STEP   1 IN STRESS PERIOD    8
  ---------------------------------------------------------------------------

          1      2      3      4      5      6      7      8      9     10
         11     12     13     14     15     16     17     18     19     20
         21     22     23     24     25     26     27     28     29     30
 .........................................................................
   1  ****** ****** ****** ****** ****** ****** ****** ****** ****** ******
      ****** ****** ****** ****** ****** ****** ****** ****** ****** ******
      ****** ****** ****** ****** ****** ****** ****** ****** ****** ******
   2  ****** ****** ****** ****** ****** ****** ****** ****** ****** ******
      ****** ****** ****** ****** ****** ****** ****** ****** ****** ******
      ****** ****** ****** ****** ****** ****** ****** ****** ****** ******
   3  ****** ****** ****** ****** ****** ****** ****** ****** ****** ******
      ****** ****** ****** ****** ****** ****** ****** ****** ****** ******
      ****** ****** ****** ****** ****** ****** ****** ****** ****** ******
   4  ****** ****** ****** ****** ****** ****** ****** ****** ****** ******
      ****** ****** ****** ****** ****** ****** ****** ****** ****** ******
      ****** ****** ****** ****** ****** ****** ****** ****** ****** ******
   5  ****** ****** ****** ****** ****** ****** ****** ****** ****** ******
      ****** ****** ****** ****** ****** ****** ****** ****** ****** ******
      ****** ****** ****** ****** ****** ****** ****** ****** ****** ******
   6  ****** ****** ****** ****** ****** ****** ****** ****** ****** ******
      ****** ****** ****** ****** ****** ****** ****** ****** ****** ******
      ****** ****** ****** ****** ****** ****** ****** ****** ****** ******
   7  ****** ****** ****** ****** ****** ****** ****** ****** ****** ******
      ****** ****** ****** ****** ****** ****** ****** ****** ****** ******
      ****** ****** ****** ****** ****** ****** ****** ****** ****** ******
   8  ****** ****** ****** ****** ****** ****** ****** ****** ****** ******
      ****** ****** ****** ****** ****** ****** ****** ****** ****** ******
      ****** ****** ****** ****** ****** ****** ****** ****** ****** ******
   9  ****** ****** ****** ****** ****** ****** ****** ****** ****** ******
      ****** ****** ****** ****** ****** ****** ****** ****** ****** ******
      ****** ****** ****** ****** ****** ****** ****** ****** ****** ******
  10  ****** ****** ****** ****** ****** ****** ****** ****** ****** ******
      ****** ****** ****** ****** ****** ****** ****** ****** ****** ******
      ****** ****** ****** ****** ****** ****** ****** ****** ****** ******
  11  ****** ****** ****** ****** ****** ****** ****** ****** ****** ******
      ****** ****** ****** ****** ****** ****** ****** ****** ****** ******
      ****** ****** ****** ****** ****** ****** ****** ****** ****** ******
  12  ****** ****** ****** ****** ****** ****** ****** ****** ****** ******
      ****** ****** ****** ****** ****** ****** ****** ****** ****** ******
      ****** ****** ****** ****** ****** ****** ****** ****** ****** ******
  13  ****** ****** ****** ****** ****** ****** ****** ****** ****** ******
      ****** ****** ****** ****** ****** ****** ****** ****** ****** ******
      ****** ****** ****** ****** ****** ****** ****** ****** ****** ******
  14  ****** ****** ****** ****** ****** ****** ****** ****** ****** ******
      ****** ****** ****** ****** ****** ****** ****** ****** ****** ******
      ****** ****** ****** ****** ****** ****** ****** ****** ****** ******
  15  ****** ****** ****** ****** ****** ****** ****** ****** ****** ******
      ****** ****** ****** ****** ****** ****** ****** ****** ****** ******
      ****** ****** ****** ****** ****** ****** ****** ****** ****** ******
  16  ****** ****** ****** ****** ****** ****** ****** ****** ****** ******
      ****** ****** ****** ****** ****** ****** ****** ****** ****** ******
      ****** ****** ****** ****** ****** ****** ****** ****** ****** ******
  17  ****** ****** ****** ****** ****** ****** ****** ****** ****** ******
      ****** ****** ****** ****** ****** ****** ****** ****** ****** ******
      ****** ****** ****** ****** ****** ****** ****** ****** ****** ******
  18  ****** ****** ****** ****** ****** ****** ****** ****** ****** ******
      ****** ****** ****** ****** ****** ****** ****** ****** ****** ******
      ****** ****** ****** ****** ****** ****** ****** ****** ****** ******
  19  ****** ****** ****** ****** ****** ****** ****** ****** ****** ******
      ****** ****** ****** ****** ****** ****** ****** ****** ****** ******
      ****** ****** ****** ****** ****** ****** ****** ****** ****** ******
  20  ****** ****** ****** ****** ****** ****** ****** ****** ****** ******
      ****** ****** ****** ****** ****** ****** ****** ****** ****** ******
      ****** ****** ****** ****** ****** ****** ****** ****** ****** ******
  21  ****** ****** ****** ****** ****** ****** ****** ****** ****** ******
      ****** ****** ****** ****** ****** ****** ****** ****** ****** ******
      ****** ****** ****** ****** ****** ****** ****** ****** ****** ******
  22  ****** ****** ****** ****** ****** ****** ****** ****** ****** ******
      ****** ****** ****** ****** ****** ****** ****** ****** ****** ******
      ****** ****** ****** ****** ****** ****** ****** ****** ****** ******
  23  ****** ****** ****** ****** ****** ****** ****** ****** ****** ******
      ****** ****** ****** ****** ****** ****** ****** ****** ****** ******
      ****** ****** ****** ****** ****** ****** ****** ****** ****** ******
  24  ****** ****** ****** ****** ****** ****** ****** ****** ****** ******
      ****** ****** ****** ****** ****** ****** ****** ****** ****** ******
      ****** ****** ****** ****** ****** ****** ****** ****** ****** ******
  25  ****** ****** ****** ****** ****** ****** ****** ****** ****** ******
      ****** ****** ****** ****** ****** ****** ****** ****** ****** ******
      ****** ****** ****** ****** ****** ****** ****** ****** ****** ******

 HEAD WILL BE SAVED ON UNIT   51 AT END OF TIME STEP    1, STRESS PERIOD    8
1
  VOLUMETRIC BUDGET FOR ENTIRE MODEL AT END OF TIME STEP    1, STRESS PERIOD   8
  ------------------------------------------------------------------------------

     CUMULATIVE VOLUMES      L**3       RATES FOR THIS TIME STEP      L**3/T
     ------------------                 ------------------------

           IN:                                      IN:
           ---                                      ---
             STORAGE =    33064502.4831               STORAGE =        1599.8479
       CONSTANT HEAD =    19278621.5905         CONSTANT HEAD =       33116.7759
               WELLS =           0.0000                 WELLS =           0.0000
            RECHARGE =    17608800.0000              RECHARGE =       27600.0000
      STREAM LEAKAGE =     8804575.0912        STREAM LEAKAGE =       15080.2160

            TOTAL IN =    78756499.1648              TOTAL IN =       77396.8397

          OUT:                                     OUT:
          ----                                     ----
             STORAGE =      930746.0872               STORAGE =        1587.4478
       CONSTANT HEAD =           0.0000         CONSTANT HEAD =           0.0000
               WELLS =    22009282.9521                 WELLS =       30149.7027
            RECHARGE =           0.0000              RECHARGE =           0.0000
      STREAM LEAKAGE =    55816471.8689        STREAM LEAKAGE =       45659.6810

           TOTAL OUT =    78756500.9083             TOTAL OUT =       77396.8315

            IN - OUT =          -1.7435              IN - OUT =       8.2175E-03

 PERCENT DISCREPANCY =          -0.00     PERCENT DISCREPANCY =           0.00






         TIME SUMMARY AT END OF TIME STEP    1 IN STRESS PERIOD    8
                    SECONDS     MINUTES      HOURS       DAYS        YEARS
                    -----------------------------------------------------------
   TIME STEP LENGTH 7.86240E+06 1.31040E+05  2184.0      91.000     0.24914    
 STRESS PERIOD TIME 7.86240E+06 1.31040E+05  2184.0      91.000     0.24914    
         TOTAL TIME 6.30720E+07 1.05120E+06  17520.      730.00      1.9986    
1
1
                            STRESS PERIOD NO.    9, LENGTH =   92.00000    
                            -----------------------------------------------

                              NUMBER OF TIME STEPS =     1

                               MULTIPLIER FOR DELT =     1.500

                            INITIAL TIME STEP SIZE =   92.00000    

 WELL NO.  LAYER   ROW   COL   STRESS RATE         
 --------------------------------------------------
      1      1     11     18      -9961.    
      2      1      5     20     -0.1016E+05
      3      1     11     16      -434.0    
      4      1     11     19      -9596.    

      4 WELLS

                 RECHARGE =  5.000000E-04

 REUSING STREAM SEGMENT DATA FROM LAST STRESS PERIOD
 
 SOLVING FOR HEAD 


     6 CALLS TO PCG ROUTINE FOR TIME STEP   1 IN STRESS PERIOD    9
    23 TOTAL ITERATIONS

 OUTPUT CONTROL FOR STRESS PERIOD    9   TIME STEP    1
    SAVE BUDGET
    SAVE HEAD FOR ALL LAYERS
    PRINT HEAD FOR ALL LAYERS
 UBDSV2 SAVING "STREAMFLOW OUT  " ON UNIT  50 AT TIME STEP  1, STRESS PERIOD   9



 STREAM LISTING     PERIOD      9   STEP        1

 LAYER ROW COL. STREAM  RCH.  FLOW INTO     FLOW TO   FLOW OUT OF   OVRLND.     DIRECT     STREAM       STREAM     STREAM     STREAM   STREAMBED  STREAMBED
                SEG.NO.  NO.  STRM. RCH.    AQUIFER    STRM. RCH.    RUNOFF     PRECIP       ET          HEAD       DEPTH      WIDTH   CONDCTNC.   GRADIENT

   1   13    1     1     1    1.0000E+05 -1.5604E+03   1.0156E+05  0.000E+00  0.000E+00  0.000E+00  4.84067E+01  1.453E-01  2.000E+01  2.000E+04 -7.802E-02
   1   13    2     1     2    1.0156E+05 -2.4925E+03   1.0405E+05  0.000E+00  0.000E+00  0.000E+00  4.79312E+01  1.471E-01  2.000E+01  2.000E+04 -1.246E-01
   1   14    3     1     3    1.0405E+05 -3.9745E+02   1.0445E+05  0.000E+00  0.000E+00  0.000E+00  4.74551E+01  1.483E-01  2.000E+01  2.000E+04 -1.987E-02
   1   15    4     1     4    1.0445E+05 -3.7217E+02   1.0482E+05  0.000E+00  0.000E+00  0.000E+00  4.69782E+01  1.486E-01  2.000E+01  2.000E+04 -1.861E-02
   1   16    5     1     5    1.0482E+05 -1.4811E+03   1.0630E+05  0.000E+00  0.000E+00  0.000E+00  4.65017E+01  1.494E-01  2.000E+01  2.000E+04 -7.405E-02
   1   16    6     1     6    1.0630E+05 -9.4473E+02   1.0725E+05  0.000E+00  0.000E+00  0.000E+00  4.60255E+01  1.505E-01  2.000E+01  2.000E+04 -4.724E-02
   1   16    7     1     7    1.0725E+05 -9.3283E+02   1.0818E+05  0.000E+00  0.000E+00  0.000E+00  4.55490E+01  1.512E-01  2.000E+01  2.000E+04 -4.664E-02
   1   16    8     1     8    1.0818E+05 -9.3392E+02   1.0912E+05  0.000E+00  0.000E+00  0.000E+00  4.50725E+01  1.520E-01  2.000E+01  2.000E+04 -4.670E-02
   1   16    9     1     9    1.0912E+05 -9.3244E+02   1.1005E+05  0.000E+00  0.000E+00  0.000E+00  4.45960E+01  1.528E-01  2.000E+01  2.000E+04 -4.662E-02
   1   16   10     1    10    1.1005E+05 -9.2926E+02   1.1098E+05  0.000E+00  0.000E+00  0.000E+00  4.41195E+01  1.536E-01  2.000E+01  2.000E+04 -4.646E-02
   1   16   11     1    11    1.1098E+05 -9.4352E+02   1.1192E+05  0.000E+00  0.000E+00  0.000E+00  4.36430E+01  1.544E-01  2.000E+01  2.000E+04 -4.718E-02
   1   16   12     1    12    1.1192E+05 -1.5799E+03   1.1350E+05  0.000E+00  0.000E+00  0.000E+00  4.31668E+01  1.554E-01  2.000E+01  2.000E+04 -7.899E-02
   1   15   13     1    13    1.1350E+05 -1.3213E+03   1.1482E+05  0.000E+00  0.000E+00  0.000E+00  4.26907E+01  1.566E-01  2.000E+01  2.000E+04 -6.607E-02
   1   14   14     1    14    1.1482E+05 -1.3886E+03   1.1621E+05  0.000E+00  0.000E+00  0.000E+00  4.22145E+01  1.577E-01  2.000E+01  2.000E+04 -6.943E-02
   1   13   15     1    15    1.1621E+05 -1.3330E+03   1.1754E+05  0.000E+00  0.000E+00  0.000E+00  4.17384E+01  1.588E-01  2.000E+01  2.000E+04 -6.665E-02
   1   12   16     1    16    1.1754E+05 -6.0270E+02   1.1815E+05  0.000E+00  0.000E+00  0.000E+00  4.12619E+01  1.596E-01  2.000E+01  2.000E+04 -3.014E-02
   1   12   17     1    17    1.1815E+05  8.3613E+02   1.1731E+05  0.000E+00  0.000E+00  0.000E+00  4.07845E+01  1.595E-01  2.000E+01  2.000E+04  4.181E-02
   1   12   18     1    18    1.1731E+05  3.7228E+03   1.1359E+05  0.000E+00  0.000E+00  0.000E+00  4.03054E+01  1.577E-01  2.000E+01  2.000E+04  1.861E-01
   1   12   19     1    19    1.1359E+05  4.1603E+03   1.0943E+05  0.000E+00  0.000E+00  0.000E+00  3.98249E+01  1.544E-01  2.000E+01  2.000E+04  2.080E-01
   1   13   20     1    20    1.0943E+05 -2.3244E+02   1.0966E+05  0.000E+00  0.000E+00  0.000E+00  3.93460E+01  1.528E-01  2.000E+01  2.000E+04 -1.162E-02
   1   14   21     1    21    1.0966E+05 -1.1429E+03   1.1080E+05  0.000E+00  0.000E+00  0.000E+00  3.88693E+01  1.534E-01  2.000E+01  2.000E+04 -5.715E-02
   1   14   22     1    22    1.1080E+05  4.9405E+03   1.0586E+05  0.000E+00  0.000E+00  0.000E+00  3.83904E+01  1.518E-01  2.000E+01  2.000E+04  2.470E-01
   1    9   30     2     1    5.0000E+04 -2.5825E+02   5.0258E+04  0.000E+00  0.000E+00  0.000E+00  4.02410E+01  1.160E-01  2.000E+01  2.000E+04 -1.291E-02
   1    9   29     2     2    5.0258E+04 -5.2037E+02   5.0779E+04  0.000E+00  0.000E+00  0.000E+00  3.99916E+01  1.166E-01  2.000E+01  2.000E+04 -2.602E-02
   1    9   28     2     3    5.0779E+04 -6.7730E+02   5.1456E+04  0.000E+00  0.000E+00  0.000E+00  3.97424E+01  1.174E-01  2.000E+01  2.000E+04 -3.387E-02
   1    9   27     2     4    5.1456E+04 -1.2969E+03   5.2753E+04  0.000E+00  0.000E+00  0.000E+00  3.94938E+01  1.188E-01  2.000E+01  2.000E+04 -6.485E-02
   1   10   26     2     5    5.2753E+04 -5.8048E+02   5.3333E+04  0.000E+00  0.000E+00  0.000E+00  3.92450E+01  1.200E-01  2.000E+01  2.000E+04 -2.902E-02
   1   11   25     2     6    5.3333E+04 -3.4792E+02   5.3681E+04  0.000E+00  0.000E+00  0.000E+00  3.89957E+01  1.207E-01  2.000E+01  2.000E+04 -1.740E-02
   1   12   24     2     7    5.3681E+04 -3.0764E+02   5.3989E+04  0.000E+00  0.000E+00  0.000E+00  3.87461E+01  1.211E-01  2.000E+01  2.000E+04 -1.538E-02
   1   13   23     2     8    5.3989E+04 -3.0836E+01   5.4020E+04  0.000E+00  0.000E+00  0.000E+00  3.84963E+01  1.213E-01  2.000E+01  2.000E+04 -1.542E-03
   1   14   22     2     9    5.4020E+04  2.0323E+03   5.1987E+04  0.000E+00  0.000E+00  0.000E+00  3.82450E+01  1.200E-01  2.000E+01  2.000E+04  1.016E-01
   1   14   22     3     1    1.5785E+05 -8.5484E+03   1.6640E+05  0.000E+00  0.000E+00  0.000E+00  3.77160E+01  1.604E-01  2.000E+01  2.000E+04 -4.274E-01
   1   15   23     3     2    1.6640E+05 -5.0170E+02   1.6690E+05  0.000E+00  0.000E+00  0.000E+00  3.68297E+01  1.631E-01  2.000E+01  2.000E+04 -2.508E-02
   1   15   24     3     3    1.6690E+05 -2.4473E+02   1.6714E+05  0.000E+00  0.000E+00  0.000E+00  3.59411E+01  1.633E-01  2.000E+01  2.000E+04 -1.224E-02
   1   15   25     3     4    1.6714E+05 -2.3598E+02   1.6738E+05  0.000E+00  0.000E+00  0.000E+00  3.50523E+01  1.634E-01  2.000E+01  2.000E+04 -1.180E-02
   1   15   26     3     5    1.6738E+05 -2.8785E+02   1.6767E+05  0.000E+00  0.000E+00  0.000E+00  3.41636E+01  1.636E-01  2.000E+01  2.000E+04 -1.439E-02
   1   16   27     3     6    1.6767E+05 -3.1324E+02   1.6798E+05  0.000E+00  0.000E+00  0.000E+00  3.32749E+01  1.638E-01  2.000E+01  2.000E+04 -1.566E-02
   1   17   28     3     7    1.6798E+05 -1.4158E+03   1.6940E+05  0.000E+00  0.000E+00  0.000E+00  3.23865E+01  1.643E-01  2.000E+01  2.000E+04 -7.079E-02
   1   18   29     3     8    1.6940E+05 -2.7527E+03   1.7215E+05  0.000E+00  0.000E+00  0.000E+00  3.14988E+01  1.655E-01  2.000E+01  2.000E+04 -1.376E-01
   1   18   30     3     9    1.7215E+05 -3.0627E+03   1.7521E+05  0.000E+00  0.000E+00  0.000E+00  3.06116E+01  1.672E-01  2.000E+01  2.000E+04 -1.531E-01



1
              HEAD IN LAYER   1 AT END OF TIME STEP   1 IN STRESS PERIOD    9
  ---------------------------------------------------------------------------

          1      2      3      4      5      6      7      8      9     10
         11     12     13     14     15     16     17     18     19     20
         21     22     23     24     25     26     27     28     29     30
 .........................................................................
   1  ****** ****** ****** ****** ****** ****** ****** ****** ****** ******
      ****** ****** ****** ****** ****** ****** ****** ****** ****** ******
      ****** ****** ****** ****** ****** ****** ****** ****** ****** ******
   2  ****** ****** ****** ****** ****** ****** ****** ****** ****** ******
      ****** ****** ****** ****** ****** ****** ****** ****** ****** ******
      ****** ****** ****** ****** ****** ****** ****** ****** ****** ******
   3  ****** ****** ****** ****** ****** ****** ****** ****** ****** ******
      ****** ****** ****** ****** ****** ****** ****** ****** ****** ******
      ****** ****** ****** ****** ****** ****** ****** ****** ****** ******
   4  ****** ****** ****** ****** ****** ****** ****** ****** ****** ******
      ****** ****** ****** ****** ****** ****** ****** ****** ****** ******
      ****** ****** ****** ****** ****** ****** ****** ****** ****** ******
   5  ****** ****** ****** ****** ****** ****** ****** ****** ****** ******
      ****** ****** ****** ****** ****** ****** ****** ****** ****** ******
      ****** ****** ****** ****** ****** ****** ****** ****** ****** ******
   6  ****** ****** ****** ****** ****** ****** ****** ****** ****** ******
      ****** ****** ****** ****** ****** ****** ****** ****** ****** ******
      ****** ****** ****** ****** ****** ****** ****** ****** ****** ******
   7  ****** ****** ****** ****** ****** ****** ****** ****** ****** ******
      ****** ****** ****** ****** ****** ****** ****** ****** ****** ******
      ****** ****** ****** ****** ****** ****** ****** ****** ****** ******
   8  ****** ****** ****** ****** ****** ****** ****** ****** ****** ******
      ****** ****** ****** ****** ****** ****** ****** ****** ****** ******
      ****** ****** ****** ****** ****** ****** ****** ****** ****** ******
   9  ****** ****** ****** ****** ****** ****** ****** ****** ****** ******
      ****** ****** ****** ****** ****** ****** ****** ****** ****** ******
      ****** ****** ****** ****** ****** ****** ****** ****** ****** ******
  10  ****** ****** ****** ****** ****** ****** ****** ****** ****** ******
      ****** ****** ****** ****** ****** ****** ****** ****** ****** ******
      ****** ****** ****** ****** ****** ****** ****** ****** ****** ******
  11  ****** ****** ****** ****** ****** ****** ****** ****** ****** ******
      ****** ****** ****** ****** ****** ****** ****** ****** ****** ******
      ****** ****** ****** ****** ****** ****** ****** ****** ****** ******
  12  ****** ****** ****** ****** ****** ****** ****** ****** ****** ******
      ****** ****** ****** ****** ****** ****** ****** ****** ****** ******
      ****** ****** ****** ****** ****** ****** ****** ****** ****** ******
  13  ****** ****** ****** ****** ****** ****** ****** ****** ****** ******
      ****** ****** ****** ****** ****** ****** ****** ****** ****** ******
      ****** ****** ****** ****** ****** ****** ****** ****** ****** ******
  14  ****** ****** ****** ****** ****** ****** ****** ****** ****** ******
      ****** ****** ****** ****** ****** ****** ****** ****** ****** ******
      ****** ****** ****** ****** ****** ****** ****** ****** ****** ******
  15  ****** ****** ****** ****** ****** ****** ****** ****** ****** ******
      ****** ****** ****** ****** ****** ****** ****** ****** ****** ******
      ****** ****** ****** ****** ****** ****** ****** ****** ****** ******
  16  ****** ****** ****** ****** ****** ****** ****** ****** ****** ******
      ****** ****** ****** ****** ****** ****** ****** ****** ****** ******
      ****** ****** ****** ****** ****** ****** ****** ****** ****** ******
  17  ****** ****** ****** ****** ****** ****** ****** ****** ****** ******
      ****** ****** ****** ****** ****** ****** ****** ****** ****** ******
      ****** ****** ****** ****** ****** ****** ****** ****** ****** ******
  18  ****** ****** ****** ****** ****** ****** ****** ****** ****** ******
      ****** ****** ****** ****** ****** ****** ****** ****** ****** ******
      ****** ****** ****** ****** ****** ****** ****** ****** ****** ******
  19  ****** ****** ****** ****** ****** ****** ****** ****** ****** ******
      ****** ****** ****** ****** ****** ****** ****** ****** ****** ******
      ****** ****** ****** ****** ****** ****** ****** ****** ****** ******
  20  ****** ****** ****** ****** ****** ****** ****** ****** ****** ******
      ****** ****** ****** ****** ****** ****** ****** ****** ****** ******
      ****** ****** ****** ****** ****** ****** ****** ****** ****** ******
  21  ****** ****** ****** ****** ****** ****** ****** ****** ****** ******
      ****** ****** ****** ****** ****** ****** ****** ****** ****** ******
      ****** ****** ****** ****** ****** ****** ****** ****** ****** ******
  22  ****** ****** ****** ****** ****** ****** ****** ****** ****** ******
      ****** ****** ****** ****** ****** ****** ****** ****** ****** ******
      ****** ****** ****** ****** ****** ****** ****** ****** ****** ******
  23  ****** ****** ****** ****** ****** ****** ****** ****** ****** ******
      ****** ****** ****** ****** ****** ****** ****** ****** ****** ******
      ****** ****** ****** ****** ****** ****** ****** ****** ****** ******
  24  ****** ****** ****** ****** ****** ****** ****** ****** ****** ******
      ****** ****** ****** ****** ****** ****** ****** ****** ****** ******
      ****** ****** ****** ****** ****** ****** ****** ****** ****** ******
  25  ****** ****** ****** ****** ****** ****** ****** ****** ****** ******
      ****** ****** ****** ****** ****** ****** ****** ****** ****** ******
      ****** ****** ****** ****** ****** ****** ****** ****** ****** ******

 HEAD WILL BE SAVED ON UNIT   51 AT END OF TIME STEP    1, STRESS PERIOD    9
1
  VOLUMETRIC BUDGET FOR ENTIRE MODEL AT END OF TIME STEP    1, STRESS PERIOD   9
  ------------------------------------------------------------------------------

     CUMULATIVE VOLUMES      L**3       RATES FOR THIS TIME STEP      L**3/T
     ------------------                 ------------------------

           IN:                                      IN:
           ---                                      ---
             STORAGE =    33733488.4711               STORAGE =        7271.5868
       CONSTANT HEAD =    22433307.9700         CONSTANT HEAD =       34290.0693
               WELLS =           0.0000                 WELLS =           0.0000
            RECHARGE =    18878400.0000              RECHARGE =       13800.0000
      STREAM LEAKAGE =    10248241.9370        STREAM LEAKAGE =       15692.0309

            TOTAL IN =    85293438.3780              TOTAL IN =       71053.6871

          OUT:                                     OUT:
          ----                                     ----
             STORAGE =      930746.0872               STORAGE =           0.0000
       CONSTANT HEAD =           0.0000         CONSTANT HEAD =           0.0000
               WELLS =    24783055.5982                 WELLS =       30149.7027
            RECHARGE =           0.0000              RECHARGE =           0.0000
      STREAM LEAKAGE =    59579638.5063        STREAM LEAKAGE =       40903.9852

           TOTAL OUT =    85293440.1916             TOTAL OUT =       71053.6879

            IN - OUT =          -1.8136              IN - OUT =      -7.6234E-04

 PERCENT DISCREPANCY =          -0.00     PERCENT DISCREPANCY =          -0.00






         TIME SUMMARY AT END OF TIME STEP    1 IN STRESS PERIOD    9
                    SECONDS     MINUTES      HOURS       DAYS        YEARS
                    -----------------------------------------------------------
   TIME STEP LENGTH 7.94880E+06 1.32480E+05  2208.0      92.000     0.25188    
 STRESS PERIOD TIME 7.94880E+06 1.32480E+05  2208.0      92.000     0.25188    
         TOTAL TIME 7.10208E+07 1.18368E+06  19728.      822.00      2.2505    
1
1
                            STRESS PERIOD NO.   10, LENGTH =   91.00000    
                            -----------------------------------------------

                              NUMBER OF TIME STEPS =     1

                               MULTIPLIER FOR DELT =     1.500

                            INITIAL TIME STEP SIZE =   91.00000    

 WELL NO.  LAYER   ROW   COL   STRESS RATE         
 --------------------------------------------------
      1      1     11     18      -9961.    
      2      1      5     20     -0.1016E+05
      3      1     11     16      -434.0    
      4      1     11     19      -9596.    

      4 WELLS

                 RECHARGE =  2.000000E-03

 REUSING STREAM SEGMENT DATA FROM LAST STRESS PERIOD
 
 SOLVING FOR HEAD 


     7 CALLS TO PCG ROUTINE FOR TIME STEP   1 IN STRESS PERIOD   10
    26 TOTAL ITERATIONS

 OUTPUT CONTROL FOR STRESS PERIOD   10   TIME STEP    1
    SAVE BUDGET
    SAVE HEAD FOR ALL LAYERS
    PRINT HEAD FOR ALL LAYERS
 UBDSV2 SAVING "STREAMFLOW OUT  " ON UNIT  50 AT TIME STEP  1, STRESS PERIOD  10



 STREAM LISTING     PERIOD     10   STEP        1

 LAYER ROW COL. STREAM  RCH.  FLOW INTO     FLOW TO   FLOW OUT OF   OVRLND.     DIRECT     STREAM       STREAM     STREAM     STREAM   STREAMBED  STREAMBED
                SEG.NO.  NO.  STRM. RCH.    AQUIFER    STRM. RCH.    RUNOFF     PRECIP       ET          HEAD       DEPTH      WIDTH   CONDCTNC.   GRADIENT

   1   13    1     1     1    1.0000E+05 -2.0108E+03   1.0201E+05  0.000E+00  0.000E+00  0.000E+00  4.84069E+01  1.455E-01  2.000E+01  2.000E+04 -1.005E-01
   1   13    2     1     2    1.0201E+05 -2.9915E+03   1.0500E+05  0.000E+00  0.000E+00  0.000E+00  4.79318E+01  1.477E-01  2.000E+01  2.000E+04 -1.496E-01
   1   14    3     1     3    1.0500E+05 -5.8365E+02   1.0559E+05  0.000E+00  0.000E+00  0.000E+00  4.74560E+01  1.492E-01  2.000E+01  2.000E+04 -2.918E-02
   1   15    4     1     4    1.0559E+05 -5.7138E+02   1.0616E+05  0.000E+00  0.000E+00  0.000E+00  4.69792E+01  1.497E-01  2.000E+01  2.000E+04 -2.857E-02
   1   16    5     1     5    1.0616E+05 -2.1004E+03   1.0826E+05  0.000E+00  0.000E+00  0.000E+00  4.65031E+01  1.508E-01  2.000E+01  2.000E+04 -1.050E-01
   1   16    6     1     6    1.0826E+05 -1.3070E+03   1.0956E+05  0.000E+00  0.000E+00  0.000E+00  4.60273E+01  1.523E-01  2.000E+01  2.000E+04 -6.535E-02
   1   16    7     1     7    1.0956E+05 -1.2772E+03   1.1084E+05  0.000E+00  0.000E+00  0.000E+00  4.55511E+01  1.533E-01  2.000E+01  2.000E+04 -6.386E-02
   1   16    8     1     8    1.1084E+05 -1.2729E+03   1.1211E+05  0.000E+00  0.000E+00  0.000E+00  4.50749E+01  1.544E-01  2.000E+01  2.000E+04 -6.364E-02
   1   16    9     1     9    1.1211E+05 -1.2699E+03   1.1338E+05  0.000E+00  0.000E+00  0.000E+00  4.45986E+01  1.555E-01  2.000E+01  2.000E+04 -6.350E-02
   1   16   10     1    10    1.1338E+05 -1.2670E+03   1.1465E+05  0.000E+00  0.000E+00  0.000E+00  4.41224E+01  1.565E-01  2.000E+01  2.000E+04 -6.335E-02
   1   16   11     1    11    1.1465E+05 -1.2849E+03   1.1594E+05  0.000E+00  0.000E+00  0.000E+00  4.36462E+01  1.575E-01  2.000E+01  2.000E+04 -6.424E-02
   1   16   12     1    12    1.1594E+05 -2.1497E+03   1.1809E+05  0.000E+00  0.000E+00  0.000E+00  4.31703E+01  1.590E-01  2.000E+01  2.000E+04 -1.075E-01
   1   15   13     1    13    1.1809E+05 -1.9074E+03   1.1999E+05  0.000E+00  0.000E+00  0.000E+00  4.26947E+01  1.606E-01  2.000E+01  2.000E+04 -9.537E-02
   1   14   14     1    14    1.1999E+05 -1.9814E+03   1.2198E+05  0.000E+00  0.000E+00  0.000E+00  4.22190E+01  1.622E-01  2.000E+01  2.000E+04 -9.907E-02
   1   13   15     1    15    1.2198E+05 -1.9154E+03   1.2389E+05  0.000E+00  0.000E+00  0.000E+00  4.17433E+01  1.637E-01  2.000E+01  2.000E+04 -9.577E-02
   1   12   16     1    16    1.2389E+05 -1.1627E+03   1.2505E+05  0.000E+00  0.000E+00  0.000E+00  4.12672E+01  1.650E-01  2.000E+01  2.000E+04 -5.814E-02
   1   12   17     1    17    1.2505E+05  4.1145E+02   1.2464E+05  0.000E+00  0.000E+00  0.000E+00  4.07903E+01  1.653E-01  2.000E+01  2.000E+04  2.057E-02
   1   12   18     1    18    1.2464E+05  3.3021E+03   1.2134E+05  0.000E+00  0.000E+00  0.000E+00  4.03115E+01  1.638E-01  2.000E+01  2.000E+04  1.651E-01
   1   12   19     1    19    1.2134E+05  3.6429E+03   1.1770E+05  0.000E+00  0.000E+00  0.000E+00  3.98314E+01  1.610E-01  2.000E+01  2.000E+04  1.821E-01
   1   13   20     1    20    1.1770E+05 -7.5355E+02   1.1845E+05  0.000E+00  0.000E+00  0.000E+00  3.93530E+01  1.598E-01  2.000E+01  2.000E+04 -3.768E-02
   1   14   21     1    21    1.1845E+05 -1.6686E+03   1.2012E+05  0.000E+00  0.000E+00  0.000E+00  3.88767E+01  1.608E-01  2.000E+01  2.000E+04 -8.343E-02
   1   14   22     1    22    1.2012E+05  4.8152E+03   1.1530E+05  0.000E+00  0.000E+00  0.000E+00  3.83982E+01  1.595E-01  2.000E+01  2.000E+04  2.408E-01
   1    9   30     2     1    5.0000E+04 -6.7206E+02   5.0672E+04  0.000E+00  0.000E+00  0.000E+00  4.02413E+01  1.163E-01  2.000E+01  2.000E+04 -3.360E-02
   1    9   29     2     2    5.0672E+04 -9.3185E+02   5.1604E+04  0.000E+00  0.000E+00  0.000E+00  3.99924E+01  1.174E-01  2.000E+01  2.000E+04 -4.659E-02
   1    9   28     2     3    5.1604E+04 -1.0879E+03   5.2692E+04  0.000E+00  0.000E+00  0.000E+00  3.97438E+01  1.188E-01  2.000E+01  2.000E+04 -5.440E-02
   1    9   27     2     4    5.2692E+04 -1.8488E+03   5.4541E+04  0.000E+00  0.000E+00  0.000E+00  3.94958E+01  1.208E-01  2.000E+01  2.000E+04 -9.244E-02
   1   10   26     2     5    5.4541E+04 -1.1326E+03   5.5673E+04  0.000E+00  0.000E+00  0.000E+00  3.92478E+01  1.228E-01  2.000E+01  2.000E+04 -5.663E-02
   1   11   25     2     6    5.5673E+04 -8.7561E+02   5.6549E+04  0.000E+00  0.000E+00  0.000E+00  3.89992E+01  1.242E-01  2.000E+01  2.000E+04 -4.378E-02
   1   12   24     2     7    5.6549E+04 -7.8519E+02   5.7334E+04  0.000E+00  0.000E+00  0.000E+00  3.87503E+01  1.253E-01  2.000E+01  2.000E+04 -3.926E-02
   1   13   23     2     8    5.7334E+04 -1.7944E+02   5.7513E+04  0.000E+00  0.000E+00  0.000E+00  3.85009E+01  1.259E-01  2.000E+01  2.000E+04 -8.972E-03
   1   14   22     2     9    5.7513E+04  1.8481E+03   5.5665E+04  0.000E+00  0.000E+00  0.000E+00  3.82498E+01  1.248E-01  2.000E+01  2.000E+04  9.240E-02
   1   14   22     3     1    1.7097E+05 -8.6747E+03   1.7964E+05  0.000E+00  0.000E+00  0.000E+00  3.77237E+01  1.681E-01  2.000E+01  2.000E+04 -4.337E-01
   1   15   23     3     2    1.7964E+05 -6.6448E+02   1.8031E+05  0.000E+00  0.000E+00  0.000E+00  3.68374E+01  1.708E-01  2.000E+01  2.000E+04 -3.322E-02
   1   15   24     3     3    1.8031E+05 -3.8205E+02   1.8069E+05  0.000E+00  0.000E+00  0.000E+00  3.59489E+01  1.711E-01  2.000E+01  2.000E+04 -1.910E-02
   1   15   25     3     4    1.8069E+05 -3.7669E+02   1.8107E+05  0.000E+00  0.000E+00  0.000E+00  3.50602E+01  1.713E-01  2.000E+01  2.000E+04 -1.883E-02
   1   15   26     3     5    1.8107E+05 -4.5017E+02   1.8152E+05  0.000E+00  0.000E+00  0.000E+00  3.41715E+01  1.715E-01  2.000E+01  2.000E+04 -2.251E-02
   1   16   27     3     6    1.8152E+05 -4.9925E+02   1.8202E+05  0.000E+00  0.000E+00  0.000E+00  3.32829E+01  1.718E-01  2.000E+01  2.000E+04 -2.496E-02
   1   17   28     3     7    1.8202E+05 -1.9370E+03   1.8395E+05  0.000E+00  0.000E+00  0.000E+00  3.23947E+01  1.725E-01  2.000E+01  2.000E+04 -9.685E-02
   1   18   29     3     8    1.8395E+05 -3.3053E+03   1.8726E+05  0.000E+00  0.000E+00  0.000E+00  3.15073E+01  1.740E-01  2.000E+01  2.000E+04 -1.653E-01
   1   18   30     3     9    1.8726E+05 -3.4888E+03   1.9075E+05  0.000E+00  0.000E+00  0.000E+00  3.06203E+01  1.759E-01  2.000E+01  2.000E+04 -1.744E-01



1
              HEAD IN LAYER   1 AT END OF TIME STEP   1 IN STRESS PERIOD   10
  ---------------------------------------------------------------------------

          1      2      3      4      5      6      7      8      9     10
         11     12     13     14     15     16     17     18     19     20
         21     22     23     24     25     26     27     28     29     30
 .........................................................................
   1  ****** ****** ****** ****** ****** ****** ****** ****** ****** ******
      ****** ****** ****** ****** ****** ****** ****** ****** ****** ******
      ****** ****** ****** ****** ****** ****** ****** ****** ****** ******
   2  ****** ****** ****** ****** ****** ****** ****** ****** ****** ******
      ****** ****** ****** ****** ****** ****** ****** ****** ****** ******
      ****** ****** ****** ****** ****** ****** ****** ****** ****** ******
   3  ****** ****** ****** ****** ****** ****** ****** ****** ****** ******
      ****** ****** ****** ****** ****** ****** ****** ****** ****** ******
      ****** ****** ****** ****** ****** ****** ****** ****** ****** ******
   4  ****** ****** ****** ****** ****** ****** ****** ****** ****** ******
      ****** ****** ****** ****** ****** ****** ****** ****** ****** ******
      ****** ****** ****** ****** ****** ****** ****** ****** ****** ******
   5  ****** ****** ****** ****** ****** ****** ****** ****** ****** ******
      ****** ****** ****** ****** ****** ****** ****** ****** ****** ******
      ****** ****** ****** ****** ****** ****** ****** ****** ****** ******
   6  ****** ****** ****** ****** ****** ****** ****** ****** ****** ******
      ****** ****** ****** ****** ****** ****** ****** ****** ****** ******
      ****** ****** ****** ****** ****** ****** ****** ****** ****** ******
   7  ****** ****** ****** ****** ****** ****** ****** ****** ****** ******
      ****** ****** ****** ****** ****** ****** ****** ****** ****** ******
      ****** ****** ****** ****** ****** ****** ****** ****** ****** ******
   8  ****** ****** ****** ****** ****** ****** ****** ****** ****** ******
      ****** ****** ****** ****** ****** ****** ****** ****** ****** ******
      ****** ****** ****** ****** ****** ****** ****** ****** ****** ******
   9  ****** ****** ****** ****** ****** ****** ****** ****** ****** ******
      ****** ****** ****** ****** ****** ****** ****** ****** ****** ******
      ****** ****** ****** ****** ****** ****** ****** ****** ****** ******
  10  ****** ****** ****** ****** ****** ****** ****** ****** ****** ******
      ****** ****** ****** ****** ****** ****** ****** ****** ****** ******
      ****** ****** ****** ****** ****** ****** ****** ****** ****** ******
  11  ****** ****** ****** ****** ****** ****** ****** ****** ****** ******
      ****** ****** ****** ****** ****** ****** ****** ****** ****** ******
      ****** ****** ****** ****** ****** ****** ****** ****** ****** ******
  12  ****** ****** ****** ****** ****** ****** ****** ****** ****** ******
      ****** ****** ****** ****** ****** ****** ****** ****** ****** ******
      ****** ****** ****** ****** ****** ****** ****** ****** ****** ******
  13  ****** ****** ****** ****** ****** ****** ****** ****** ****** ******
      ****** ****** ****** ****** ****** ****** ****** ****** ****** ******
      ****** ****** ****** ****** ****** ****** ****** ****** ****** ******
  14  ****** ****** ****** ****** ****** ****** ****** ****** ****** ******
      ****** ****** ****** ****** ****** ****** ****** ****** ****** ******
      ****** ****** ****** ****** ****** ****** ****** ****** ****** ******
  15  ****** ****** ****** ****** ****** ****** ****** ****** ****** ******
      ****** ****** ****** ****** ****** ****** ****** ****** ****** ******
      ****** ****** ****** ****** ****** ****** ****** ****** ****** ******
  16  ****** ****** ****** ****** ****** ****** ****** ****** ****** ******
      ****** ****** ****** ****** ****** ****** ****** ****** ****** ******
      ****** ****** ****** ****** ****** ****** ****** ****** ****** ******
  17  ****** ****** ****** ****** ****** ****** ****** ****** ****** ******
      ****** ****** ****** ****** ****** ****** ****** ****** ****** ******
      ****** ****** ****** ****** ****** ****** ****** ****** ****** ******
  18  ****** ****** ****** ****** ****** ****** ****** ****** ****** ******
      ****** ****** ****** ****** ****** ****** ****** ****** ****** ******
      ****** ****** ****** ****** ****** ****** ****** ****** ****** ******
  19  ****** ****** ****** ****** ****** ****** ****** ****** ****** ******
      ****** ****** ****** ****** ****** ****** ****** ****** ****** ******
      ****** ****** ****** ****** ****** ****** ****** ****** ****** ******
  20  ****** ****** ****** ****** ****** ****** ****** ****** ****** ******
      ****** ****** ****** ****** ****** ****** ****** ****** ****** ******
      ****** ****** ****** ****** ****** ****** ****** ****** ****** ******
  21  ****** ****** ****** ****** ****** ****** ****** ****** ****** ******
      ****** ****** ****** ****** ****** ****** ****** ****** ****** ******
      ****** ****** ****** ****** ****** ****** ****** ****** ****** ******
  22  ****** ****** ****** ****** ****** ****** ****** ****** ****** ******
      ****** ****** ****** ****** ****** ****** ****** ****** ****** ******
      ****** ****** ****** ****** ****** ****** ****** ****** ****** ******
  23  ****** ****** ****** ****** ****** ****** ****** ****** ****** ******
      ****** ****** ****** ****** ****** ****** ****** ****** ****** ******
      ****** ****** ****** ****** ****** ****** ****** ****** ****** ******
  24  ****** ****** ****** ****** ****** ****** ****** ****** ****** ******
      ****** ****** ****** ****** ****** ****** ****** ****** ****** ******
      ****** ****** ****** ****** ****** ****** ****** ****** ****** ******
  25  ****** ****** ****** ****** ****** ****** ****** ****** ****** ******
      ****** ****** ****** ****** ****** ****** ****** ****** ****** ******
      ****** ****** ****** ****** ****** ****** ****** ****** ****** ******

 HEAD WILL BE SAVED ON UNIT   51 AT END OF TIME STEP    1, STRESS PERIOD   10
1
  VOLUMETRIC BUDGET FOR ENTIRE MODEL AT END OF TIME STEP    1, STRESS PERIOD  10
  ------------------------------------------------------------------------------

     CUMULATIVE VOLUMES      L**3       RATES FOR THIS TIME STEP      L**3/T
     ------------------                 ------------------------

           IN:                                      IN:
           ---                                      ---
             STORAGE =    33733488.4711               STORAGE =           0.0000
       CONSTANT HEAD =    25285389.3946         CONSTANT HEAD =       31341.5541
               WELLS =           0.0000                 WELLS =           0.0000
            RECHARGE =    23901600.0000              RECHARGE =       55200.0000
      STREAM LEAKAGE =    11524033.6315        STREAM LEAKAGE =       14019.6890

            TOTAL IN =    94444511.4973              TOTAL IN =      100561.2431

          OUT:                                     OUT:
          ----                                     ----
             STORAGE =     2354363.7922               STORAGE =       15644.1506
       CONSTANT HEAD =           0.0000         CONSTANT HEAD =           0.0000
               WELLS =    27526678.5415                 WELLS =       30149.7027
            RECHARGE =           0.0000              RECHARGE =           0.0000
      STREAM LEAKAGE =    64563470.6396        STREAM LEAKAGE =       54767.3861

           TOTAL OUT =    94444512.9733             TOTAL OUT =      100561.2394

            IN - OUT =          -1.4761              IN - OUT =       3.7092E-03

 PERCENT DISCREPANCY =          -0.00     PERCENT DISCREPANCY =           0.00






         TIME SUMMARY AT END OF TIME STEP    1 IN STRESS PERIOD   10
                    SECONDS     MINUTES      HOURS       DAYS        YEARS
                    -----------------------------------------------------------
   TIME STEP LENGTH 7.86240E+06 1.31040E+05  2184.0      91.000     0.24914    
 STRESS PERIOD TIME 7.86240E+06 1.31040E+05  2184.0      91.000     0.24914    
         TOTAL TIME 7.88832E+07 1.31472E+06  21912.      913.00      2.4997    
1
1
                            STRESS PERIOD NO.   11, LENGTH =   91.00000    
                            -----------------------------------------------

                              NUMBER OF TIME STEPS =     1

                               MULTIPLIER FOR DELT =     1.500

                            INITIAL TIME STEP SIZE =   91.00000    

 WELL NO.  LAYER   ROW   COL   STRESS RATE         
 --------------------------------------------------
      1      1     11     18      -9961.    
      2      1      5     20     -0.1016E+05
      3      1     11     16      -434.0    
      4      1     11     19      -9596.    

      4 WELLS

                 RECHARGE =   0.00000    

 REUSING STREAM SEGMENT DATA FROM LAST STRESS PERIOD
 
 SOLVING FOR HEAD 


     7 CALLS TO PCG ROUTINE FOR TIME STEP   1 IN STRESS PERIOD   11
    26 TOTAL ITERATIONS

 OUTPUT CONTROL FOR STRESS PERIOD   11   TIME STEP    1
    SAVE BUDGET
    SAVE HEAD FOR ALL LAYERS
    PRINT HEAD FOR ALL LAYERS
 UBDSV2 SAVING "STREAMFLOW OUT  " ON UNIT  50 AT TIME STEP  1, STRESS PERIOD  11



 STREAM LISTING     PERIOD     11   STEP        1

 LAYER ROW COL. STREAM  RCH.  FLOW INTO     FLOW TO   FLOW OUT OF   OVRLND.     DIRECT     STREAM       STREAM     STREAM     STREAM   STREAMBED  STREAMBED
                SEG.NO.  NO.  STRM. RCH.    AQUIFER    STRM. RCH.    RUNOFF     PRECIP       ET          HEAD       DEPTH      WIDTH   CONDCTNC.   GRADIENT

   1   13    1     1     1    1.0000E+05 -1.4415E+03   1.0144E+05  0.000E+00  0.000E+00  0.000E+00  4.84066E+01  1.453E-01  2.000E+01  2.000E+04 -7.208E-02
   1   13    2     1     2    1.0144E+05 -2.3575E+03   1.0380E+05  0.000E+00  0.000E+00  0.000E+00  4.79310E+01  1.469E-01  2.000E+01  2.000E+04 -1.179E-01
   1   14    3     1     3    1.0380E+05 -3.5251E+02   1.0415E+05  0.000E+00  0.000E+00  0.000E+00  4.74549E+01  1.481E-01  2.000E+01  2.000E+04 -1.763E-02
   1   15    4     1     4    1.0415E+05 -3.2930E+02   1.0448E+05  0.000E+00  0.000E+00  0.000E+00  4.69779E+01  1.484E-01  2.000E+01  2.000E+04 -1.646E-02
   1   16    5     1     5    1.0448E+05 -1.4127E+03   1.0589E+05  0.000E+00  0.000E+00  0.000E+00  4.65014E+01  1.491E-01  2.000E+01  2.000E+04 -7.064E-02
   1   16    6     1     6    1.0589E+05 -8.9266E+02   1.0679E+05  0.000E+00  0.000E+00  0.000E+00  4.60251E+01  1.501E-01  2.000E+01  2.000E+04 -4.463E-02
   1   16    7     1     7    1.0679E+05 -8.8049E+02   1.0767E+05  0.000E+00  0.000E+00  0.000E+00  4.55486E+01  1.508E-01  2.000E+01  2.000E+04 -4.402E-02
   1   16    8     1     8    1.0767E+05 -8.8167E+02   1.0855E+05  0.000E+00  0.000E+00  0.000E+00  4.50720E+01  1.516E-01  2.000E+01  2.000E+04 -4.408E-02
   1   16    9     1     9    1.0855E+05 -8.8098E+02   1.0943E+05  0.000E+00  0.000E+00  0.000E+00  4.45955E+01  1.523E-01  2.000E+01  2.000E+04 -4.405E-02
   1   16   10     1    10    1.0943E+05 -8.7920E+02   1.1031E+05  0.000E+00  0.000E+00  0.000E+00  4.41190E+01  1.531E-01  2.000E+01  2.000E+04 -4.396E-02
   1   16   11     1    11    1.1031E+05 -8.9534E+02   1.1120E+05  0.000E+00  0.000E+00  0.000E+00  4.36424E+01  1.538E-01  2.000E+01  2.000E+04 -4.477E-02
   1   16   12     1    12    1.1120E+05 -1.5042E+03   1.1271E+05  0.000E+00  0.000E+00  0.000E+00  4.31662E+01  1.548E-01  2.000E+01  2.000E+04 -7.521E-02
   1   15   13     1    13    1.1271E+05 -1.2186E+03   1.1393E+05  0.000E+00  0.000E+00  0.000E+00  4.26900E+01  1.559E-01  2.000E+01  2.000E+04 -6.093E-02
   1   14   14     1    14    1.1393E+05 -1.2745E+03   1.1520E+05  0.000E+00  0.000E+00  0.000E+00  4.22138E+01  1.569E-01  2.000E+01  2.000E+04 -6.372E-02
   1   13   15     1    15    1.1520E+05 -1.2137E+03   1.1641E+05  0.000E+00  0.000E+00  0.000E+00  4.17375E+01  1.580E-01  2.000E+01  2.000E+04 -6.068E-02
   1   12   16     1    16    1.1641E+05 -4.8401E+02   1.1690E+05  0.000E+00  0.000E+00  0.000E+00  4.12609E+01  1.587E-01  2.000E+01  2.000E+04 -2.420E-02
   1   12   17     1    17    1.1690E+05  9.1886E+02   1.1598E+05  0.000E+00  0.000E+00  0.000E+00  4.07835E+01  1.585E-01  2.000E+01  2.000E+04  4.594E-02
   1   12   18     1    18    1.1598E+05  3.8017E+03   1.1218E+05  0.000E+00  0.000E+00  0.000E+00  4.03043E+01  1.565E-01  2.000E+01  2.000E+04  1.901E-01
   1   12   19     1    19    1.1218E+05  4.2560E+03   1.0792E+05  0.000E+00  0.000E+00  0.000E+00  3.98237E+01  1.532E-01  2.000E+01  2.000E+04  2.128E-01
   1   13   20     1    20    1.0792E+05 -1.4138E+02   1.0806E+05  0.000E+00  0.000E+00  0.000E+00  3.93447E+01  1.515E-01  2.000E+01  2.000E+04 -7.069E-03
   1   14   21     1    21    1.0806E+05 -1.0723E+03   1.0914E+05  0.000E+00  0.000E+00  0.000E+00  3.88679E+01  1.520E-01  2.000E+01  2.000E+04 -5.362E-02
   1   14   22     1    22    1.0914E+05  4.9595E+03   1.0418E+05  0.000E+00  0.000E+00  0.000E+00  3.83890E+01  1.504E-01  2.000E+01  2.000E+04  2.480E-01
   1    9   30     2     1    5.0000E+04 -1.8380E+02   5.0184E+04  0.000E+00  0.000E+00  0.000E+00  4.02410E+01  1.160E-01  2.000E+01  2.000E+04 -9.190E-03
   1    9   29     2     2    5.0184E+04 -4.4663E+02   5.0630E+04  0.000E+00  0.000E+00  0.000E+00  3.99914E+01  1.164E-01  2.000E+01  2.000E+04 -2.233E-02
   1    9   28     2     3    5.0630E+04 -6.0483E+02   5.1235E+04  0.000E+00  0.000E+00  0.000E+00  3.97422E+01  1.172E-01  2.000E+01  2.000E+04 -3.024E-02
   1    9   27     2     4    5.1235E+04 -1.2086E+03   5.2444E+04  0.000E+00  0.000E+00  0.000E+00  3.94934E+01  1.184E-01  2.000E+01  2.000E+04 -6.043E-02
   1   10   26     2     5    5.2444E+04 -4.7802E+02   5.2922E+04  0.000E+00  0.000E+00  0.000E+00  3.92446E+01  1.196E-01  2.000E+01  2.000E+04 -2.390E-02
   1   11   25     2     6    5.2922E+04 -2.4486E+02   5.3167E+04  0.000E+00  0.000E+00  0.000E+00  3.89950E+01  1.200E-01  2.000E+01  2.000E+04 -1.224E-02
   1   12   24     2     7    5.3167E+04 -2.1145E+02   5.3378E+04  0.000E+00  0.000E+00  0.000E+00  3.87454E+01  1.204E-01  2.000E+01  2.000E+04 -1.057E-02
   1   13   23     2     8    5.3378E+04  6.4908E+00   5.3372E+04  0.000E+00  0.000E+00  0.000E+00  3.84955E+01  1.205E-01  2.000E+01  2.000E+04  3.245E-04
   1   14   22     2     9    5.3372E+04  2.0615E+03   5.1310E+04  0.000E+00  0.000E+00  0.000E+00  3.82441E+01  1.191E-01  2.000E+01  2.000E+04  1.031E-01
   1   14   22     3     1    1.5549E+05 -8.5294E+03   1.6402E+05  0.000E+00  0.000E+00  0.000E+00  3.77145E+01  1.590E-01  2.000E+01  2.000E+04 -4.265E-01
   1   15   23     3     2    1.6402E+05 -4.7260E+02   1.6449E+05  0.000E+00  0.000E+00  0.000E+00  3.68283E+01  1.617E-01  2.000E+01  2.000E+04 -2.363E-02
   1   15   24     3     3    1.6449E+05 -2.1703E+02   1.6471E+05  0.000E+00  0.000E+00  0.000E+00  3.59396E+01  1.619E-01  2.000E+01  2.000E+04 -1.085E-02
   1   15   25     3     4    1.6471E+05 -2.0783E+02   1.6491E+05  0.000E+00  0.000E+00  0.000E+00  3.50509E+01  1.620E-01  2.000E+01  2.000E+04 -1.039E-02
   1   15   26     3     5    1.6491E+05 -2.5455E+02   1.6517E+05  0.000E+00  0.000E+00  0.000E+00  3.41621E+01  1.621E-01  2.000E+01  2.000E+04 -1.273E-02
   1   16   27     3     6    1.6517E+05 -2.7636E+02   1.6544E+05  0.000E+00  0.000E+00  0.000E+00  3.32734E+01  1.623E-01  2.000E+01  2.000E+04 -1.382E-02
   1   17   28     3     7    1.6544E+05 -1.3277E+03   1.6677E+05  0.000E+00  0.000E+00  0.000E+00  3.23850E+01  1.628E-01  2.000E+01  2.000E+04 -6.638E-02
   1   18   29     3     8    1.6677E+05 -2.6842E+03   1.6946E+05  0.000E+00  0.000E+00  0.000E+00  3.14973E+01  1.639E-01  2.000E+01  2.000E+04 -1.342E-01
   1   18   30     3     9    1.6946E+05 -3.0001E+03   1.7246E+05  0.000E+00  0.000E+00  0.000E+00  3.06100E+01  1.656E-01  2.000E+01  2.000E+04 -1.500E-01



1
              HEAD IN LAYER   1 AT END OF TIME STEP   1 IN STRESS PERIOD   11
  ---------------------------------------------------------------------------

          1      2      3      4      5      6      7      8      9     10
         11     12     13     14     15     16     17     18     19     20
         21     22     23     24     25     26     27     28     29     30
 .........................................................................
   1  ****** ****** ****** ****** ****** ****** ****** ****** ****** ******
      ****** ****** ****** ****** ****** ****** ****** ****** ****** ******
      ****** ****** ****** ****** ****** ****** ****** ****** ****** ******
   2  ****** ****** ****** ****** ****** ****** ****** ****** ****** ******
      ****** ****** ****** ****** ****** ****** ****** ****** ****** ******
      ****** ****** ****** ****** ****** ****** ****** ****** ****** ******
   3  ****** ****** ****** ****** ****** ****** ****** ****** ****** ******
      ****** ****** ****** ****** ****** ****** ****** ****** ****** ******
      ****** ****** ****** ****** ****** ****** ****** ****** ****** ******
   4  ****** ****** ****** ****** ****** ****** ****** ****** ****** ******
      ****** ****** ****** ****** ****** ****** ****** ****** ****** ******
      ****** ****** ****** ****** ****** ****** ****** ****** ****** ******
   5  ****** ****** ****** ****** ****** ****** ****** ****** ****** ******
      ****** ****** ****** ****** ****** ****** ****** ****** ****** ******
      ****** ****** ****** ****** ****** ****** ****** ****** ****** ******
   6  ****** ****** ****** ****** ****** ****** ****** ****** ****** ******
      ****** ****** ****** ****** ****** ****** ****** ****** ****** ******
      ****** ****** ****** ****** ****** ****** ****** ****** ****** ******
   7  ****** ****** ****** ****** ****** ****** ****** ****** ****** ******
      ****** ****** ****** ****** ****** ****** ****** ****** ****** ******
      ****** ****** ****** ****** ****** ****** ****** ****** ****** ******
   8  ****** ****** ****** ****** ****** ****** ****** ****** ****** ******
      ****** ****** ****** ****** ****** ****** ****** ****** ****** ******
      ****** ****** ****** ****** ****** ****** ****** ****** ****** ******
   9  ****** ****** ****** ****** ****** ****** ****** ****** ****** ******
      ****** ****** ****** ****** ****** ****** ****** ****** ****** ******
      ****** ****** ****** ****** ****** ****** ****** ****** ****** ******
  10  ****** ****** ****** ****** ****** ****** ****** ****** ****** ******
      ****** ****** ****** ****** ****** ****** ****** ****** ****** ******
      ****** ****** ****** ****** ****** ****** ****** ****** ****** ******
  11  ****** ****** ****** ****** ****** ****** ****** ****** ****** ******
      ****** ****** ****** ****** ****** ****** ****** ****** ****** ******
      ****** ****** ****** ****** ****** ****** ****** ****** ****** ******
  12  ****** ****** ****** ****** ****** ****** ****** ****** ****** ******
      ****** ****** ****** ****** ****** ****** ****** ****** ****** ******
      ****** ****** ****** ****** ****** ****** ****** ****** ****** ******
  13  ****** ****** ****** ****** ****** ****** ****** ****** ****** ******
      ****** ****** ****** ****** ****** ****** ****** ****** ****** ******
      ****** ****** ****** ****** ****** ****** ****** ****** ****** ******
  14  ****** ****** ****** ****** ****** ****** ****** ****** ****** ******
      ****** ****** ****** ****** ****** ****** ****** ****** ****** ******
      ****** ****** ****** ****** ****** ****** ****** ****** ****** ******
  15  ****** ****** ****** ****** ****** ****** ****** ****** ****** ******
      ****** ****** ****** ****** ****** ****** ****** ****** ****** ******
      ****** ****** ****** ****** ****** ****** ****** ****** ****** ******
  16  ****** ****** ****** ****** ****** ****** ****** ****** ****** ******
      ****** ****** ****** ****** ****** ****** ****** ****** ****** ******
      ****** ****** ****** ****** ****** ****** ****** ****** ****** ******
  17  ****** ****** ****** ****** ****** ****** ****** ****** ****** ******
      ****** ****** ****** ****** ****** ****** ****** ****** ****** ******
      ****** ****** ****** ****** ****** ****** ****** ****** ****** ******
  18  ****** ****** ****** ****** ****** ****** ****** ****** ****** ******
      ****** ****** ****** ****** ****** ****** ****** ****** ****** ******
      ****** ****** ****** ****** ****** ****** ****** ****** ****** ******
  19  ****** ****** ****** ****** ****** ****** ****** ****** ****** ******
      ****** ****** ****** ****** ****** ****** ****** ****** ****** ******
      ****** ****** ****** ****** ****** ****** ****** ****** ****** ******
  20  ****** ****** ****** ****** ****** ****** ****** ****** ****** ******
      ****** ****** ****** ****** ****** ****** ****** ****** ****** ******
      ****** ****** ****** ****** ****** ****** ****** ****** ****** ******
  21  ****** ****** ****** ****** ****** ****** ****** ****** ****** ******
      ****** ****** ****** ****** ****** ****** ****** ****** ****** ******
      ****** ****** ****** ****** ****** ****** ****** ****** ****** ******
  22  ****** ****** ****** ****** ****** ****** ****** ****** ****** ******
      ****** ****** ****** ****** ****** ****** ****** ****** ****** ******
      ****** ****** ****** ****** ****** ****** ****** ****** ****** ******
  23  ****** ****** ****** ****** ****** ****** ****** ****** ****** ******
      ****** ****** ****** ****** ****** ****** ****** ****** ****** ******
      ****** ****** ****** ****** ****** ****** ****** ****** ****** ******
  24  ****** ****** ****** ****** ****** ****** ****** ****** ****** ******
      ****** ****** ****** ****** ****** ****** ****** ****** ****** ******
      ****** ****** ****** ****** ****** ****** ****** ****** ****** ******
  25  ****** ****** ****** ****** ****** ****** ****** ****** ****** ******
      ****** ****** ****** ****** ****** ****** ****** ****** ****** ******
      ****** ****** ****** ****** ****** ****** ****** ****** ****** ******

 HEAD WILL BE SAVED ON UNIT   51 AT END OF TIME STEP    1, STRESS PERIOD   11
1
  VOLUMETRIC BUDGET FOR ENTIRE MODEL AT END OF TIME STEP    1, STRESS PERIOD  11
  ------------------------------------------------------------------------------

     CUMULATIVE VOLUMES      L**3       RATES FOR THIS TIME STEP      L**3/T
     ------------------                 ------------------------

           IN:                                      IN:
           ---                                      ---
             STORAGE =    35369241.6660               STORAGE =       17975.3098
       CONSTANT HEAD =    28436788.9134         CONSTANT HEAD =       34630.7639
               WELLS =           0.0000                 WELLS =           0.0000
            RECHARGE =    23901600.0000              RECHARGE =           0.0000
      STREAM LEAKAGE =    12980412.5529        STREAM LEAKAGE =       16004.1640

            TOTAL IN =   100688043.1323              TOTAL IN =       68610.2377

          OUT:                                     OUT:
          ----                                     ----
             STORAGE =     2354363.7922               STORAGE =           0.0000
       CONSTANT HEAD =           0.0000         CONSTANT HEAD =           0.0000
               WELLS =    30270301.4849                 WELLS =       30149.7027
            RECHARGE =           0.0000              RECHARGE =           0.0000
      STREAM LEAKAGE =    68063379.7743        STREAM LEAKAGE =       38460.5399

           TOTAL OUT =   100688045.0514             TOTAL OUT =       68610.2426

            IN - OUT =          -1.9191              IN - OUT =      -4.8690E-03

 PERCENT DISCREPANCY =          -0.00     PERCENT DISCREPANCY =          -0.00






         TIME SUMMARY AT END OF TIME STEP    1 IN STRESS PERIOD   11
                    SECONDS     MINUTES      HOURS       DAYS        YEARS
                    -----------------------------------------------------------
   TIME STEP LENGTH 7.86240E+06 1.31040E+05  2184.0      91.000     0.24914    
 STRESS PERIOD TIME 7.86240E+06 1.31040E+05  2184.0      91.000     0.24914    
         TOTAL TIME 8.67456E+07 1.44576E+06  24096.      1004.0      2.7488    
1
1
                            STRESS PERIOD NO.   12, LENGTH =   91.00000    
                            -----------------------------------------------

                              NUMBER OF TIME STEPS =     1

                               MULTIPLIER FOR DELT =     1.500

                            INITIAL TIME STEP SIZE =   91.00000    

 WELL NO.  LAYER   ROW   COL   STRESS RATE         
 --------------------------------------------------
      1      1     11     18      -9961.    
      2      1      5     20     -0.1016E+05
      3      1     11     16      -434.0    
      4      1     11     19      -9596.    

      4 WELLS

                 RECHARGE =  1.000000E-03

 REUSING STREAM SEGMENT DATA FROM LAST STRESS PERIOD
 
 SOLVING FOR HEAD 


     7 CALLS TO PCG ROUTINE FOR TIME STEP   1 IN STRESS PERIOD   12
    24 TOTAL ITERATIONS

 OUTPUT CONTROL FOR STRESS PERIOD   12   TIME STEP    1
    SAVE BUDGET
    SAVE HEAD FOR ALL LAYERS
    PRINT HEAD FOR ALL LAYERS
 UBDSV2 SAVING "STREAMFLOW OUT  " ON UNIT  50 AT TIME STEP  1, STRESS PERIOD  12



 STREAM LISTING     PERIOD     12   STEP        1

 LAYER ROW COL. STREAM  RCH.  FLOW INTO     FLOW TO   FLOW OUT OF   OVRLND.     DIRECT     STREAM       STREAM     STREAM     STREAM   STREAMBED  STREAMBED
                SEG.NO.  NO.  STRM. RCH.    AQUIFER    STRM. RCH.    RUNOFF     PRECIP       ET          HEAD       DEPTH      WIDTH   CONDCTNC.   GRADIENT

   1   13    1     1     1    1.0000E+05 -1.5846E+03   1.0158E+05  0.000E+00  0.000E+00  0.000E+00  4.84067E+01  1.453E-01  2.000E+01  2.000E+04 -7.923E-02
   1   13    2     1     2    1.0158E+05 -2.5113E+03   1.0410E+05  0.000E+00  0.000E+00  0.000E+00  4.79312E+01  1.471E-01  2.000E+01  2.000E+04 -1.256E-01
   1   14    3     1     3    1.0410E+05 -4.3087E+02   1.0453E+05  0.000E+00  0.000E+00  0.000E+00  4.74552E+01  1.484E-01  2.000E+01  2.000E+04 -2.154E-02
   1   15    4     1     4    1.0453E+05 -4.1151E+02   1.0494E+05  0.000E+00  0.000E+00  0.000E+00  4.69783E+01  1.487E-01  2.000E+01  2.000E+04 -2.058E-02
   1   16    5     1     5    1.0494E+05 -1.6226E+03   1.0656E+05  0.000E+00  0.000E+00  0.000E+00  4.65019E+01  1.496E-01  2.000E+01  2.000E+04 -8.113E-02
   1   16    6     1     6    1.0656E+05 -1.0231E+03   1.0758E+05  0.000E+00  0.000E+00  0.000E+00  4.60257E+01  1.507E-01  2.000E+01  2.000E+04 -5.115E-02
   1   16    7     1     7    1.0758E+05 -1.0058E+03   1.0859E+05  0.000E+00  0.000E+00  0.000E+00  4.55493E+01  1.516E-01  2.000E+01  2.000E+04 -5.029E-02
   1   16    8     1     8    1.0859E+05 -1.0059E+03   1.0960E+05  0.000E+00  0.000E+00  0.000E+00  4.50729E+01  1.524E-01  2.000E+01  2.000E+04 -5.030E-02
   1   16    9     1     9    1.0960E+05 -1.0057E+03   1.1060E+05  0.000E+00  0.000E+00  0.000E+00  4.45964E+01  1.532E-01  2.000E+01  2.000E+04 -5.028E-02
   1   16   10     1    10    1.1060E+05 -1.0053E+03   1.1161E+05  0.000E+00  0.000E+00  0.000E+00  4.41200E+01  1.541E-01  2.000E+01  2.000E+04 -5.026E-02
   1   16   11     1    11    1.1161E+05 -1.0237E+03   1.1263E+05  0.000E+00  0.000E+00  0.000E+00  4.36436E+01  1.549E-01  2.000E+01  2.000E+04 -5.118E-02
   1   16   12     1    12    1.1263E+05 -1.7060E+03   1.1434E+05  0.000E+00  0.000E+00  0.000E+00  4.31674E+01  1.561E-01  2.000E+01  2.000E+04 -8.530E-02
   1   15   13     1    13    1.1434E+05 -1.4353E+03   1.1577E+05  0.000E+00  0.000E+00  0.000E+00  4.26914E+01  1.573E-01  2.000E+01  2.000E+04 -7.177E-02
   1   14   14     1    14    1.1577E+05 -1.4916E+03   1.1726E+05  0.000E+00  0.000E+00  0.000E+00  4.22154E+01  1.585E-01  2.000E+01  2.000E+04 -7.458E-02
   1   13   15     1    15    1.1726E+05 -1.4233E+03   1.1869E+05  0.000E+00  0.000E+00  0.000E+00  4.17393E+01  1.597E-01  2.000E+01  2.000E+04 -7.117E-02
   1   12   16     1    16    1.1869E+05 -6.6686E+02   1.1935E+05  0.000E+00  0.000E+00  0.000E+00  4.12629E+01  1.606E-01  2.000E+01  2.000E+04 -3.334E-02
   1   12   17     1    17    1.1935E+05  7.6566E+02   1.1859E+05  0.000E+00  0.000E+00  0.000E+00  4.07855E+01  1.605E-01  2.000E+01  2.000E+04  3.828E-02
   1   12   18     1    18    1.1859E+05  3.6463E+03   1.1494E+05  0.000E+00  0.000E+00  0.000E+00  4.03065E+01  1.587E-01  2.000E+01  2.000E+04  1.823E-01
   1   12   19     1    19    1.1494E+05  4.0639E+03   1.1088E+05  0.000E+00  0.000E+00  0.000E+00  3.98260E+01  1.556E-01  2.000E+01  2.000E+04  2.032E-01
   1   13   20     1    20    1.1088E+05 -3.5170E+02   1.1123E+05  0.000E+00  0.000E+00  0.000E+00  3.93472E+01  1.540E-01  2.000E+01  2.000E+04 -1.759E-02
   1   14   21     1    21    1.1123E+05 -1.2666E+03   1.1250E+05  0.000E+00  0.000E+00  0.000E+00  3.88706E+01  1.547E-01  2.000E+01  2.000E+04 -6.333E-02
   1   14   22     1    22    1.1250E+05  4.9071E+03   1.0759E+05  0.000E+00  0.000E+00  0.000E+00  3.83918E+01  1.532E-01  2.000E+01  2.000E+04  2.454E-01
   1    9   30     2     1    5.0000E+04 -3.6011E+02   5.0360E+04  0.000E+00  0.000E+00  0.000E+00  4.02411E+01  1.161E-01  2.000E+01  2.000E+04 -1.801E-02
   1    9   29     2     2    5.0360E+04 -6.2088E+02   5.0981E+04  0.000E+00  0.000E+00  0.000E+00  3.99918E+01  1.168E-01  2.000E+01  2.000E+04 -3.104E-02
   1    9   28     2     3    5.0981E+04 -7.7554E+02   5.1757E+04  0.000E+00  0.000E+00  0.000E+00  3.97428E+01  1.178E-01  2.000E+01  2.000E+04 -3.878E-02
   1    9   27     2     4    5.1757E+04 -1.4174E+03   5.3174E+04  0.000E+00  0.000E+00  0.000E+00  3.94943E+01  1.193E-01  2.000E+01  2.000E+04 -7.087E-02
   1   10   26     2     5    5.3174E+04 -7.0761E+02   5.3882E+04  0.000E+00  0.000E+00  0.000E+00  3.92457E+01  1.207E-01  2.000E+01  2.000E+04 -3.538E-02
   1   11   25     2     6    5.3882E+04 -4.7057E+02   5.4352E+04  0.000E+00  0.000E+00  0.000E+00  3.89965E+01  1.215E-01  2.000E+01  2.000E+04 -2.353E-02
   1   12   24     2     7    5.4352E+04 -4.1744E+02   5.4770E+04  0.000E+00  0.000E+00  0.000E+00  3.87471E+01  1.221E-01  2.000E+01  2.000E+04 -2.087E-02
   1   13   23     2     8    5.4770E+04 -7.1116E+01   5.4841E+04  0.000E+00  0.000E+00  0.000E+00  3.84974E+01  1.224E-01  2.000E+01  2.000E+04 -3.556E-03
   1   14   22     2     9    5.4841E+04  1.9930E+03   5.2848E+04  0.000E+00  0.000E+00  0.000E+00  3.82461E+01  1.211E-01  2.000E+01  2.000E+04  9.965E-02
   1   14   22     3     1    1.6044E+05 -8.5797E+03   1.6902E+05  0.000E+00  0.000E+00  0.000E+00  3.77175E+01  1.619E-01  2.000E+01  2.000E+04 -4.290E-01
   1   15   23     3     2    1.6902E+05 -5.4471E+02   1.6956E+05  0.000E+00  0.000E+00  0.000E+00  3.68313E+01  1.646E-01  2.000E+01  2.000E+04 -2.724E-02
   1   15   24     3     3    1.6956E+05 -2.8216E+02   1.6984E+05  0.000E+00  0.000E+00  0.000E+00  3.59426E+01  1.649E-01  2.000E+01  2.000E+04 -1.411E-02
   1   15   25     3     4    1.6984E+05 -2.7422E+02   1.7012E+05  0.000E+00  0.000E+00  0.000E+00  3.50539E+01  1.650E-01  2.000E+01  2.000E+04 -1.371E-02
   1   15   26     3     5    1.7012E+05 -3.3206E+02   1.7045E+05  0.000E+00  0.000E+00  0.000E+00  3.41652E+01  1.652E-01  2.000E+01  2.000E+04 -1.660E-02
   1   16   27     3     6    1.7045E+05 -3.6320E+02   1.7081E+05  0.000E+00  0.000E+00  0.000E+00  3.32765E+01  1.654E-01  2.000E+01  2.000E+04 -1.816E-02
   1   17   28     3     7    1.7081E+05 -1.5486E+03   1.7236E+05  0.000E+00  0.000E+00  0.000E+00  3.23882E+01  1.660E-01  2.000E+01  2.000E+04 -7.743E-02
   1   18   29     3     8    1.7236E+05 -2.8853E+03   1.7525E+05  0.000E+00  0.000E+00  0.000E+00  3.15006E+01  1.672E-01  2.000E+01  2.000E+04 -1.443E-01
   1   18   30     3     9    1.7525E+05 -3.1685E+03   1.7841E+05  0.000E+00  0.000E+00  0.000E+00  3.06134E+01  1.690E-01  2.000E+01  2.000E+04 -1.584E-01



1
              HEAD IN LAYER   1 AT END OF TIME STEP   1 IN STRESS PERIOD   12
  ---------------------------------------------------------------------------

          1      2      3      4      5      6      7      8      9     10
         11     12     13     14     15     16     17     18     19     20
         21     22     23     24     25     26     27     28     29     30
 .........................................................................
   1  ****** ****** ****** ****** ****** ****** ****** ****** ****** ******
      ****** ****** ****** ****** ****** ****** ****** ****** ****** ******
      ****** ****** ****** ****** ****** ****** ****** ****** ****** ******
   2  ****** ****** ****** ****** ****** ****** ****** ****** ****** ******
      ****** ****** ****** ****** ****** ****** ****** ****** ****** ******
      ****** ****** ****** ****** ****** ****** ****** ****** ****** ******
   3  ****** ****** ****** ****** ****** ****** ****** ****** ****** ******
      ****** ****** ****** ****** ****** ****** ****** ****** ****** ******
      ****** ****** ****** ****** ****** ****** ****** ****** ****** ******
   4  ****** ****** ****** ****** ****** ****** ****** ****** ****** ******
      ****** ****** ****** ****** ****** ****** ****** ****** ****** ******
      ****** ****** ****** ****** ****** ****** ****** ****** ****** ******
   5  ****** ****** ****** ****** ****** ****** ****** ****** ****** ******
      ****** ****** ****** ****** ****** ****** ****** ****** ****** ******
      ****** ****** ****** ****** ****** ****** ****** ****** ****** ******
   6  ****** ****** ****** ****** ****** ****** ****** ****** ****** ******
      ****** ****** ****** ****** ****** ****** ****** ****** ****** ******
      ****** ****** ****** ****** ****** ****** ****** ****** ****** ******
   7  ****** ****** ****** ****** ****** ****** ****** ****** ****** ******
      ****** ****** ****** ****** ****** ****** ****** ****** ****** ******
      ****** ****** ****** ****** ****** ****** ****** ****** ****** ******
   8  ****** ****** ****** ****** ****** ****** ****** ****** ****** ******
      ****** ****** ****** ****** ****** ****** ****** ****** ****** ******
      ****** ****** ****** ****** ****** ****** ****** ****** ****** ******
   9  ****** ****** ****** ****** ****** ****** ****** ****** ****** ******
      ****** ****** ****** ****** ****** ****** ****** ****** ****** ******
      ****** ****** ****** ****** ****** ****** ****** ****** ****** ******
  10  ****** ****** ****** ****** ****** ****** ****** ****** ****** ******
      ****** ****** ****** ****** ****** ****** ****** ****** ****** ******
      ****** ****** ****** ****** ****** ****** ****** ****** ****** ******
  11  ****** ****** ****** ****** ****** ****** ****** ****** ****** ******
      ****** ****** ****** ****** ****** ****** ****** ****** ****** ******
      ****** ****** ****** ****** ****** ****** ****** ****** ****** ******
  12  ****** ****** ****** ****** ****** ****** ****** ****** ****** ******
      ****** ****** ****** ****** ****** ****** ****** ****** ****** ******
      ****** ****** ****** ****** ****** ****** ****** ****** ****** ******
  13  ****** ****** ****** ****** ****** ****** ****** ****** ****** ******
      ****** ****** ****** ****** ****** ****** ****** ****** ****** ******
      ****** ****** ****** ****** ****** ****** ****** ****** ****** ******
  14  ****** ****** ****** ****** ****** ****** ****** ****** ****** ******
      ****** ****** ****** ****** ****** ****** ****** ****** ****** ******
      ****** ****** ****** ****** ****** ****** ****** ****** ****** ******
  15  ****** ****** ****** ****** ****** ****** ****** ****** ****** ******
      ****** ****** ****** ****** ****** ****** ****** ****** ****** ******
      ****** ****** ****** ****** ****** ****** ****** ****** ****** ******
  16  ****** ****** ****** ****** ****** ****** ****** ****** ****** ******
      ****** ****** ****** ****** ****** ****** ****** ****** ****** ******
      ****** ****** ****** ****** ****** ****** ****** ****** ****** ******
  17  ****** ****** ****** ****** ****** ****** ****** ****** ****** ******
      ****** ****** ****** ****** ****** ****** ****** ****** ****** ******
      ****** ****** ****** ****** ****** ****** ****** ****** ****** ******
  18  ****** ****** ****** ****** ****** ****** ****** ****** ****** ******
      ****** ****** ****** ****** ****** ****** ****** ****** ****** ******
      ****** ****** ****** ****** ****** ****** ****** ****** ****** ******
  19  ****** ****** ****** ****** ****** ****** ****** ****** ****** ******
      ****** ****** ****** ****** ****** ****** ****** ****** ****** ******
      ****** ****** ****** ****** ****** ****** ****** ****** ****** ******
  20  ****** ****** ****** ****** ****** ****** ****** ****** ****** ******
      ****** ****** ****** ****** ****** ****** ****** ****** ****** ******
      ****** ****** ****** ****** ****** ****** ****** ****** ****** ******
  21  ****** ****** ****** ****** ****** ****** ****** ****** ****** ******
      ****** ****** ****** ****** ****** ****** ****** ****** ****** ******
      ****** ****** ****** ****** ****** ****** ****** ****** ****** ******
  22  ****** ****** ****** ****** ****** ****** ****** ****** ****** ******
      ****** ****** ****** ****** ****** ****** ****** ****** ****** ******
      ****** ****** ****** ****** ****** ****** ****** ****** ****** ******
  23  ****** ****** ****** ****** ****** ****** ****** ****** ****** ******
      ****** ****** ****** ****** ****** ****** ****** ****** ****** ******
      ****** ****** ****** ****** ****** ****** ****** ****** ****** ******
  24  ****** ****** ****** ****** ****** ****** ****** ****** ****** ******
      ****** ****** ****** ****** ****** ****** ****** ****** ****** ******
      ****** ****** ****** ****** ****** ****** ****** ****** ****** ******
  25  ****** ****** ****** ****** ****** ****** ****** ****** ****** ******
      ****** ****** ****** ****** ****** ****** ****** ****** ****** ******
      ****** ****** ****** ****** ****** ****** ****** ****** ****** ******

 HEAD WILL BE SAVED ON UNIT   51 AT END OF TIME STEP    1, STRESS PERIOD   12
1
  VOLUMETRIC BUDGET FOR ENTIRE MODEL AT END OF TIME STEP    1, STRESS PERIOD  12
  ------------------------------------------------------------------------------

     CUMULATIVE VOLUMES      L**3       RATES FOR THIS TIME STEP      L**3/T
     ------------------                 ------------------------

           IN:                                      IN:
           ---                                      ---
             STORAGE =    35370613.2969               STORAGE =          15.0729
       CONSTANT HEAD =    31525085.7932         CONSTANT HEAD =       33937.3284
               WELLS =           0.0000                 WELLS =           0.0000
            RECHARGE =    26413200.0000              RECHARGE =       27600.0000
      STREAM LEAKAGE =    14379624.9009        STREAM LEAKAGE =       15375.9599

            TOTAL IN =   107688523.9911              TOTAL IN =       76928.3611

          OUT:                                     OUT:
          ----                                     ----
             STORAGE =     2626271.0159               STORAGE =        2987.9915
       CONSTANT HEAD =           0.0000         CONSTANT HEAD =           0.0000
               WELLS =    33013924.4282                 WELLS =       30149.7027
            RECHARGE =           0.0000              RECHARGE =           0.0000
      STREAM LEAKAGE =    72048330.3791        STREAM LEAKAGE =       43790.6660

           TOTAL OUT =   107688525.8233             TOTAL OUT =       76928.3601

            IN - OUT =          -1.8321              IN - OUT =       9.5611E-04

 PERCENT DISCREPANCY =          -0.00     PERCENT DISCREPANCY =           0.00






         TIME SUMMARY AT END OF TIME STEP    1 IN STRESS PERIOD   12
                    SECONDS     MINUTES      HOURS       DAYS        YEARS
                    -----------------------------------------------------------
   TIME STEP LENGTH 7.86240E+06 1.31040E+05  2184.0      91.000     0.24914    
 STRESS PERIOD TIME 7.86240E+06 1.31040E+05  2184.0      91.000     0.24914    
         TOTAL TIME 9.46080E+07 1.57680E+06  26280.      1095.0      2.9979    
1

 Run end date and time (yyyy/mm/dd hh:mm:ss): 2019/08/04 17:44:22
 Elapsed run time:  0.041 Seconds

