                                  MODFLOW-2005     
      U.S. GEOLOGICAL SURVEY MODULAR FINITE-DIFFERENCE GROUND-WATER FLOW MODEL
                            VERSION 1.11.00 8/8/2013

 LIST FILE: supply2.lst
                         UNIT   10

 OPENING ..\data\supply.dis
 FILE TYPE:DIS   UNIT   11   STATUS:OLD    
 FORMAT:FORMATTED              ACCESS:SEQUENTIAL          

 OPENING ..\data\supply.ba6
 FILE TYPE:BAS6   UNIT   12   STATUS:OLD    
 FORMAT:FORMATTED              ACCESS:SEQUENTIAL          

 OPENING ..\data\supply_het.bc6
 FILE TYPE:BCF6   UNIT   13   STATUS:OLD    
 FORMAT:FORMATTED              ACCESS:SEQUENTIAL          

 OPENING ..\data\supply.rch
 FILE TYPE:RCH   UNIT   15   STATUS:OLD    
 FORMAT:FORMATTED              ACCESS:SEQUENTIAL          

 OPENING ..\data\supply2.sfr
 FILE TYPE:SFR   UNIT   16   STATUS:OLD    
 FORMAT:FORMATTED              ACCESS:SEQUENTIAL          

 OPENING ..\data\supply.oc
 FILE TYPE:OC   UNIT   17   STATUS:OLD    
 FORMAT:FORMATTED              ACCESS:SEQUENTIAL          

 OPENING ..\data\supply.pcg
 FILE TYPE:PCG   UNIT   18   STATUS:OLD    
 FORMAT:FORMATTED              ACCESS:SEQUENTIAL          

 OPENING supply2.wel
 FILE TYPE:WEL   UNIT   19   STATUS:OLD    
 FORMAT:FORMATTED              ACCESS:SEQUENTIAL          

 OPENING supply2sf.cbc
 FILE TYPE:DATA(BINARY)   UNIT   50   STATUS:UNKNOWN
 FORMAT:BINARY                 ACCESS:SEQUENTIAL          

 OPENING supply2hd.bhd
 FILE TYPE:DATA(BINARY)   UNIT   51   STATUS:UNKNOWN
 FORMAT:BINARY                 ACCESS:SEQUENTIAL          

 BAS -- BASIC PACKAGE, VERSION 7, 5/2/2005 INPUT READ FROM UNIT   12
 
 MODFLOW was compiled using uniform precision
 Precision of REAL and DOUBLE PRECISION variables:          15

 DISCRETIZATION INPUT DATA READ FROM UNIT   11
    1 LAYERS        25 ROWS        30 COLUMNS
   12 STRESS PERIOD(S) IN SIMULATION
 MODEL TIME UNIT IS DAYS
 MODEL LENGTH UNIT IS UNDEFINED
  Confining bed flag for each layer:
   0

                     DELR =   200.000    

                     DELC =   200.000    

 TOP ELEVATION OF LAYER 1 =  100.0000    

   MODEL LAYER BOTTOM EL. =   0.00000     FOR LAYER   1


 STRESS PERIOD     LENGTH       TIME STEPS     MULTIPLIER FOR DELT    SS FLAG
 ----------------------------------------------------------------------------
        1         92.00000          1                    1.500         TR
        2         91.00000          1                    1.500         TR
        3         91.00000          1                    1.500         TR
        4         91.00000          1                    1.500         TR
        5         92.00000          1                    1.500         TR
        6         91.00000          1                    1.500         TR
        7         91.00000          1                    1.500         TR
        8         91.00000          1                    1.500         TR
        9         92.00000          1                    1.500         TR
       10         91.00000          1                    1.500         TR
       11         91.00000          1                    1.500         TR
       12         91.00000          1                    1.500         TR

 TRANSIENT SIMULATION



 
 #MODOFC transient water supply sample problem                                   
 #                                                                               
 THE FREE FORMAT OPTION HAS BEEN SELECTED



                     BOUNDARY ARRAY FOR LAYER   1
 READING ON UNIT   12 WITH FORMAT: (20I4)              

 AQUIFER HEAD WILL BE SET TO   0.0000     AT ALL NO-FLOW NODES (IBOUND=0).



                       INITIAL HEAD FOR LAYER   1
 READING ON UNIT   12 WITH FORMAT: (10F13.0)           

 OUTPUT CONTROL IS SPECIFIED ONLY AT TIME STEPS FOR WHICH OUTPUT IS DESIRED
 COMPACT CELL-BY-CELL BUDGET FILES WILL BE WRITTEN
 HEAD PRINT FORMAT CODE IS  18    DRAWDOWN PRINT FORMAT CODE IS   0
 HEADS WILL BE SAVED ON UNIT   51    DRAWDOWNS WILL BE SAVED ON UNIT    0

 BCF -- BLOCK-CENTERED FLOW PACKAGE, VERSION 7, 5/2/2005
         INPUT READ FROM UNIT 13
 TRANSIENT SIMULATION
 HEAD AT CELLS THAT CONVERT TO DRY=   0.0000    
 WETTING CAPABILITY IS NOT ACTIVE
      LAYER  LAYER-TYPE CODE     INTERBLOCK T
      --------------------------------------------
         1            0          0 -- HARMONIC    

 COLUMN TO ROW ANISOTROPY =  1.000000    

     PRIMARY STORAGE COEF =  5.000000E-02 FOR LAYER   1



               TRANSMIS. ALONG ROWS FOR LAYER   1
 READING ON UNIT   13 WITH FORMAT: (FREE)              

 WEL -- WELL PACKAGE, VERSION 7, 5/2/2005 INPUT READ FROM UNIT   19
 # Well package input file written by MMProc
 No named parameters
 MAXIMUM OF      4 ACTIVE WELLS AT ONE TIME


     0 Well parameters

 RCH -- RECHARGE PACKAGE, VERSION 7, 5/2/2005 INPUT READ FROM UNIT   15
 No named parameters
 OPTION 1 -- RECHARGE TO TOP LAYER


     0 Recharge parameters

 SFR7 -- STREAMFLOW ROUTING PACKAGE, VERSION 1.0.7, 2013-01-15
         INPUT READ FROM UNIT  16
 #  Supply2 test problem for GWM-VI
 #  The eighth entry in the first data line is ISTCB2 -
 #    Setting this to a negative number indicates that
 #    streamflows out of the reach will be saved to a
 #    binary file.  The absolute value of ISTCB2 is the
 #    unit to which unformatted flows will be written.
 #
 No named parameters
 Segment information will not be 
 read by reach
 No named parameters
 No specifed inflow files


 NUMBER OF STREAM REACHES IS   40

 NUMBER OF STREAM SEGMENTS IS    3

 NUMBER OF STREAM PARAMETERS IS    0

 NUMBER OF STREAM SEGMENTS DEFINED USING PARAMETERS IS              0

 MAXIMUM ERROR FOR STREAM LEAKAGE RATES IS  1.00E-04

 CONSTANT FOR MANNINGS EQUATION IS  1.2839E+05





   STREAM NETWORK DESCRIPTION: 

   LAYER    ROW    COL   SEGMENT   REACH     LENGTH
                          NUMBER   NUMBER    IN CELL        
   --------------------------------------------------
      1     13      1       1        1    2.0000E+02
      1     13      2       1        2    2.0000E+02
      1     14      3       1        3    2.0000E+02
      1     15      4       1        4    2.0000E+02
      1     16      5       1        5    2.0000E+02
      1     16      6       1        6    2.0000E+02
      1     16      7       1        7    2.0000E+02
      1     16      8       1        8    2.0000E+02
      1     16      9       1        9    2.0000E+02
      1     16     10       1       10    2.0000E+02
      1     16     11       1       11    2.0000E+02
      1     16     12       1       12    2.0000E+02
      1     15     13       1       13    2.0000E+02
      1     14     14       1       14    2.0000E+02
      1     13     15       1       15    2.0000E+02
      1     12     16       1       16    2.0000E+02
      1     12     17       1       17    2.0000E+02
      1     12     18       1       18    2.0000E+02
      1     12     19       1       19    2.0000E+02
      1     13     20       1       20    2.0000E+02
      1     14     21       1       21    2.0000E+02
      1     14     22       1       22    2.0000E+02
      1      9     30       2        1    2.0000E+02
      1      9     29       2        2    2.0000E+02
      1      9     28       2        3    2.0000E+02
      1      9     27       2        4    2.0000E+02
      1     10     26       2        5    2.0000E+02
      1     11     25       2        6    2.0000E+02
      1     12     24       2        7    2.0000E+02
      1     13     23       2        8    2.0000E+02
      1     14     22       2        9    2.0000E+02
      1     14     22       3        1    2.0000E+02
      1     15     23       3        2    2.0000E+02
      1     15     24       3        3    2.0000E+02
      1     15     25       3        4    2.0000E+02
      1     15     26       3        5    2.0000E+02
      1     16     27       3        6    2.0000E+02
      1     17     28       3        7    2.0000E+02
      1     18     29       3        8    2.0000E+02
      1     18     30       3        9    2.0000E+02




 PCG -- CONJUGATE-GRADIENT SOLUTION PACKAGE, VERSION 7, 5/2/2005
 MAXIMUM OF    500 CALLS OF SOLUTION ROUTINE
 MAXIMUM OF      5 INTERNAL ITERATIONS PER CALL TO SOLUTION ROUTINE
 MATRIX PRECONDITIONING TYPE :    1



                                    SOLUTION BY THE CONJUGATE-GRADIENT METHOD
                                   -------------------------------------------
                    MAXIMUM NUMBER OF CALLS TO PCG ROUTINE =      500
                        MAXIMUM ITERATIONS PER CALL TO PCG =        5
                               MATRIX PRECONDITIONING TYPE =        1
        RELAXATION FACTOR (ONLY USED WITH PRECOND. TYPE 1) =    0.10000E+01
 PARAMETER OF POLYNOMIAL PRECOND. = 2 (2) OR IS CALCULATED :        0
                         HEAD CHANGE CRITERION FOR CLOSURE =    0.10000E-05
                     RESIDUAL CHANGE CRITERION FOR CLOSURE =    0.10000E+01
            PCG HEAD AND RESIDUAL CHANGE PRINTOUT INTERVAL =        1
     PRINTING FROM SOLVER IS LIMITED(1) OR SUPPRESSED (>1) =        1
                            STEADY-STATE DAMPING PARAMETER =    0.10000E+01
                               TRANSIENT DAMPING PARAMETER =    0.10000E+01
1
                            STRESS PERIOD NO.    1, LENGTH =   92.00000    
                            -----------------------------------------------

                              NUMBER OF TIME STEPS =     1

                               MULTIPLIER FOR DELT =     1.500

                            INITIAL TIME STEP SIZE =   92.00000    

 WELL NO.  LAYER   ROW   COL   STRESS RATE         
 --------------------------------------------------
      1      1     20     21      -6420.    
      2      1     18     16     -0.1266E+05
      3      1     20     18      -5517.    
      4      1      4      9      -6868.    

      4 WELLS

                 RECHARGE =  5.000000E-04



 CLASSIFICATION & COUNT OF STREAM SEGMENTS BASED ON SOURCE OF INFLOW:

                HEADWATER     DIVERSION     RECEIVES TRIBUTARY FLOW
                ---------     ---------     -----------------------
                     2              0               1



                    INPUT DATA FOR EACH STREAM SEGMENT
 ---------------------------------------------------------------------------------------------

 SEGMENT    SEG.     INFLOW   OVERLAND   STREAM    STREAM   ICALC  OUTFLOW  DIVERSION PRIORITY
    NO.    LENGTH     RATE     RUNOFF      ET       PPT.    METH.  TO SEG.  FROM SEG.    NO.

      1  4.400E+03 1.000E+05 0.000E+00 0.000E+00 0.000E+00    1        3        0        0
      2  1.800E+03 5.000E+04 0.000E+00 0.000E+00 0.000E+00    1        3        0        0
      3  1.800E+03 0.000E+00 0.000E+00 0.000E+00 0.000E+00    1        0        0        0


         STREAMBED PROPERTIES AND STREAM DIMENSIONS

 SEGMENT     BED HYD. COND.      BED THICKNESS     ELEV.-TOP OF BED     WIDTH OF STREAM     DEPTH OF STREAM    STREAM ROUGHNESS
    No.     UPPER     LOWER     UPPER     LOWER     UPPER     LOWER     UPPER     LOWER     UPPER     LOWER   CHANNEL      BANK

     1  5.000E+00 5.000E+00 1.000E+00 1.000E+00 4.850E+01 3.800E+01 2.000E+01 2.000E+01                     5.000E-02
     2  5.000E+00 5.000E+00 1.000E+00 1.000E+00 4.025E+01 3.800E+01 2.000E+01 2.000E+01                     5.000E-02
     3  5.000E+00 5.000E+00 1.000E+00 1.000E+00 3.800E+01 3.000E+01 2.000E+01 2.000E+01                     5.000E-02



 
 SOLVING FOR HEAD 


     9 CALLS TO PCG ROUTINE FOR TIME STEP   1 IN STRESS PERIOD    1
    36 TOTAL ITERATIONS

 OUTPUT CONTROL FOR STRESS PERIOD    1   TIME STEP    1
    SAVE BUDGET
    SAVE HEAD FOR ALL LAYERS
    PRINT HEAD FOR ALL LAYERS
 UBDSV2 SAVING "STREAMFLOW OUT  " ON UNIT  50 AT TIME STEP  1, STRESS PERIOD   1



 STREAM LISTING     PERIOD      1   STEP        1

 LAYER ROW COL. STREAM  RCH.  FLOW INTO     FLOW TO   FLOW OUT OF   OVRLND.     DIRECT     STREAM       STREAM     STREAM     STREAM   STREAMBED  STREAMBED
                SEG.NO.  NO.  STRM. RCH.    AQUIFER    STRM. RCH.    RUNOFF     PRECIP       ET          HEAD       DEPTH      WIDTH   CONDCTNC.   GRADIENT

   1   13    1     1     1    1.0000E+05 -6.0494E+03   1.0605E+05  0.000E+00  0.000E+00  0.000E+00  4.84086E+01  1.473E-01  2.000E+01  2.000E+04 -3.025E-01
   1   13    2     1     2    1.0605E+05 -7.5169E+03   1.1357E+05  0.000E+00  0.000E+00  0.000E+00  4.79371E+01  1.530E-01  2.000E+01  2.000E+04 -3.758E-01
   1   14    3     1     3    1.1357E+05 -2.1935E+03   1.1576E+05  0.000E+00  0.000E+00  0.000E+00  4.74638E+01  1.570E-01  2.000E+01  2.000E+04 -1.097E-01
   1   15    4     1     4    1.1576E+05 -2.2638E+03   1.1802E+05  0.000E+00  0.000E+00  0.000E+00  4.69884E+01  1.589E-01  2.000E+01  2.000E+04 -1.132E-01
   1   16    5     1     5    1.1802E+05 -7.1247E+03   1.2515E+05  0.000E+00  0.000E+00  0.000E+00  4.65149E+01  1.627E-01  2.000E+01  2.000E+04 -3.562E-01
   1   16    6     1     6    1.2515E+05 -4.2499E+03   1.2940E+05  0.000E+00  0.000E+00  0.000E+00  4.60422E+01  1.672E-01  2.000E+01  2.000E+04 -2.125E-01
   1   16    7     1     7    1.2940E+05 -4.0651E+03   1.3346E+05  0.000E+00  0.000E+00  0.000E+00  4.55682E+01  1.704E-01  2.000E+01  2.000E+04 -2.033E-01
   1   16    8     1     8    1.3346E+05 -3.9928E+03   1.3746E+05  0.000E+00  0.000E+00  0.000E+00  4.50940E+01  1.735E-01  2.000E+01  2.000E+04 -1.996E-01
   1   16    9     1     9    1.3746E+05 -3.9328E+03   1.4139E+05  0.000E+00  0.000E+00  0.000E+00  4.46198E+01  1.766E-01  2.000E+01  2.000E+04 -1.966E-01
   1   16   10     1    10    1.4139E+05 -3.8501E+03   1.4524E+05  0.000E+00  0.000E+00  0.000E+00  4.41454E+01  1.795E-01  2.000E+01  2.000E+04 -1.925E-01
   1   16   11     1    11    1.4524E+05 -3.7356E+03   1.4897E+05  0.000E+00  0.000E+00  0.000E+00  4.36710E+01  1.823E-01  2.000E+01  2.000E+04 -1.868E-01
   1   16   12     1    12    1.4897E+05 -5.8281E+03   1.5480E+05  0.000E+00  0.000E+00  0.000E+00  4.31972E+01  1.859E-01  2.000E+01  2.000E+04 -2.914E-01
   1   15   13     1    13    1.5480E+05 -6.1716E+03   1.6097E+05  0.000E+00  0.000E+00  0.000E+00  4.27243E+01  1.903E-01  2.000E+01  2.000E+04 -3.086E-01
   1   14   14     1    14    1.6097E+05 -6.8081E+03   1.6778E+05  0.000E+00  0.000E+00  0.000E+00  4.22517E+01  1.949E-01  2.000E+01  2.000E+04 -3.404E-01
   1   13   15     1    15    1.6778E+05 -7.4362E+03   1.7522E+05  0.000E+00  0.000E+00  0.000E+00  4.17795E+01  1.999E-01  2.000E+01  2.000E+04 -3.718E-01
   1   12   16     1    16    1.7522E+05 -8.5027E+03   1.8372E+05  0.000E+00  0.000E+00  0.000E+00  4.13077E+01  2.055E-01  2.000E+01  2.000E+04 -4.251E-01
   1   12   17     1    17    1.8372E+05 -5.9290E+03   1.8965E+05  0.000E+00  0.000E+00  0.000E+00  4.08354E+01  2.104E-01  2.000E+01  2.000E+04 -2.964E-01
   1   12   18     1    18    1.8965E+05 -5.8020E+03   1.9545E+05  0.000E+00  0.000E+00  0.000E+00  4.03620E+01  2.143E-01  2.000E+01  2.000E+04 -2.901E-01
   1   12   19     1    19    1.9545E+05 -7.4930E+03   2.0295E+05  0.000E+00  0.000E+00  0.000E+00  3.98892E+01  2.187E-01  2.000E+01  2.000E+04 -3.747E-01
   1   13   20     1    20    2.0295E+05 -6.2358E+03   2.0918E+05  0.000E+00  0.000E+00  0.000E+00  3.94164E+01  2.232E-01  2.000E+01  2.000E+04 -3.118E-01
   1   14   21     1    21    2.0918E+05 -5.3775E+03   2.1456E+05  0.000E+00  0.000E+00  0.000E+00  3.89429E+01  2.270E-01  2.000E+01  2.000E+04 -2.689E-01
   1   14   22     1    22    2.1456E+05  3.8047E+03   2.1075E+05  0.000E+00  0.000E+00  0.000E+00  3.84661E+01  2.275E-01  2.000E+01  2.000E+04  1.902E-01
   1    9   30     2     1    5.0000E+04 -4.8574E+03   5.4857E+04  0.000E+00  0.000E+00  0.000E+00  4.02442E+01  1.192E-01  2.000E+01  2.000E+04 -2.429E-01
   1    9   29     2     2    5.4857E+04 -5.1532E+03   6.0011E+04  0.000E+00  0.000E+00  0.000E+00  4.00009E+01  1.259E-01  2.000E+01  2.000E+04 -2.577E-01
   1    9   28     2     3    6.0011E+04 -5.4391E+03   6.5450E+04  0.000E+00  0.000E+00  0.000E+00  3.97578E+01  1.328E-01  2.000E+01  2.000E+04 -2.720E-01
   1    9   27     2     4    6.5450E+04 -8.2999E+03   7.3750E+04  0.000E+00  0.000E+00  0.000E+00  3.95163E+01  1.413E-01  2.000E+01  2.000E+04 -4.150E-01
   1   10   26     2     5    7.3750E+04 -7.3399E+03   8.1090E+04  0.000E+00  0.000E+00  0.000E+00  3.92756E+01  1.506E-01  2.000E+01  2.000E+04 -3.670E-01
   1   11   25     2     6    8.1090E+04 -6.7968E+03   8.7886E+04  0.000E+00  0.000E+00  0.000E+00  3.90337E+01  1.587E-01  2.000E+01  2.000E+04 -3.398E-01
   1   12   24     2     7    8.7886E+04 -6.3101E+03   9.4196E+04  0.000E+00  0.000E+00  0.000E+00  3.87910E+01  1.660E-01  2.000E+01  2.000E+04 -3.155E-01
   1   13   23     2     8    9.4196E+04 -1.6529E+03   9.5849E+04  0.000E+00  0.000E+00  0.000E+00  3.85453E+01  1.703E-01  2.000E+01  2.000E+04 -8.264E-02
   1   14   22     2     9    9.5849E+04  4.0240E+02   9.5447E+04  0.000E+00  0.000E+00  0.000E+00  3.82960E+01  1.710E-01  2.000E+01  2.000E+04  2.012E-02
   1   14   22     3     1    3.0620E+05 -9.6638E+03   3.1586E+05  0.000E+00  0.000E+00  0.000E+00  3.77927E+01  2.371E-01  2.000E+01  2.000E+04 -4.832E-01
   1   15   23     3     2    3.1586E+05 -1.8057E+03   3.1767E+05  0.000E+00  0.000E+00  0.000E+00  3.69064E+01  2.397E-01  2.000E+01  2.000E+04 -9.028E-02
   1   15   24     3     3    3.1767E+05 -1.4943E+03   3.1916E+05  0.000E+00  0.000E+00  0.000E+00  3.60183E+01  2.405E-01  2.000E+01  2.000E+04 -7.472E-02
   1   15   25     3     4    3.1916E+05 -1.5613E+03   3.2073E+05  0.000E+00  0.000E+00  0.000E+00  3.51301E+01  2.412E-01  2.000E+01  2.000E+04 -7.807E-02
   1   15   26     3     5    3.2073E+05 -1.8743E+03   3.2260E+05  0.000E+00  0.000E+00  0.000E+00  3.42420E+01  2.420E-01  2.000E+01  2.000E+04 -9.371E-02
   1   16   27     3     6    3.2260E+05 -2.1482E+03   3.2475E+05  0.000E+00  0.000E+00  0.000E+00  3.33540E+01  2.429E-01  2.000E+01  2.000E+04 -1.074E-01
   1   17   28     3     7    3.2475E+05 -6.4876E+03   3.3124E+05  0.000E+00  0.000E+00  0.000E+00  3.24670E+01  2.448E-01  2.000E+01  2.000E+04 -3.244E-01
   1   18   29     3     8    3.3124E+05 -7.7706E+03   3.3901E+05  0.000E+00  0.000E+00  0.000E+00  3.15813E+01  2.480E-01  2.000E+01  2.000E+04 -3.885E-01
   1   18   30     3     9    3.3901E+05 -7.0463E+03   3.4605E+05  0.000E+00  0.000E+00  0.000E+00  3.06957E+01  2.513E-01  2.000E+01  2.000E+04 -3.523E-01



1
              HEAD IN LAYER   1 AT END OF TIME STEP   1 IN STRESS PERIOD    1
  ---------------------------------------------------------------------------

          1      2      3      4      5      6      7      8      9     10
         11     12     13     14     15     16     17     18     19     20
         21     22     23     24     25     26     27     28     29     30
 .........................................................................
   1  ****** ****** ****** ****** ****** ****** ****** ****** ****** ******
      ****** ****** ****** ****** ****** ****** ****** ****** ****** ******
      ****** ****** ****** ****** ****** ****** ****** ****** ****** ******
   2  ****** ****** ****** ****** ****** ****** ****** ****** ****** ******
      ****** ****** ****** ****** ****** ****** ****** ****** ****** ******
      ****** ****** ****** ****** ****** ****** ****** ****** ****** ******
   3  ****** ****** ****** ****** ****** ****** ****** ****** ****** ******
      ****** ****** ****** ****** ****** ****** ****** ****** ****** ******
      ****** ****** ****** ****** ****** ****** ****** ****** ****** ******
   4  ****** ****** ****** ****** ****** ****** ****** ****** ****** ******
      ****** ****** ****** ****** ****** ****** ****** ****** ****** ******
      ****** ****** ****** ****** ****** ****** ****** ****** ****** ******
   5  ****** ****** ****** ****** ****** ****** ****** ****** ****** ******
      ****** ****** ****** ****** ****** ****** ****** ****** ****** ******
      ****** ****** ****** ****** ****** ****** ****** ****** ****** ******
   6  ****** ****** ****** ****** ****** ****** ****** ****** ****** ******
      ****** ****** ****** ****** ****** ****** ****** ****** ****** ******
      ****** ****** ****** ****** ****** ****** ****** ****** ****** ******
   7  ****** ****** ****** ****** ****** ****** ****** ****** ****** ******
      ****** ****** ****** ****** ****** ****** ****** ****** ****** ******
      ****** ****** ****** ****** ****** ****** ****** ****** ****** ******
   8  ****** ****** ****** ****** ****** ****** ****** ****** ****** ******
      ****** ****** ****** ****** ****** ****** ****** ****** ****** ******
      ****** ****** ****** ****** ****** ****** ****** ****** ****** ******
   9  ****** ****** ****** ****** ****** ****** ****** ****** ****** ******
      ****** ****** ****** ****** ****** ****** ****** ****** ****** ******
      ****** ****** ****** ****** ****** ****** ****** ****** ****** ******
  10  ****** ****** ****** ****** ****** ****** ****** ****** ****** ******
      ****** ****** ****** ****** ****** ****** ****** ****** ****** ******
      ****** ****** ****** ****** ****** ****** ****** ****** ****** ******
  11  ****** ****** ****** ****** ****** ****** ****** ****** ****** ******
      ****** ****** ****** ****** ****** ****** ****** ****** ****** ******
      ****** ****** ****** ****** ****** ****** ****** ****** ****** ******
  12  ****** ****** ****** ****** ****** ****** ****** ****** ****** ******
      ****** ****** ****** ****** ****** ****** ****** ****** ****** ******
      ****** ****** ****** ****** ****** ****** ****** ****** ****** ******
  13  ****** ****** ****** ****** ****** ****** ****** ****** ****** ******
      ****** ****** ****** ****** ****** ****** ****** ****** ****** ******
      ****** ****** ****** ****** ****** ****** ****** ****** ****** ******
  14  ****** ****** ****** ****** ****** ****** ****** ****** ****** ******
      ****** ****** ****** ****** ****** ****** ****** ****** ****** ******
      ****** ****** ****** ****** ****** ****** ****** ****** ****** ******
  15  ****** ****** ****** ****** ****** ****** ****** ****** ****** ******
      ****** ****** ****** ****** ****** ****** ****** ****** ****** ******
      ****** ****** ****** ****** ****** ****** ****** ****** ****** ******
  16  ****** ****** ****** ****** ****** ****** ****** ****** ****** ******
      ****** ****** ****** ****** ****** ****** ****** ****** ****** ******
      ****** ****** ****** ****** ****** ****** ****** ****** ****** ******
  17  ****** ****** ****** ****** ****** ****** ****** ****** ****** ******
      ****** ****** ****** ****** ****** ****** ****** ****** ****** ******
      ****** ****** ****** ****** ****** ****** ****** ****** ****** ******
  18  ****** ****** ****** ****** ****** ****** ****** ****** ****** ******
      ****** ****** ****** ****** ****** ****** ****** ****** ****** ******
      ****** ****** ****** ****** ****** ****** ****** ****** ****** ******
  19  ****** ****** ****** ****** ****** ****** ****** ****** ****** ******
      ****** ****** ****** ****** ****** ****** ****** ****** ****** ******
      ****** ****** ****** ****** ****** ****** ****** ****** ****** ******
  20  ****** ****** ****** ****** ****** ****** ****** ****** ****** ******
      ****** ****** ****** ****** ****** ****** ****** ****** ****** ******
      ****** ****** ****** ****** ****** ****** ****** ****** ****** ******
  21  ****** ****** ****** ****** ****** ****** ****** ****** ****** ******
      ****** ****** ****** ****** ****** ****** ****** ****** ****** ******
      ****** ****** ****** ****** ****** ****** ****** ****** ****** ******
  22  ****** ****** ****** ****** ****** ****** ****** ****** ****** ******
      ****** ****** ****** ****** ****** ****** ****** ****** ****** ******
      ****** ****** ****** ****** ****** ****** ****** ****** ****** ******
  23  ****** ****** ****** ****** ****** ****** ****** ****** ****** ******
      ****** ****** ****** ****** ****** ****** ****** ****** ****** ******
      ****** ****** ****** ****** ****** ****** ****** ****** ****** ******
  24  ****** ****** ****** ****** ****** ****** ****** ****** ****** ******
      ****** ****** ****** ****** ****** ****** ****** ****** ****** ******
      ****** ****** ****** ****** ****** ****** ****** ****** ****** ******
  25  ****** ****** ****** ****** ****** ****** ****** ****** ****** ******
      ****** ****** ****** ****** ****** ****** ****** ****** ****** ******
      ****** ****** ****** ****** ****** ****** ****** ****** ****** ******

 HEAD WILL BE SAVED ON UNIT   51 AT END OF TIME STEP    1, STRESS PERIOD    1
1
  VOLUMETRIC BUDGET FOR ENTIRE MODEL AT END OF TIME STEP    1, STRESS PERIOD   1
  ------------------------------------------------------------------------------

     CUMULATIVE VOLUMES      L**3       RATES FOR THIS TIME STEP      L**3/T
     ------------------                 ------------------------

           IN:                                      IN:
           ---                                      ---
             STORAGE =    18419776.5988               STORAGE =      200214.9630
       CONSTANT HEAD =     1241879.5872         CONSTANT HEAD =       13498.6912
               WELLS =           0.0000                 WELLS =           0.0000
            RECHARGE =     1269600.0000              RECHARGE =       13800.0000
      STREAM LEAKAGE =      387056.5864        STREAM LEAKAGE =        4207.1368

            TOTAL IN =    21318312.7724              TOTAL IN =      231720.7910

          OUT:                                     OUT:
          ----                                     ----
             STORAGE =           0.0000               STORAGE =           0.0000
       CONSTANT HEAD =           0.0000         CONSTANT HEAD =           0.0000
               WELLS =     2894391.7175                 WELLS =       31460.7795
            RECHARGE =           0.0000              RECHARGE =           0.0000
      STREAM LEAKAGE =    18423921.3387        STREAM LEAKAGE =      200260.0146

           TOTAL OUT =    21318313.0562             TOTAL OUT =      231720.7941

            IN - OUT =          -0.2838              IN - OUT =      -3.0847E-03

 PERCENT DISCREPANCY =          -0.00     PERCENT DISCREPANCY =          -0.00






         TIME SUMMARY AT END OF TIME STEP    1 IN STRESS PERIOD    1
                    SECONDS     MINUTES      HOURS       DAYS        YEARS
                    -----------------------------------------------------------
   TIME STEP LENGTH 7.94880E+06 1.32480E+05  2208.0      92.000     0.25188    
 STRESS PERIOD TIME 7.94880E+06 1.32480E+05  2208.0      92.000     0.25188    
         TOTAL TIME 7.94880E+06 1.32480E+05  2208.0      92.000     0.25188    
1
1
                            STRESS PERIOD NO.    2, LENGTH =   91.00000    
                            -----------------------------------------------

                              NUMBER OF TIME STEPS =     1

                               MULTIPLIER FOR DELT =     1.500

                            INITIAL TIME STEP SIZE =   91.00000    

 WELL NO.  LAYER   ROW   COL   STRESS RATE         
 --------------------------------------------------
      1      1     20     21      -6420.    
      2      1     18     16     -0.1266E+05
      3      1     20     18      -5517.    
      4      1      4      9      -6868.    

      4 WELLS

                 RECHARGE =  2.000000E-03

 REUSING STREAM SEGMENT DATA FROM LAST STRESS PERIOD
 
 SOLVING FOR HEAD 


     7 CALLS TO PCG ROUTINE FOR TIME STEP   1 IN STRESS PERIOD    2
    27 TOTAL ITERATIONS

 OUTPUT CONTROL FOR STRESS PERIOD    2   TIME STEP    1
    SAVE BUDGET
    SAVE HEAD FOR ALL LAYERS
    PRINT HEAD FOR ALL LAYERS
 UBDSV2 SAVING "STREAMFLOW OUT  " ON UNIT  50 AT TIME STEP  1, STRESS PERIOD   2



 STREAM LISTING     PERIOD      2   STEP        1

 LAYER ROW COL. STREAM  RCH.  FLOW INTO     FLOW TO   FLOW OUT OF   OVRLND.     DIRECT     STREAM       STREAM     STREAM     STREAM   STREAMBED  STREAMBED
                SEG.NO.  NO.  STRM. RCH.    AQUIFER    STRM. RCH.    RUNOFF     PRECIP       ET          HEAD       DEPTH      WIDTH   CONDCTNC.   GRADIENT

   1   13    1     1     1    1.0000E+05 -3.8384E+03   1.0384E+05  0.000E+00  0.000E+00  0.000E+00  4.84077E+01  1.463E-01  2.000E+01  2.000E+04 -1.919E-01
   1   13    2     1     2    1.0384E+05 -5.0935E+03   1.0893E+05  0.000E+00  0.000E+00  0.000E+00  4.79342E+01  1.501E-01  2.000E+01  2.000E+04 -2.547E-01
   1   14    3     1     3    1.0893E+05 -1.1014E+03   1.1003E+05  0.000E+00  0.000E+00  0.000E+00  4.74596E+01  1.527E-01  2.000E+01  2.000E+04 -5.507E-02
   1   15    4     1     4    1.1003E+05 -1.1276E+03   1.1116E+05  0.000E+00  0.000E+00  0.000E+00  4.69832E+01  1.537E-01  2.000E+01  2.000E+04 -5.638E-02
   1   16    5     1     5    1.1116E+05 -4.1206E+03   1.1528E+05  0.000E+00  0.000E+00  0.000E+00  4.65081E+01  1.558E-01  2.000E+01  2.000E+04 -2.060E-01
   1   16    6     1     6    1.1528E+05 -2.3977E+03   1.1768E+05  0.000E+00  0.000E+00  0.000E+00  4.60335E+01  1.585E-01  2.000E+01  2.000E+04 -1.199E-01
   1   16    7     1     7    1.1768E+05 -2.2705E+03   1.1995E+05  0.000E+00  0.000E+00  0.000E+00  4.55581E+01  1.604E-01  2.000E+01  2.000E+04 -1.135E-01
   1   16    8     1     8    1.1995E+05 -2.1899E+03   1.2214E+05  0.000E+00  0.000E+00  0.000E+00  4.50827E+01  1.622E-01  2.000E+01  2.000E+04 -1.095E-01
   1   16    9     1     9    1.2214E+05 -2.0918E+03   1.2423E+05  0.000E+00  0.000E+00  0.000E+00  4.46071E+01  1.639E-01  2.000E+01  2.000E+04 -1.046E-01
   1   16   10     1    10    1.2423E+05 -1.9472E+03   1.2618E+05  0.000E+00  0.000E+00  0.000E+00  4.41314E+01  1.655E-01  2.000E+01  2.000E+04 -9.736E-02
   1   16   11     1    11    1.2618E+05 -1.7380E+03   1.2792E+05  0.000E+00  0.000E+00  0.000E+00  4.36556E+01  1.670E-01  2.000E+01  2.000E+04 -8.690E-02
   1   16   12     1    12    1.2792E+05 -2.4034E+03   1.3032E+05  0.000E+00  0.000E+00  0.000E+00  4.31800E+01  1.686E-01  2.000E+01  2.000E+04 -1.202E-01
   1   15   13     1    13    1.3032E+05 -2.4661E+03   1.3279E+05  0.000E+00  0.000E+00  0.000E+00  4.27046E+01  1.705E-01  2.000E+01  2.000E+04 -1.233E-01
   1   14   14     1    14    1.3279E+05 -3.0400E+03   1.3583E+05  0.000E+00  0.000E+00  0.000E+00  4.22295E+01  1.727E-01  2.000E+01  2.000E+04 -1.520E-01
   1   13   15     1    15    1.3583E+05 -3.7694E+03   1.3960E+05  0.000E+00  0.000E+00  0.000E+00  4.17548E+01  1.753E-01  2.000E+01  2.000E+04 -1.885E-01
   1   12   16     1    16    1.3960E+05 -5.1982E+03   1.4479E+05  0.000E+00  0.000E+00  0.000E+00  4.12809E+01  1.787E-01  2.000E+01  2.000E+04 -2.599E-01
   1   12   17     1    17    1.4479E+05 -3.2708E+03   1.4806E+05  0.000E+00  0.000E+00  0.000E+00  4.08068E+01  1.818E-01  2.000E+01  2.000E+04 -1.635E-01
   1   12   18     1    18    1.4806E+05 -3.1510E+03   1.5122E+05  0.000E+00  0.000E+00  0.000E+00  4.03320E+01  1.842E-01  2.000E+01  2.000E+04 -1.575E-01
   1   12   19     1    19    1.5122E+05 -4.2847E+03   1.5550E+05  0.000E+00  0.000E+00  0.000E+00  3.98574E+01  1.870E-01  2.000E+01  2.000E+04 -2.142E-01
   1   13   20     1    20    1.5550E+05 -2.8373E+03   1.5834E+05  0.000E+00  0.000E+00  0.000E+00  3.93827E+01  1.896E-01  2.000E+01  2.000E+04 -1.419E-01
   1   14   21     1    21    1.5834E+05 -2.1038E+03   1.6044E+05  0.000E+00  0.000E+00  0.000E+00  3.89072E+01  1.913E-01  2.000E+01  2.000E+04 -1.052E-01
   1   14   22     1    22    1.6044E+05  4.6406E+03   1.5580E+05  0.000E+00  0.000E+00  0.000E+00  3.84291E+01  1.904E-01  2.000E+01  2.000E+04  2.320E-01
   1    9   30     2     1    5.0000E+04 -2.1530E+03   5.2153E+04  0.000E+00  0.000E+00  0.000E+00  4.02424E+01  1.174E-01  2.000E+01  2.000E+04 -1.076E-01
   1    9   29     2     2    5.2153E+04 -2.4635E+03   5.4616E+04  0.000E+00  0.000E+00  0.000E+00  3.99955E+01  1.205E-01  2.000E+01  2.000E+04 -1.232E-01
   1    9   28     2     3    5.4616E+04 -2.7696E+03   5.7386E+04  0.000E+00  0.000E+00  0.000E+00  3.97490E+01  1.240E-01  2.000E+01  2.000E+04 -1.385E-01
   1    9   27     2     4    5.7386E+04 -4.8777E+03   6.2264E+04  0.000E+00  0.000E+00  0.000E+00  3.95040E+01  1.290E-01  2.000E+01  2.000E+04 -2.439E-01
   1   10   26     2     5    6.2264E+04 -3.7773E+03   6.6041E+04  0.000E+00  0.000E+00  0.000E+00  3.92596E+01  1.346E-01  2.000E+01  2.000E+04 -1.889E-01
   1   11   25     2     6    6.6041E+04 -3.3899E+03   6.9431E+04  0.000E+00  0.000E+00  0.000E+00  3.90140E+01  1.390E-01  2.000E+01  2.000E+04 -1.695E-01
   1   12   24     2     7    6.9431E+04 -3.2570E+03   7.2688E+04  0.000E+00  0.000E+00  0.000E+00  3.87681E+01  1.431E-01  2.000E+01  2.000E+04 -1.628E-01
   1   13   23     2     8    7.2688E+04 -6.1504E+02   7.3303E+04  0.000E+00  0.000E+00  0.000E+00  3.85204E+01  1.454E-01  2.000E+01  2.000E+04 -3.075E-02
   1   14   22     2     9    7.3303E+04  1.4573E+03   7.1846E+04  0.000E+00  0.000E+00  0.000E+00  3.82699E+01  1.449E-01  2.000E+01  2.000E+04  7.287E-02
   1   14   22     3     1    2.2765E+05 -8.8511E+03   2.3650E+05  0.000E+00  0.000E+00  0.000E+00  3.77545E+01  1.989E-01  2.000E+01  2.000E+04 -4.426E-01
   1   15   23     3     2    2.3650E+05 -7.5148E+02   2.3725E+05  0.000E+00  0.000E+00  0.000E+00  3.68680E+01  2.014E-01  2.000E+01  2.000E+04 -3.757E-02
   1   15   24     3     3    2.3725E+05 -5.9406E+02   2.3784E+05  0.000E+00  0.000E+00  0.000E+00  3.59795E+01  2.017E-01  2.000E+01  2.000E+04 -2.970E-02
   1   15   25     3     4    2.3784E+05 -6.3089E+02   2.3847E+05  0.000E+00  0.000E+00  0.000E+00  3.50909E+01  2.020E-01  2.000E+01  2.000E+04 -3.154E-02
   1   15   26     3     5    2.3847E+05 -7.5260E+02   2.3923E+05  0.000E+00  0.000E+00  0.000E+00  3.42024E+01  2.024E-01  2.000E+01  2.000E+04 -3.763E-02
   1   16   27     3     6    2.3923E+05 -8.6009E+02   2.4009E+05  0.000E+00  0.000E+00  0.000E+00  3.33139E+01  2.028E-01  2.000E+01  2.000E+04 -4.300E-02
   1   17   28     3     7    2.4009E+05 -3.0635E+03   2.4315E+05  0.000E+00  0.000E+00  0.000E+00  3.24260E+01  2.038E-01  2.000E+01  2.000E+04 -1.532E-01
   1   18   29     3     8    2.4315E+05 -4.5934E+03   2.4774E+05  0.000E+00  0.000E+00  0.000E+00  3.15391E+01  2.057E-01  2.000E+01  2.000E+04 -2.297E-01
   1   18   30     3     9    2.4774E+05 -4.4158E+03   2.5216E+05  0.000E+00  0.000E+00  0.000E+00  3.06524E+01  2.080E-01  2.000E+01  2.000E+04 -2.208E-01



1
              HEAD IN LAYER   1 AT END OF TIME STEP   1 IN STRESS PERIOD    2
  ---------------------------------------------------------------------------

          1      2      3      4      5      6      7      8      9     10
         11     12     13     14     15     16     17     18     19     20
         21     22     23     24     25     26     27     28     29     30
 .........................................................................
   1  ****** ****** ****** ****** ****** ****** ****** ****** ****** ******
      ****** ****** ****** ****** ****** ****** ****** ****** ****** ******
      ****** ****** ****** ****** ****** ****** ****** ****** ****** ******
   2  ****** ****** ****** ****** ****** ****** ****** ****** ****** ******
      ****** ****** ****** ****** ****** ****** ****** ****** ****** ******
      ****** ****** ****** ****** ****** ****** ****** ****** ****** ******
   3  ****** ****** ****** ****** ****** ****** ****** ****** ****** ******
      ****** ****** ****** ****** ****** ****** ****** ****** ****** ******
      ****** ****** ****** ****** ****** ****** ****** ****** ****** ******
   4  ****** ****** ****** ****** ****** ****** ****** ****** ****** ******
      ****** ****** ****** ****** ****** ****** ****** ****** ****** ******
      ****** ****** ****** ****** ****** ****** ****** ****** ****** ******
   5  ****** ****** ****** ****** ****** ****** ****** ****** ****** ******
      ****** ****** ****** ****** ****** ****** ****** ****** ****** ******
      ****** ****** ****** ****** ****** ****** ****** ****** ****** ******
   6  ****** ****** ****** ****** ****** ****** ****** ****** ****** ******
      ****** ****** ****** ****** ****** ****** ****** ****** ****** ******
      ****** ****** ****** ****** ****** ****** ****** ****** ****** ******
   7  ****** ****** ****** ****** ****** ****** ****** ****** ****** ******
      ****** ****** ****** ****** ****** ****** ****** ****** ****** ******
      ****** ****** ****** ****** ****** ****** ****** ****** ****** ******
   8  ****** ****** ****** ****** ****** ****** ****** ****** ****** ******
      ****** ****** ****** ****** ****** ****** ****** ****** ****** ******
      ****** ****** ****** ****** ****** ****** ****** ****** ****** ******
   9  ****** ****** ****** ****** ****** ****** ****** ****** ****** ******
      ****** ****** ****** ****** ****** ****** ****** ****** ****** ******
      ****** ****** ****** ****** ****** ****** ****** ****** ****** ******
  10  ****** ****** ****** ****** ****** ****** ****** ****** ****** ******
      ****** ****** ****** ****** ****** ****** ****** ****** ****** ******
      ****** ****** ****** ****** ****** ****** ****** ****** ****** ******
  11  ****** ****** ****** ****** ****** ****** ****** ****** ****** ******
      ****** ****** ****** ****** ****** ****** ****** ****** ****** ******
      ****** ****** ****** ****** ****** ****** ****** ****** ****** ******
  12  ****** ****** ****** ****** ****** ****** ****** ****** ****** ******
      ****** ****** ****** ****** ****** ****** ****** ****** ****** ******
      ****** ****** ****** ****** ****** ****** ****** ****** ****** ******
  13  ****** ****** ****** ****** ****** ****** ****** ****** ****** ******
      ****** ****** ****** ****** ****** ****** ****** ****** ****** ******
      ****** ****** ****** ****** ****** ****** ****** ****** ****** ******
  14  ****** ****** ****** ****** ****** ****** ****** ****** ****** ******
      ****** ****** ****** ****** ****** ****** ****** ****** ****** ******
      ****** ****** ****** ****** ****** ****** ****** ****** ****** ******
  15  ****** ****** ****** ****** ****** ****** ****** ****** ****** ******
      ****** ****** ****** ****** ****** ****** ****** ****** ****** ******
      ****** ****** ****** ****** ****** ****** ****** ****** ****** ******
  16  ****** ****** ****** ****** ****** ****** ****** ****** ****** ******
      ****** ****** ****** ****** ****** ****** ****** ****** ****** ******
      ****** ****** ****** ****** ****** ****** ****** ****** ****** ******
  17  ****** ****** ****** ****** ****** ****** ****** ****** ****** ******
      ****** ****** ****** ****** ****** ****** ****** ****** ****** ******
      ****** ****** ****** ****** ****** ****** ****** ****** ****** ******
  18  ****** ****** ****** ****** ****** ****** ****** ****** ****** ******
      ****** ****** ****** ****** ****** ****** ****** ****** ****** ******
      ****** ****** ****** ****** ****** ****** ****** ****** ****** ******
  19  ****** ****** ****** ****** ****** ****** ****** ****** ****** ******
      ****** ****** ****** ****** ****** ****** ****** ****** ****** ******
      ****** ****** ****** ****** ****** ****** ****** ****** ****** ******
  20  ****** ****** ****** ****** ****** ****** ****** ****** ****** ******
      ****** ****** ****** ****** ****** ****** ****** ****** ****** ******
      ****** ****** ****** ****** ****** ****** ****** ****** ****** ******
  21  ****** ****** ****** ****** ****** ****** ****** ****** ****** ******
      ****** ****** ****** ****** ****** ****** ****** ****** ****** ******
      ****** ****** ****** ****** ****** ****** ****** ****** ****** ******
  22  ****** ****** ****** ****** ****** ****** ****** ****** ****** ******
      ****** ****** ****** ****** ****** ****** ****** ****** ****** ******
      ****** ****** ****** ****** ****** ****** ****** ****** ****** ******
  23  ****** ****** ****** ****** ****** ****** ****** ****** ****** ******
      ****** ****** ****** ****** ****** ****** ****** ****** ****** ******
      ****** ****** ****** ****** ****** ****** ****** ****** ****** ******
  24  ****** ****** ****** ****** ****** ****** ****** ****** ****** ******
      ****** ****** ****** ****** ****** ****** ****** ****** ****** ******
      ****** ****** ****** ****** ****** ****** ****** ****** ****** ******
  25  ****** ****** ****** ****** ****** ****** ****** ****** ****** ******
      ****** ****** ****** ****** ****** ****** ****** ****** ****** ******
      ****** ****** ****** ****** ****** ****** ****** ****** ****** ******

 HEAD WILL BE SAVED ON UNIT   51 AT END OF TIME STEP    1, STRESS PERIOD    2
1
  VOLUMETRIC BUDGET FOR ENTIRE MODEL AT END OF TIME STEP    1, STRESS PERIOD   2
  ------------------------------------------------------------------------------

     CUMULATIVE VOLUMES      L**3       RATES FOR THIS TIME STEP      L**3/T
     ------------------                 ------------------------

           IN:                                      IN:
           ---                                      ---
             STORAGE =    23838035.5088               STORAGE =       59541.3067
       CONSTANT HEAD =     2959846.8464         CONSTANT HEAD =       18878.7611
               WELLS =           0.0000                 WELLS =           0.0000
            RECHARGE =     6292800.0000              RECHARGE =       55200.0000
      STREAM LEAKAGE =      941969.9360        STREAM LEAKAGE =        6097.9489

            TOTAL IN =    34032652.2912              TOTAL IN =      139718.0167

          OUT:                                     OUT:
          ----                                     ----
             STORAGE =           0.0000               STORAGE =           0.0000
       CONSTANT HEAD =           0.0000         CONSTANT HEAD =           0.0000
               WELLS =     5757322.6554                 WELLS =       31460.7795
            RECHARGE =           0.0000              RECHARGE =           0.0000
      STREAM LEAKAGE =    28275330.8810        STREAM LEAKAGE =      108257.2477

           TOTAL OUT =    34032653.5363             TOTAL OUT =      139718.0273

            IN - OUT =          -1.2451              IN - OUT =      -1.0564E-02

 PERCENT DISCREPANCY =          -0.00     PERCENT DISCREPANCY =          -0.00






         TIME SUMMARY AT END OF TIME STEP    1 IN STRESS PERIOD    2
                    SECONDS     MINUTES      HOURS       DAYS        YEARS
                    -----------------------------------------------------------
   TIME STEP LENGTH 7.86240E+06 1.31040E+05  2184.0      91.000     0.24914    
 STRESS PERIOD TIME 7.86240E+06 1.31040E+05  2184.0      91.000     0.24914    
         TOTAL TIME 1.58112E+07 2.63520E+05  4392.0      183.00     0.50103    
1
1
                            STRESS PERIOD NO.    3, LENGTH =   91.00000    
                            -----------------------------------------------

                              NUMBER OF TIME STEPS =     1

                               MULTIPLIER FOR DELT =     1.500

                            INITIAL TIME STEP SIZE =   91.00000    

 WELL NO.  LAYER   ROW   COL   STRESS RATE         
 --------------------------------------------------
      1      1     20     21      -6420.    
      2      1     18     16     -0.1266E+05
      3      1     20     18      -5517.    
      4      1      4      9      -6868.    

      4 WELLS

                 RECHARGE =   0.00000    

 REUSING STREAM SEGMENT DATA FROM LAST STRESS PERIOD
 
 SOLVING FOR HEAD 


     7 CALLS TO PCG ROUTINE FOR TIME STEP   1 IN STRESS PERIOD    3
    27 TOTAL ITERATIONS

 OUTPUT CONTROL FOR STRESS PERIOD    3   TIME STEP    1
    SAVE BUDGET
    SAVE HEAD FOR ALL LAYERS
    PRINT HEAD FOR ALL LAYERS
 UBDSV2 SAVING "STREAMFLOW OUT  " ON UNIT  50 AT TIME STEP  1, STRESS PERIOD   3



 STREAM LISTING     PERIOD      3   STEP        1

 LAYER ROW COL. STREAM  RCH.  FLOW INTO     FLOW TO   FLOW OUT OF   OVRLND.     DIRECT     STREAM       STREAM     STREAM     STREAM   STREAMBED  STREAMBED
                SEG.NO.  NO.  STRM. RCH.    AQUIFER    STRM. RCH.    RUNOFF     PRECIP       ET          HEAD       DEPTH      WIDTH   CONDCTNC.   GRADIENT

   1   13    1     1     1    1.0000E+05 -2.5065E+03   1.0251E+05  0.000E+00  0.000E+00  0.000E+00  4.84071E+01  1.457E-01  2.000E+01  2.000E+04 -1.253E-01
   1   13    2     1     2    1.0251E+05 -3.6021E+03   1.0611E+05  0.000E+00  0.000E+00  0.000E+00  4.79324E+01  1.484E-01  2.000E+01  2.000E+04 -1.801E-01
   1   14    3     1     3    1.0611E+05 -6.3094E+02   1.0674E+05  0.000E+00  0.000E+00  0.000E+00  4.74570E+01  1.502E-01  2.000E+01  2.000E+04 -3.155E-02
   1   15    4     1     4    1.0674E+05 -6.1287E+02   1.0735E+05  0.000E+00  0.000E+00  0.000E+00  4.69802E+01  1.507E-01  2.000E+01  2.000E+04 -3.064E-02
   1   16    5     1     5    1.0735E+05 -2.2678E+03   1.0962E+05  0.000E+00  0.000E+00  0.000E+00  4.65042E+01  1.519E-01  2.000E+01  2.000E+04 -1.134E-01
   1   16    6     1     6    1.0962E+05 -1.3538E+03   1.1097E+05  0.000E+00  0.000E+00  0.000E+00  4.60284E+01  1.534E-01  2.000E+01  2.000E+04 -6.769E-02
   1   16    7     1     7    1.1097E+05 -1.2785E+03   1.1225E+05  0.000E+00  0.000E+00  0.000E+00  4.55522E+01  1.545E-01  2.000E+01  2.000E+04 -6.392E-02
   1   16    8     1     8    1.1225E+05 -1.2063E+03   1.1346E+05  0.000E+00  0.000E+00  0.000E+00  4.50760E+01  1.555E-01  2.000E+01  2.000E+04 -6.032E-02
   1   16    9     1     9    1.1346E+05 -1.1000E+03   1.1456E+05  0.000E+00  0.000E+00  0.000E+00  4.45997E+01  1.565E-01  2.000E+01  2.000E+04 -5.500E-02
   1   16   10     1    10    1.1456E+05 -9.3877E+02   1.1550E+05  0.000E+00  0.000E+00  0.000E+00  4.41232E+01  1.573E-01  2.000E+01  2.000E+04 -4.694E-02
   1   16   11     1    11    1.1550E+05 -6.9743E+02   1.1620E+05  0.000E+00  0.000E+00  0.000E+00  4.36466E+01  1.580E-01  2.000E+01  2.000E+04 -3.487E-02
   1   16   12     1    12    1.1620E+05 -5.4208E+02   1.1674E+05  0.000E+00  0.000E+00  0.000E+00  4.31699E+01  1.585E-01  2.000E+01  2.000E+04 -2.710E-02
   1   15   13     1    13    1.1674E+05 -6.0300E+02   1.1734E+05  0.000E+00  0.000E+00  0.000E+00  4.26931E+01  1.590E-01  2.000E+01  2.000E+04 -3.015E-02
   1   14   14     1    14    1.1734E+05 -1.1506E+03   1.1849E+05  0.000E+00  0.000E+00  0.000E+00  4.22165E+01  1.597E-01  2.000E+01  2.000E+04 -5.753E-02
   1   13   15     1    15    1.1849E+05 -1.9085E+03   1.2040E+05  0.000E+00  0.000E+00  0.000E+00  4.17405E+01  1.609E-01  2.000E+01  2.000E+04 -9.543E-02
   1   12   16     1    16    1.2040E+05 -3.3390E+03   1.2374E+05  0.000E+00  0.000E+00  0.000E+00  4.12653E+01  1.630E-01  2.000E+01  2.000E+04 -1.670E-01
   1   12   17     1    17    1.2374E+05 -1.9110E+03   1.2565E+05  0.000E+00  0.000E+00  0.000E+00  4.07901E+01  1.651E-01  2.000E+01  2.000E+04 -9.555E-02
   1   12   18     1    18    1.2565E+05 -1.8162E+03   1.2747E+05  0.000E+00  0.000E+00  0.000E+00  4.03143E+01  1.666E-01  2.000E+01  2.000E+04 -9.081E-02
   1   12   19     1    19    1.2747E+05 -2.6514E+03   1.3012E+05  0.000E+00  0.000E+00  0.000E+00  3.98388E+01  1.684E-01  2.000E+01  2.000E+04 -1.326E-01
   1   13   20     1    20    1.3012E+05 -1.2494E+03   1.3137E+05  0.000E+00  0.000E+00  0.000E+00  3.93631E+01  1.699E-01  2.000E+01  2.000E+04 -6.247E-02
   1   14   21     1    21    1.3137E+05 -3.7126E+02   1.3174E+05  0.000E+00  0.000E+00  0.000E+00  3.88864E+01  1.705E-01  2.000E+01  2.000E+04 -1.856E-02
   1   14   22     1    22    1.3174E+05  5.0298E+03   1.2671E+05  0.000E+00  0.000E+00  0.000E+00  3.84073E+01  1.687E-01  2.000E+01  2.000E+04  2.515E-01
   1    9   30     2     1    5.0000E+04 -9.6320E+02   5.0963E+04  0.000E+00  0.000E+00  0.000E+00  4.02415E+01  1.165E-01  2.000E+01  2.000E+04 -4.816E-02
   1    9   29     2     2    5.0963E+04 -1.2758E+03   5.2239E+04  0.000E+00  0.000E+00  0.000E+00  3.99931E+01  1.181E-01  2.000E+01  2.000E+04 -6.379E-02
   1    9   28     2     3    5.2239E+04 -1.5699E+03   5.3809E+04  0.000E+00  0.000E+00  0.000E+00  3.97450E+01  1.200E-01  2.000E+01  2.000E+04 -7.850E-02
   1    9   27     2     4    5.3809E+04 -3.1549E+03   5.6964E+04  0.000E+00  0.000E+00  0.000E+00  3.94982E+01  1.232E-01  2.000E+01  2.000E+04 -1.577E-01
   1   10   26     2     5    5.6964E+04 -2.1662E+03   5.9130E+04  0.000E+00  0.000E+00  0.000E+00  3.92517E+01  1.267E-01  2.000E+01  2.000E+04 -1.083E-01
   1   11   25     2     6    5.9130E+04 -1.8878E+03   6.1018E+04  0.000E+00  0.000E+00  0.000E+00  3.90044E+01  1.294E-01  2.000E+01  2.000E+04 -9.439E-02
   1   12   24     2     7    6.1018E+04 -1.9129E+03   6.2931E+04  0.000E+00  0.000E+00  0.000E+00  3.87568E+01  1.318E-01  2.000E+01  2.000E+04 -9.564E-02
   1   13   23     2     8    6.2931E+04 -2.8021E+02   6.3211E+04  0.000E+00  0.000E+00  0.000E+00  3.85082E+01  1.332E-01  2.000E+01  2.000E+04 -1.401E-02
   1   14   22     2     9    6.3211E+04  2.0246E+03   6.1186E+04  0.000E+00  0.000E+00  0.000E+00  3.82571E+01  1.321E-01  2.000E+01  2.000E+04  1.012E-01
   1   14   22     3     1    1.8789E+05 -8.4539E+03   1.9635E+05  0.000E+00  0.000E+00  0.000E+00  3.77332E+01  1.776E-01  2.000E+01  2.000E+04 -4.227E-01
   1   15   23     3     2    1.9635E+05 -3.0081E+02   1.9665E+05  0.000E+00  0.000E+00  0.000E+00  3.68467E+01  1.800E-01  2.000E+01  2.000E+04 -1.504E-02
   1   15   24     3     3    1.9665E+05 -2.4872E+02   1.9690E+05  0.000E+00  0.000E+00  0.000E+00  3.59579E+01  1.802E-01  2.000E+01  2.000E+04 -1.244E-02
   1   15   25     3     4    1.9690E+05 -2.7557E+02   1.9717E+05  0.000E+00  0.000E+00  0.000E+00  3.50692E+01  1.803E-01  2.000E+01  2.000E+04 -1.378E-02
   1   15   26     3     5    1.9717E+05 -3.3953E+02   1.9751E+05  0.000E+00  0.000E+00  0.000E+00  3.41805E+01  1.805E-01  2.000E+01  2.000E+04 -1.698E-02
   1   16   27     3     6    1.9751E+05 -3.7706E+02   1.9789E+05  0.000E+00  0.000E+00  0.000E+00  3.32918E+01  1.807E-01  2.000E+01  2.000E+04 -1.885E-02
   1   17   28     3     7    1.9789E+05 -1.5788E+03   1.9947E+05  0.000E+00  0.000E+00  0.000E+00  3.24034E+01  1.812E-01  2.000E+01  2.000E+04 -7.894E-02
   1   18   29     3     8    1.9947E+05 -2.9107E+03   2.0238E+05  0.000E+00  0.000E+00  0.000E+00  3.15158E+01  1.824E-01  2.000E+01  2.000E+04 -1.455E-01
   1   18   30     3     9    2.0238E+05 -3.1806E+03   2.0556E+05  0.000E+00  0.000E+00  0.000E+00  3.06285E+01  1.841E-01  2.000E+01  2.000E+04 -1.590E-01



1
              HEAD IN LAYER   1 AT END OF TIME STEP   1 IN STRESS PERIOD    3
  ---------------------------------------------------------------------------

          1      2      3      4      5      6      7      8      9     10
         11     12     13     14     15     16     17     18     19     20
         21     22     23     24     25     26     27     28     29     30
 .........................................................................
   1  ****** ****** ****** ****** ****** ****** ****** ****** ****** ******
      ****** ****** ****** ****** ****** ****** ****** ****** ****** ******
      ****** ****** ****** ****** ****** ****** ****** ****** ****** ******
   2  ****** ****** ****** ****** ****** ****** ****** ****** ****** ******
      ****** ****** ****** ****** ****** ****** ****** ****** ****** ******
      ****** ****** ****** ****** ****** ****** ****** ****** ****** ******
   3  ****** ****** ****** ****** ****** ****** ****** ****** ****** ******
      ****** ****** ****** ****** ****** ****** ****** ****** ****** ******
      ****** ****** ****** ****** ****** ****** ****** ****** ****** ******
   4  ****** ****** ****** ****** ****** ****** ****** ****** ****** ******
      ****** ****** ****** ****** ****** ****** ****** ****** ****** ******
      ****** ****** ****** ****** ****** ****** ****** ****** ****** ******
   5  ****** ****** ****** ****** ****** ****** ****** ****** ****** ******
      ****** ****** ****** ****** ****** ****** ****** ****** ****** ******
      ****** ****** ****** ****** ****** ****** ****** ****** ****** ******
   6  ****** ****** ****** ****** ****** ****** ****** ****** ****** ******
      ****** ****** ****** ****** ****** ****** ****** ****** ****** ******
      ****** ****** ****** ****** ****** ****** ****** ****** ****** ******
   7  ****** ****** ****** ****** ****** ****** ****** ****** ****** ******
      ****** ****** ****** ****** ****** ****** ****** ****** ****** ******
      ****** ****** ****** ****** ****** ****** ****** ****** ****** ******
   8  ****** ****** ****** ****** ****** ****** ****** ****** ****** ******
      ****** ****** ****** ****** ****** ****** ****** ****** ****** ******
      ****** ****** ****** ****** ****** ****** ****** ****** ****** ******
   9  ****** ****** ****** ****** ****** ****** ****** ****** ****** ******
      ****** ****** ****** ****** ****** ****** ****** ****** ****** ******
      ****** ****** ****** ****** ****** ****** ****** ****** ****** ******
  10  ****** ****** ****** ****** ****** ****** ****** ****** ****** ******
      ****** ****** ****** ****** ****** ****** ****** ****** ****** ******
      ****** ****** ****** ****** ****** ****** ****** ****** ****** ******
  11  ****** ****** ****** ****** ****** ****** ****** ****** ****** ******
      ****** ****** ****** ****** ****** ****** ****** ****** ****** ******
      ****** ****** ****** ****** ****** ****** ****** ****** ****** ******
  12  ****** ****** ****** ****** ****** ****** ****** ****** ****** ******
      ****** ****** ****** ****** ****** ****** ****** ****** ****** ******
      ****** ****** ****** ****** ****** ****** ****** ****** ****** ******
  13  ****** ****** ****** ****** ****** ****** ****** ****** ****** ******
      ****** ****** ****** ****** ****** ****** ****** ****** ****** ******
      ****** ****** ****** ****** ****** ****** ****** ****** ****** ******
  14  ****** ****** ****** ****** ****** ****** ****** ****** ****** ******
      ****** ****** ****** ****** ****** ****** ****** ****** ****** ******
      ****** ****** ****** ****** ****** ****** ****** ****** ****** ******
  15  ****** ****** ****** ****** ****** ****** ****** ****** ****** ******
      ****** ****** ****** ****** ****** ****** ****** ****** ****** ******
      ****** ****** ****** ****** ****** ****** ****** ****** ****** ******
  16  ****** ****** ****** ****** ****** ****** ****** ****** ****** ******
      ****** ****** ****** ****** ****** ****** ****** ****** ****** ******
      ****** ****** ****** ****** ****** ****** ****** ****** ****** ******
  17  ****** ****** ****** ****** ****** ****** ****** ****** ****** ******
      ****** ****** ****** ****** ****** ****** ****** ****** ****** ******
      ****** ****** ****** ****** ****** ****** ****** ****** ****** ******
  18  ****** ****** ****** ****** ****** ****** ****** ****** ****** ******
      ****** ****** ****** ****** ****** ****** ****** ****** ****** ******
      ****** ****** ****** ****** ****** ****** ****** ****** ****** ******
  19  ****** ****** ****** ****** ****** ****** ****** ****** ****** ******
      ****** ****** ****** ****** ****** ****** ****** ****** ****** ******
      ****** ****** ****** ****** ****** ****** ****** ****** ****** ******
  20  ****** ****** ****** ****** ****** ****** ****** ****** ****** ******
      ****** ****** ****** ****** ****** ****** ****** ****** ****** ******
      ****** ****** ****** ****** ****** ****** ****** ****** ****** ******
  21  ****** ****** ****** ****** ****** ****** ****** ****** ****** ******
      ****** ****** ****** ****** ****** ****** ****** ****** ****** ******
      ****** ****** ****** ****** ****** ****** ****** ****** ****** ******
  22  ****** ****** ****** ****** ****** ****** ****** ****** ****** ******
      ****** ****** ****** ****** ****** ****** ****** ****** ****** ******
      ****** ****** ****** ****** ****** ****** ****** ****** ****** ******
  23  ****** ****** ****** ****** ****** ****** ****** ****** ****** ******
      ****** ****** ****** ****** ****** ****** ****** ****** ****** ******
      ****** ****** ****** ****** ****** ****** ****** ****** ****** ******
  24  ****** ****** ****** ****** ****** ****** ****** ****** ****** ******
      ****** ****** ****** ****** ****** ****** ****** ****** ****** ******
      ****** ****** ****** ****** ****** ****** ****** ****** ****** ******
  25  ****** ****** ****** ****** ****** ****** ****** ****** ****** ******
      ****** ****** ****** ****** ****** ****** ****** ****** ****** ******
      ****** ****** ****** ****** ****** ****** ****** ****** ****** ******

 HEAD WILL BE SAVED ON UNIT   51 AT END OF TIME STEP    1, STRESS PERIOD    3
1
  VOLUMETRIC BUDGET FOR ENTIRE MODEL AT END OF TIME STEP    1, STRESS PERIOD   3
  ------------------------------------------------------------------------------

     CUMULATIVE VOLUMES      L**3       RATES FOR THIS TIME STEP      L**3/T
     ------------------                 ------------------------

           IN:                                      IN:
           ---                                      ---
             STORAGE =    29204826.8795               STORAGE =       58975.7293
       CONSTANT HEAD =     5511932.1011         CONSTANT HEAD =       28044.8929
               WELLS =           0.0000                 WELLS =           0.0000
            RECHARGE =     6292800.0000              RECHARGE =           0.0000
      STREAM LEAKAGE =     1583916.2208        STREAM LEAKAGE =        7054.3548

            TOTAL IN =    42593475.2013              TOTAL IN =       94074.9770

          OUT:                                     OUT:
          ----                                     ----
             STORAGE =           0.0000               STORAGE =           0.0000
       CONSTANT HEAD =           0.0000         CONSTANT HEAD =           0.0000
               WELLS =     8620253.5933                 WELLS =       31460.7795
            RECHARGE =           0.0000              RECHARGE =           0.0000
      STREAM LEAKAGE =    33973223.5452        STREAM LEAKAGE =       62614.2051

           TOTAL OUT =    42593477.1385             TOTAL OUT =       94074.9846

            IN - OUT =          -1.9372              IN - OUT =      -7.6052E-03

 PERCENT DISCREPANCY =          -0.00     PERCENT DISCREPANCY =          -0.00






         TIME SUMMARY AT END OF TIME STEP    1 IN STRESS PERIOD    3
                    SECONDS     MINUTES      HOURS       DAYS        YEARS
                    -----------------------------------------------------------
   TIME STEP LENGTH 7.86240E+06 1.31040E+05  2184.0      91.000     0.24914    
 STRESS PERIOD TIME 7.86240E+06 1.31040E+05  2184.0      91.000     0.24914    
         TOTAL TIME 2.36736E+07 3.94560E+05  6576.0      274.00     0.75017    
1
1
                            STRESS PERIOD NO.    4, LENGTH =   91.00000    
                            -----------------------------------------------

                              NUMBER OF TIME STEPS =     1

                               MULTIPLIER FOR DELT =     1.500

                            INITIAL TIME STEP SIZE =   91.00000    

 WELL NO.  LAYER   ROW   COL   STRESS RATE         
 --------------------------------------------------
      1      1     20     21      -6420.    
      2      1     18     16     -0.1266E+05
      3      1     20     18      -5517.    
      4      1      4      9      -6868.    

      4 WELLS

                 RECHARGE =  1.000000E-03

 REUSING STREAM SEGMENT DATA FROM LAST STRESS PERIOD
 
 SOLVING FOR HEAD 


     6 CALLS TO PCG ROUTINE FOR TIME STEP   1 IN STRESS PERIOD    4
    23 TOTAL ITERATIONS

 OUTPUT CONTROL FOR STRESS PERIOD    4   TIME STEP    1
    SAVE BUDGET
    SAVE HEAD FOR ALL LAYERS
    PRINT HEAD FOR ALL LAYERS
 UBDSV2 SAVING "STREAMFLOW OUT  " ON UNIT  50 AT TIME STEP  1, STRESS PERIOD   4



 STREAM LISTING     PERIOD      4   STEP        1

 LAYER ROW COL. STREAM  RCH.  FLOW INTO     FLOW TO   FLOW OUT OF   OVRLND.     DIRECT     STREAM       STREAM     STREAM     STREAM   STREAMBED  STREAMBED
                SEG.NO.  NO.  STRM. RCH.    AQUIFER    STRM. RCH.    RUNOFF     PRECIP       ET          HEAD       DEPTH      WIDTH   CONDCTNC.   GRADIENT

   1   13    1     1     1    1.0000E+05 -2.2101E+03   1.0221E+05  0.000E+00  0.000E+00  0.000E+00  4.84070E+01  1.456E-01  2.000E+01  2.000E+04 -1.105E-01
   1   13    2     1     2    1.0221E+05 -3.2619E+03   1.0547E+05  0.000E+00  0.000E+00  0.000E+00  4.79321E+01  1.480E-01  2.000E+01  2.000E+04 -1.631E-01
   1   14    3     1     3    1.0547E+05 -5.9423E+02   1.0607E+05  0.000E+00  0.000E+00  0.000E+00  4.74564E+01  1.496E-01  2.000E+01  2.000E+04 -2.971E-02
   1   15    4     1     4    1.0607E+05 -5.6669E+02   1.0663E+05  0.000E+00  0.000E+00  0.000E+00  4.69796E+01  1.501E-01  2.000E+01  2.000E+04 -2.833E-02
   1   16    5     1     5    1.0663E+05 -1.9275E+03   1.0856E+05  0.000E+00  0.000E+00  0.000E+00  4.65034E+01  1.511E-01  2.000E+01  2.000E+04 -9.637E-02
   1   16    6     1     6    1.0856E+05 -1.1795E+03   1.0974E+05  0.000E+00  0.000E+00  0.000E+00  4.60275E+01  1.525E-01  2.000E+01  2.000E+04 -5.898E-02
   1   16    7     1     7    1.0974E+05 -1.1131E+03   1.1085E+05  0.000E+00  0.000E+00  0.000E+00  4.55511E+01  1.534E-01  2.000E+01  2.000E+04 -5.565E-02
   1   16    8     1     8    1.1085E+05 -1.0412E+03   1.1189E+05  0.000E+00  0.000E+00  0.000E+00  4.50748E+01  1.543E-01  2.000E+01  2.000E+04 -5.206E-02
   1   16    9     1     9    1.1189E+05 -9.3256E+02   1.1283E+05  0.000E+00  0.000E+00  0.000E+00  4.45983E+01  1.551E-01  2.000E+01  2.000E+04 -4.663E-02
   1   16   10     1    10    1.1283E+05 -7.6802E+02   1.1359E+05  0.000E+00  0.000E+00  0.000E+00  4.41217E+01  1.558E-01  2.000E+01  2.000E+04 -3.840E-02
   1   16   11     1    11    1.1359E+05 -5.1612E+02   1.1411E+05  0.000E+00  0.000E+00  0.000E+00  4.36450E+01  1.564E-01  2.000E+01  2.000E+04 -2.581E-02
   1   16   12     1    12    1.1411E+05 -1.6049E+02   1.1427E+05  0.000E+00  0.000E+00  0.000E+00  4.31680E+01  1.566E-01  2.000E+01  2.000E+04 -8.024E-03
   1   15   13     1    13    1.1427E+05 -2.5800E+02   1.1453E+05  0.000E+00  0.000E+00  0.000E+00  4.26909E+01  1.568E-01  2.000E+01  2.000E+04 -1.290E-02
   1   14   14     1    14    1.1453E+05 -7.9179E+02   1.1532E+05  0.000E+00  0.000E+00  0.000E+00  4.22141E+01  1.572E-01  2.000E+01  2.000E+04 -3.959E-02
   1   13   15     1    15    1.1532E+05 -1.5380E+03   1.1686E+05  0.000E+00  0.000E+00  0.000E+00  4.17377E+01  1.582E-01  2.000E+01  2.000E+04 -7.690E-02
   1   12   16     1    16    1.1686E+05 -2.8979E+03   1.1976E+05  0.000E+00  0.000E+00  0.000E+00  4.12623E+01  1.600E-01  2.000E+01  2.000E+04 -1.449E-01
   1   12   17     1    17    1.1976E+05 -1.6372E+03   1.2139E+05  0.000E+00  0.000E+00  0.000E+00  4.07868E+01  1.618E-01  2.000E+01  2.000E+04 -8.186E-02
   1   12   18     1    18    1.2139E+05 -1.5628E+03   1.2296E+05  0.000E+00  0.000E+00  0.000E+00  4.03109E+01  1.631E-01  2.000E+01  2.000E+04 -7.814E-02
   1   12   19     1    19    1.2296E+05 -2.3562E+03   1.2531E+05  0.000E+00  0.000E+00  0.000E+00  3.98351E+01  1.647E-01  2.000E+01  2.000E+04 -1.178E-01
   1   13   20     1    20    1.2531E+05 -1.0141E+03   1.2633E+05  0.000E+00  0.000E+00  0.000E+00  3.93592E+01  1.660E-01  2.000E+01  2.000E+04 -5.071E-02
   1   14   21     1    21    1.2633E+05 -1.9358E+01   1.2635E+05  0.000E+00  0.000E+00  0.000E+00  3.88823E+01  1.664E-01  2.000E+01  2.000E+04 -9.679E-04
   1   14   22     1    22    1.2635E+05  5.0820E+03   1.2126E+05  0.000E+00  0.000E+00  0.000E+00  3.84031E+01  1.644E-01  2.000E+01  2.000E+04  2.541E-01
   1    9   30     2     1    5.0000E+04 -8.8047E+02   5.0880E+04  0.000E+00  0.000E+00  0.000E+00  4.02415E+01  1.165E-01  2.000E+01  2.000E+04 -4.402E-02
   1    9   29     2     2    5.0880E+04 -1.1861E+03   5.2067E+04  0.000E+00  0.000E+00  0.000E+00  3.99929E+01  1.179E-01  2.000E+01  2.000E+04 -5.931E-02
   1    9   28     2     3    5.2067E+04 -1.4601E+03   5.3527E+04  0.000E+00  0.000E+00  0.000E+00  3.97447E+01  1.197E-01  2.000E+01  2.000E+04 -7.301E-02
   1    9   27     2     4    5.3527E+04 -2.8975E+03   5.6424E+04  0.000E+00  0.000E+00  0.000E+00  3.94977E+01  1.227E-01  2.000E+01  2.000E+04 -1.449E-01
   1   10   26     2     5    5.6424E+04 -2.0164E+03   5.8441E+04  0.000E+00  0.000E+00  0.000E+00  3.92509E+01  1.259E-01  2.000E+01  2.000E+04 -1.008E-01
   1   11   25     2     6    5.8441E+04 -1.7763E+03   6.0217E+04  0.000E+00  0.000E+00  0.000E+00  3.90034E+01  1.284E-01  2.000E+01  2.000E+04 -8.882E-02
   1   12   24     2     7    6.0217E+04 -1.8166E+03   6.2034E+04  0.000E+00  0.000E+00  0.000E+00  3.87557E+01  1.307E-01  2.000E+01  2.000E+04 -9.083E-02
   1   13   23     2     8    6.2034E+04 -3.0570E+02   6.2339E+04  0.000E+00  0.000E+00  0.000E+00  3.85071E+01  1.321E-01  2.000E+01  2.000E+04 -1.529E-02
   1   14   22     2     9    6.2339E+04  2.1386E+03   6.0201E+04  0.000E+00  0.000E+00  0.000E+00  3.82559E+01  1.309E-01  2.000E+01  2.000E+04  1.069E-01
   1   14   22     3     1    1.8147E+05 -8.3883E+03   1.8985E+05  0.000E+00  0.000E+00  0.000E+00  3.77295E+01  1.740E-01  2.000E+01  2.000E+04 -4.194E-01
   1   15   23     3     2    1.8985E+05 -2.4781E+02   1.9010E+05  0.000E+00  0.000E+00  0.000E+00  3.68431E+01  1.764E-01  2.000E+01  2.000E+04 -1.239E-02
   1   15   24     3     3    1.9010E+05 -2.3452E+02   1.9034E+05  0.000E+00  0.000E+00  0.000E+00  3.59543E+01  1.765E-01  2.000E+01  2.000E+04 -1.173E-02
   1   15   25     3     4    1.9034E+05 -2.6424E+02   1.9060E+05  0.000E+00  0.000E+00  0.000E+00  3.50656E+01  1.767E-01  2.000E+01  2.000E+04 -1.321E-02
   1   15   26     3     5    1.9060E+05 -3.4228E+02   1.9094E+05  0.000E+00  0.000E+00  0.000E+00  3.41769E+01  1.769E-01  2.000E+01  2.000E+04 -1.711E-02
   1   16   27     3     6    1.9094E+05 -3.6555E+02   1.9131E+05  0.000E+00  0.000E+00  0.000E+00  3.32882E+01  1.770E-01  2.000E+01  2.000E+04 -1.828E-02
   1   17   28     3     7    1.9131E+05 -1.4698E+03   1.9278E+05  0.000E+00  0.000E+00  0.000E+00  3.23998E+01  1.776E-01  2.000E+01  2.000E+04 -7.349E-02
   1   18   29     3     8    1.9278E+05 -2.5923E+03   1.9537E+05  0.000E+00  0.000E+00  0.000E+00  3.15120E+01  1.787E-01  2.000E+01  2.000E+04 -1.296E-01
   1   18   30     3     9    1.9537E+05 -3.0121E+03   1.9838E+05  0.000E+00  0.000E+00  0.000E+00  3.06247E+01  1.802E-01  2.000E+01  2.000E+04 -1.506E-01



1
              HEAD IN LAYER   1 AT END OF TIME STEP   1 IN STRESS PERIOD    4
  ---------------------------------------------------------------------------

          1      2      3      4      5      6      7      8      9     10
         11     12     13     14     15     16     17     18     19     20
         21     22     23     24     25     26     27     28     29     30
 .........................................................................
   1  ****** ****** ****** ****** ****** ****** ****** ****** ****** ******
      ****** ****** ****** ****** ****** ****** ****** ****** ****** ******
      ****** ****** ****** ****** ****** ****** ****** ****** ****** ******
   2  ****** ****** ****** ****** ****** ****** ****** ****** ****** ******
      ****** ****** ****** ****** ****** ****** ****** ****** ****** ******
      ****** ****** ****** ****** ****** ****** ****** ****** ****** ******
   3  ****** ****** ****** ****** ****** ****** ****** ****** ****** ******
      ****** ****** ****** ****** ****** ****** ****** ****** ****** ******
      ****** ****** ****** ****** ****** ****** ****** ****** ****** ******
   4  ****** ****** ****** ****** ****** ****** ****** ****** ****** ******
      ****** ****** ****** ****** ****** ****** ****** ****** ****** ******
      ****** ****** ****** ****** ****** ****** ****** ****** ****** ******
   5  ****** ****** ****** ****** ****** ****** ****** ****** ****** ******
      ****** ****** ****** ****** ****** ****** ****** ****** ****** ******
      ****** ****** ****** ****** ****** ****** ****** ****** ****** ******
   6  ****** ****** ****** ****** ****** ****** ****** ****** ****** ******
      ****** ****** ****** ****** ****** ****** ****** ****** ****** ******
      ****** ****** ****** ****** ****** ****** ****** ****** ****** ******
   7  ****** ****** ****** ****** ****** ****** ****** ****** ****** ******
      ****** ****** ****** ****** ****** ****** ****** ****** ****** ******
      ****** ****** ****** ****** ****** ****** ****** ****** ****** ******
   8  ****** ****** ****** ****** ****** ****** ****** ****** ****** ******
      ****** ****** ****** ****** ****** ****** ****** ****** ****** ******
      ****** ****** ****** ****** ****** ****** ****** ****** ****** ******
   9  ****** ****** ****** ****** ****** ****** ****** ****** ****** ******
      ****** ****** ****** ****** ****** ****** ****** ****** ****** ******
      ****** ****** ****** ****** ****** ****** ****** ****** ****** ******
  10  ****** ****** ****** ****** ****** ****** ****** ****** ****** ******
      ****** ****** ****** ****** ****** ****** ****** ****** ****** ******
      ****** ****** ****** ****** ****** ****** ****** ****** ****** ******
  11  ****** ****** ****** ****** ****** ****** ****** ****** ****** ******
      ****** ****** ****** ****** ****** ****** ****** ****** ****** ******
      ****** ****** ****** ****** ****** ****** ****** ****** ****** ******
  12  ****** ****** ****** ****** ****** ****** ****** ****** ****** ******
      ****** ****** ****** ****** ****** ****** ****** ****** ****** ******
      ****** ****** ****** ****** ****** ****** ****** ****** ****** ******
  13  ****** ****** ****** ****** ****** ****** ****** ****** ****** ******
      ****** ****** ****** ****** ****** ****** ****** ****** ****** ******
      ****** ****** ****** ****** ****** ****** ****** ****** ****** ******
  14  ****** ****** ****** ****** ****** ****** ****** ****** ****** ******
      ****** ****** ****** ****** ****** ****** ****** ****** ****** ******
      ****** ****** ****** ****** ****** ****** ****** ****** ****** ******
  15  ****** ****** ****** ****** ****** ****** ****** ****** ****** ******
      ****** ****** ****** ****** ****** ****** ****** ****** ****** ******
      ****** ****** ****** ****** ****** ****** ****** ****** ****** ******
  16  ****** ****** ****** ****** ****** ****** ****** ****** ****** ******
      ****** ****** ****** ****** ****** ****** ****** ****** ****** ******
      ****** ****** ****** ****** ****** ****** ****** ****** ****** ******
  17  ****** ****** ****** ****** ****** ****** ****** ****** ****** ******
      ****** ****** ****** ****** ****** ****** ****** ****** ****** ******
      ****** ****** ****** ****** ****** ****** ****** ****** ****** ******
  18  ****** ****** ****** ****** ****** ****** ****** ****** ****** ******
      ****** ****** ****** ****** ****** ****** ****** ****** ****** ******
      ****** ****** ****** ****** ****** ****** ****** ****** ****** ******
  19  ****** ****** ****** ****** ****** ****** ****** ****** ****** ******
      ****** ****** ****** ****** ****** ****** ****** ****** ****** ******
      ****** ****** ****** ****** ****** ****** ****** ****** ****** ******
  20  ****** ****** ****** ****** ****** ****** ****** ****** ****** ******
      ****** ****** ****** ****** ****** ****** ****** ****** ****** ******
      ****** ****** ****** ****** ****** ****** ****** ****** ****** ******
  21  ****** ****** ****** ****** ****** ****** ****** ****** ****** ******
      ****** ****** ****** ****** ****** ****** ****** ****** ****** ******
      ****** ****** ****** ****** ****** ****** ****** ****** ****** ******
  22  ****** ****** ****** ****** ****** ****** ****** ****** ****** ******
      ****** ****** ****** ****** ****** ****** ****** ****** ****** ******
      ****** ****** ****** ****** ****** ****** ****** ****** ****** ******
  23  ****** ****** ****** ****** ****** ****** ****** ****** ****** ******
      ****** ****** ****** ****** ****** ****** ****** ****** ****** ******
      ****** ****** ****** ****** ****** ****** ****** ****** ****** ******
  24  ****** ****** ****** ****** ****** ****** ****** ****** ****** ******
      ****** ****** ****** ****** ****** ****** ****** ****** ****** ******
      ****** ****** ****** ****** ****** ****** ****** ****** ****** ******
  25  ****** ****** ****** ****** ****** ****** ****** ****** ****** ******
      ****** ****** ****** ****** ****** ****** ****** ****** ****** ******
      ****** ****** ****** ****** ****** ****** ****** ****** ****** ******

 HEAD WILL BE SAVED ON UNIT   51 AT END OF TIME STEP    1, STRESS PERIOD    4
1
  VOLUMETRIC BUDGET FOR ENTIRE MODEL AT END OF TIME STEP    1, STRESS PERIOD   4
  ------------------------------------------------------------------------------

     CUMULATIVE VOLUMES      L**3       RATES FOR THIS TIME STEP      L**3/T
     ------------------                 ------------------------

           IN:                                      IN:
           ---                                      ---
             STORAGE =    31133949.1733               STORAGE =       21199.1461
       CONSTANT HEAD =     8338128.5375         CONSTANT HEAD =       31057.1037
               WELLS =           0.0000                 WELLS =           0.0000
            RECHARGE =     8804400.0000              RECHARGE =       27600.0000
      STREAM LEAKAGE =     2240994.3414        STREAM LEAKAGE =        7220.6387

            TOTAL IN =    50517472.0521              TOTAL IN =       87076.8885

          OUT:                                     OUT:
          ----                                     ----
             STORAGE =        1194.2213               STORAGE =          13.1233
       CONSTANT HEAD =           0.0000         CONSTANT HEAD =           0.0000
               WELLS =    11483184.5312                 WELLS =       31460.7795
            RECHARGE =           0.0000              RECHARGE =           0.0000
      STREAM LEAKAGE =    39033095.3271        STREAM LEAKAGE =       55602.9866

           TOTAL OUT =    50517474.0796             TOTAL OUT =       87076.8895

            IN - OUT =          -2.0275              IN - OUT =      -9.9274E-04

 PERCENT DISCREPANCY =          -0.00     PERCENT DISCREPANCY =          -0.00






         TIME SUMMARY AT END OF TIME STEP    1 IN STRESS PERIOD    4
                    SECONDS     MINUTES      HOURS       DAYS        YEARS
                    -----------------------------------------------------------
   TIME STEP LENGTH 7.86240E+06 1.31040E+05  2184.0      91.000     0.24914    
 STRESS PERIOD TIME 7.86240E+06 1.31040E+05  2184.0      91.000     0.24914    
         TOTAL TIME 3.15360E+07 5.25600E+05  8760.0      365.00     0.99932    
1
1
                            STRESS PERIOD NO.    5, LENGTH =   92.00000    
                            -----------------------------------------------

                              NUMBER OF TIME STEPS =     1

                               MULTIPLIER FOR DELT =     1.500

                            INITIAL TIME STEP SIZE =   92.00000    

 WELL NO.  LAYER   ROW   COL   STRESS RATE         
 --------------------------------------------------
      1      1     20     21      -6420.    
      2      1     18     16     -0.1266E+05
      3      1     20     18      -5517.    
      4      1      4      9      -6868.    

      4 WELLS

                 RECHARGE =  5.000000E-04

 REUSING STREAM SEGMENT DATA FROM LAST STRESS PERIOD
 
 SOLVING FOR HEAD 


     7 CALLS TO PCG ROUTINE FOR TIME STEP   1 IN STRESS PERIOD    5
    26 TOTAL ITERATIONS

 OUTPUT CONTROL FOR STRESS PERIOD    5   TIME STEP    1
    SAVE BUDGET
    SAVE HEAD FOR ALL LAYERS
    PRINT HEAD FOR ALL LAYERS
 UBDSV2 SAVING "STREAMFLOW OUT  " ON UNIT  50 AT TIME STEP  1, STRESS PERIOD   5



 STREAM LISTING     PERIOD      5   STEP        1

 LAYER ROW COL. STREAM  RCH.  FLOW INTO     FLOW TO   FLOW OUT OF   OVRLND.     DIRECT     STREAM       STREAM     STREAM     STREAM   STREAMBED  STREAMBED
                SEG.NO.  NO.  STRM. RCH.    AQUIFER    STRM. RCH.    RUNOFF     PRECIP       ET          HEAD       DEPTH      WIDTH   CONDCTNC.   GRADIENT

   1   13    1     1     1    1.0000E+05 -1.7511E+03   1.0175E+05  0.000E+00  0.000E+00  0.000E+00  4.84068E+01  1.454E-01  2.000E+01  2.000E+04 -8.756E-02
   1   13    2     1     2    1.0175E+05 -2.7439E+03   1.0450E+05  0.000E+00  0.000E+00  0.000E+00  4.79314E+01  1.473E-01  2.000E+01  2.000E+04 -1.372E-01
   1   14    3     1     3    1.0450E+05 -4.6545E+02   1.0496E+05  0.000E+00  0.000E+00  0.000E+00  4.74555E+01  1.487E-01  2.000E+01  2.000E+04 -2.327E-02
   1   15    4     1     4    1.0496E+05 -4.3184E+02   1.0539E+05  0.000E+00  0.000E+00  0.000E+00  4.69786E+01  1.491E-01  2.000E+01  2.000E+04 -2.159E-02
   1   16    5     1     5    1.0539E+05 -1.4722E+03   1.0686E+05  0.000E+00  0.000E+00  0.000E+00  4.65022E+01  1.499E-01  2.000E+01  2.000E+04 -7.361E-02
   1   16    6     1     6    1.0686E+05 -9.1121E+02   1.0778E+05  0.000E+00  0.000E+00  0.000E+00  4.60259E+01  1.509E-01  2.000E+01  2.000E+04 -4.556E-02
   1   16    7     1     7    1.0778E+05 -8.5417E+02   1.0863E+05  0.000E+00  0.000E+00  0.000E+00  4.55494E+01  1.517E-01  2.000E+01  2.000E+04 -4.271E-02
   1   16    8     1     8    1.0863E+05 -7.8428E+02   1.0941E+05  0.000E+00  0.000E+00  0.000E+00  4.50728E+01  1.523E-01  2.000E+01  2.000E+04 -3.921E-02
   1   16    9     1     9    1.0941E+05 -6.7646E+02   1.1009E+05  0.000E+00  0.000E+00  0.000E+00  4.45961E+01  1.530E-01  2.000E+01  2.000E+04 -3.382E-02
   1   16   10     1    10    1.1009E+05 -5.1254E+02   1.1060E+05  0.000E+00  0.000E+00  0.000E+00  4.41194E+01  1.535E-01  2.000E+01  2.000E+04 -2.563E-02
   1   16   11     1    11    1.1060E+05 -2.5561E+02   1.1086E+05  0.000E+00  0.000E+00  0.000E+00  4.36424E+01  1.538E-01  2.000E+01  2.000E+04 -1.278E-02
   1   16   12     1    12    1.1086E+05  3.1390E+02   1.1054E+05  0.000E+00  0.000E+00  0.000E+00  4.31651E+01  1.538E-01  2.000E+01  2.000E+04  1.570E-02
   1   15   13     1    13    1.1054E+05  2.3127E+02   1.1031E+05  0.000E+00  0.000E+00  0.000E+00  4.26876E+01  1.535E-01  2.000E+01  2.000E+04  1.156E-02
   1   14   14     1    14    1.1031E+05 -2.7755E+02   1.1059E+05  0.000E+00  0.000E+00  0.000E+00  4.22104E+01  1.535E-01  2.000E+01  2.000E+04 -1.388E-02
   1   13   15     1    15    1.1059E+05 -1.0116E+03   1.1160E+05  0.000E+00  0.000E+00  0.000E+00  4.17336E+01  1.541E-01  2.000E+01  2.000E+04 -5.058E-02
   1   12   16     1    16    1.1160E+05 -2.3355E+03   1.1394E+05  0.000E+00  0.000E+00  0.000E+00  4.12577E+01  1.555E-01  2.000E+01  2.000E+04 -1.168E-01
   1   12   17     1    17    1.1394E+05 -1.2582E+03   1.1520E+05  0.000E+00  0.000E+00  0.000E+00  4.07819E+01  1.569E-01  2.000E+01  2.000E+04 -6.291E-02
   1   12   18     1    18    1.1520E+05 -1.2033E+03   1.1640E+05  0.000E+00  0.000E+00  0.000E+00  4.03057E+01  1.580E-01  2.000E+01  2.000E+04 -6.017E-02
   1   12   19     1    19    1.1640E+05 -1.9296E+03   1.1833E+05  0.000E+00  0.000E+00  0.000E+00  3.98297E+01  1.592E-01  2.000E+01  2.000E+04 -9.648E-02
   1   13   20     1    20    1.1833E+05 -6.2445E+02   1.1895E+05  0.000E+00  0.000E+00  0.000E+00  3.93535E+01  1.603E-01  2.000E+01  2.000E+04 -3.122E-02
   1   14   21     1    21    1.1895E+05  4.2218E+02   1.1853E+05  0.000E+00  0.000E+00  0.000E+00  3.88763E+01  1.604E-01  2.000E+01  2.000E+04  2.111E-02
   1   14   22     1    22    1.1853E+05  5.1684E+03   1.1336E+05  0.000E+00  0.000E+00  0.000E+00  3.83967E+01  1.581E-01  2.000E+01  2.000E+04  2.584E-01
   1    9   30     2     1    5.0000E+04 -6.5169E+02   5.0652E+04  0.000E+00  0.000E+00  0.000E+00  4.02413E+01  1.163E-01  2.000E+01  2.000E+04 -3.258E-02
   1    9   29     2     2    5.0652E+04 -9.5379E+02   5.1605E+04  0.000E+00  0.000E+00  0.000E+00  3.99924E+01  1.174E-01  2.000E+01  2.000E+04 -4.769E-02
   1    9   28     2     3    5.1605E+04 -1.2159E+03   5.2821E+04  0.000E+00  0.000E+00  0.000E+00  3.97439E+01  1.189E-01  2.000E+01  2.000E+04 -6.080E-02
   1    9   27     2     4    5.2821E+04 -2.5117E+03   5.5333E+04  0.000E+00  0.000E+00  0.000E+00  3.94964E+01  1.214E-01  2.000E+01  2.000E+04 -1.256E-01
   1   10   26     2     5    5.5333E+04 -1.6783E+03   5.7011E+04  0.000E+00  0.000E+00  0.000E+00  3.92492E+01  1.242E-01  2.000E+01  2.000E+04 -8.391E-02
   1   11   25     2     6    5.7011E+04 -1.4649E+03   5.8476E+04  0.000E+00  0.000E+00  0.000E+00  3.90013E+01  1.263E-01  2.000E+01  2.000E+04 -7.325E-02
   1   12   24     2     7    5.8476E+04 -1.5311E+03   6.0007E+04  0.000E+00  0.000E+00  0.000E+00  3.87533E+01  1.283E-01  2.000E+01  2.000E+04 -7.656E-02
   1   13   23     2     8    6.0007E+04 -2.3683E+02   6.0244E+04  0.000E+00  0.000E+00  0.000E+00  3.85044E+01  1.294E-01  2.000E+01  2.000E+04 -1.184E-02
   1   14   22     2     9    6.0244E+04  2.2958E+03   5.7949E+04  0.000E+00  0.000E+00  0.000E+00  3.82531E+01  1.281E-01  2.000E+01  2.000E+04  1.148E-01
   1   14   22     3     1    1.7131E+05 -8.2911E+03   1.7960E+05  0.000E+00  0.000E+00  0.000E+00  3.77237E+01  1.682E-01  2.000E+01  2.000E+04 -4.146E-01
   1   15   23     3     2    1.7960E+05 -1.3323E+02   1.7974E+05  0.000E+00  0.000E+00  0.000E+00  3.68373E+01  1.706E-01  2.000E+01  2.000E+04 -6.661E-03
   1   15   24     3     3    1.7974E+05 -1.5417E+02   1.7989E+05  0.000E+00  0.000E+00  0.000E+00  3.59485E+01  1.707E-01  2.000E+01  2.000E+04 -7.708E-03
   1   15   25     3     4    1.7989E+05 -1.8595E+02   1.8008E+05  0.000E+00  0.000E+00  0.000E+00  3.50597E+01  1.708E-01  2.000E+01  2.000E+04 -9.298E-03
   1   15   26     3     5    1.8008E+05 -2.6581E+02   1.8034E+05  0.000E+00  0.000E+00  0.000E+00  3.41709E+01  1.709E-01  2.000E+01  2.000E+04 -1.329E-02
   1   16   27     3     6    1.8034E+05 -2.6695E+02   1.8061E+05  0.000E+00  0.000E+00  0.000E+00  3.32822E+01  1.711E-01  2.000E+01  2.000E+04 -1.335E-02
   1   17   28     3     7    1.8061E+05 -1.1722E+03   1.8178E+05  0.000E+00  0.000E+00  0.000E+00  3.23937E+01  1.715E-01  2.000E+01  2.000E+04 -5.861E-02
   1   18   29     3     8    1.8178E+05 -2.1538E+03   1.8393E+05  0.000E+00  0.000E+00  0.000E+00  3.15057E+01  1.724E-01  2.000E+01  2.000E+04 -1.077E-01
   1   18   30     3     9    1.8393E+05 -2.7157E+03   1.8665E+05  0.000E+00  0.000E+00  0.000E+00  3.06182E+01  1.738E-01  2.000E+01  2.000E+04 -1.358E-01



1
              HEAD IN LAYER   1 AT END OF TIME STEP   1 IN STRESS PERIOD    5
  ---------------------------------------------------------------------------

          1      2      3      4      5      6      7      8      9     10
         11     12     13     14     15     16     17     18     19     20
         21     22     23     24     25     26     27     28     29     30
 .........................................................................
   1  ****** ****** ****** ****** ****** ****** ****** ****** ****** ******
      ****** ****** ****** ****** ****** ****** ****** ****** ****** ******
      ****** ****** ****** ****** ****** ****** ****** ****** ****** ******
   2  ****** ****** ****** ****** ****** ****** ****** ****** ****** ******
      ****** ****** ****** ****** ****** ****** ****** ****** ****** ******
      ****** ****** ****** ****** ****** ****** ****** ****** ****** ******
   3  ****** ****** ****** ****** ****** ****** ****** ****** ****** ******
      ****** ****** ****** ****** ****** ****** ****** ****** ****** ******
      ****** ****** ****** ****** ****** ****** ****** ****** ****** ******
   4  ****** ****** ****** ****** ****** ****** ****** ****** ****** ******
      ****** ****** ****** ****** ****** ****** ****** ****** ****** ******
      ****** ****** ****** ****** ****** ****** ****** ****** ****** ******
   5  ****** ****** ****** ****** ****** ****** ****** ****** ****** ******
      ****** ****** ****** ****** ****** ****** ****** ****** ****** ******
      ****** ****** ****** ****** ****** ****** ****** ****** ****** ******
   6  ****** ****** ****** ****** ****** ****** ****** ****** ****** ******
      ****** ****** ****** ****** ****** ****** ****** ****** ****** ******
      ****** ****** ****** ****** ****** ****** ****** ****** ****** ******
   7  ****** ****** ****** ****** ****** ****** ****** ****** ****** ******
      ****** ****** ****** ****** ****** ****** ****** ****** ****** ******
      ****** ****** ****** ****** ****** ****** ****** ****** ****** ******
   8  ****** ****** ****** ****** ****** ****** ****** ****** ****** ******
      ****** ****** ****** ****** ****** ****** ****** ****** ****** ******
      ****** ****** ****** ****** ****** ****** ****** ****** ****** ******
   9  ****** ****** ****** ****** ****** ****** ****** ****** ****** ******
      ****** ****** ****** ****** ****** ****** ****** ****** ****** ******
      ****** ****** ****** ****** ****** ****** ****** ****** ****** ******
  10  ****** ****** ****** ****** ****** ****** ****** ****** ****** ******
      ****** ****** ****** ****** ****** ****** ****** ****** ****** ******
      ****** ****** ****** ****** ****** ****** ****** ****** ****** ******
  11  ****** ****** ****** ****** ****** ****** ****** ****** ****** ******
      ****** ****** ****** ****** ****** ****** ****** ****** ****** ******
      ****** ****** ****** ****** ****** ****** ****** ****** ****** ******
  12  ****** ****** ****** ****** ****** ****** ****** ****** ****** ******
      ****** ****** ****** ****** ****** ****** ****** ****** ****** ******
      ****** ****** ****** ****** ****** ****** ****** ****** ****** ******
  13  ****** ****** ****** ****** ****** ****** ****** ****** ****** ******
      ****** ****** ****** ****** ****** ****** ****** ****** ****** ******
      ****** ****** ****** ****** ****** ****** ****** ****** ****** ******
  14  ****** ****** ****** ****** ****** ****** ****** ****** ****** ******
      ****** ****** ****** ****** ****** ****** ****** ****** ****** ******
      ****** ****** ****** ****** ****** ****** ****** ****** ****** ******
  15  ****** ****** ****** ****** ****** ****** ****** ****** ****** ******
      ****** ****** ****** ****** ****** ****** ****** ****** ****** ******
      ****** ****** ****** ****** ****** ****** ****** ****** ****** ******
  16  ****** ****** ****** ****** ****** ****** ****** ****** ****** ******
      ****** ****** ****** ****** ****** ****** ****** ****** ****** ******
      ****** ****** ****** ****** ****** ****** ****** ****** ****** ******
  17  ****** ****** ****** ****** ****** ****** ****** ****** ****** ******
      ****** ****** ****** ****** ****** ****** ****** ****** ****** ******
      ****** ****** ****** ****** ****** ****** ****** ****** ****** ******
  18  ****** ****** ****** ****** ****** ****** ****** ****** ****** ******
      ****** ****** ****** ****** ****** ****** ****** ****** ****** ******
      ****** ****** ****** ****** ****** ****** ****** ****** ****** ******
  19  ****** ****** ****** ****** ****** ****** ****** ****** ****** ******
      ****** ****** ****** ****** ****** ****** ****** ****** ****** ******
      ****** ****** ****** ****** ****** ****** ****** ****** ****** ******
  20  ****** ****** ****** ****** ****** ****** ****** ****** ****** ******
      ****** ****** ****** ****** ****** ****** ****** ****** ****** ******
      ****** ****** ****** ****** ****** ****** ****** ****** ****** ******
  21  ****** ****** ****** ****** ****** ****** ****** ****** ****** ******
      ****** ****** ****** ****** ****** ****** ****** ****** ****** ******
      ****** ****** ****** ****** ****** ****** ****** ****** ****** ******
  22  ****** ****** ****** ****** ****** ****** ****** ****** ****** ******
      ****** ****** ****** ****** ****** ****** ****** ****** ****** ******
      ****** ****** ****** ****** ****** ****** ****** ****** ****** ******
  23  ****** ****** ****** ****** ****** ****** ****** ****** ****** ******
      ****** ****** ****** ****** ****** ****** ****** ****** ****** ******
      ****** ****** ****** ****** ****** ****** ****** ****** ****** ******
  24  ****** ****** ****** ****** ****** ****** ****** ****** ****** ******
      ****** ****** ****** ****** ****** ****** ****** ****** ****** ******
      ****** ****** ****** ****** ****** ****** ****** ****** ****** ******
  25  ****** ****** ****** ****** ****** ****** ****** ****** ****** ******
      ****** ****** ****** ****** ****** ****** ****** ****** ****** ******
      ****** ****** ****** ****** ****** ****** ****** ****** ****** ******

 HEAD WILL BE SAVED ON UNIT   51 AT END OF TIME STEP    1, STRESS PERIOD    5
1
  VOLUMETRIC BUDGET FOR ENTIRE MODEL AT END OF TIME STEP    1, STRESS PERIOD   5
  ------------------------------------------------------------------------------

     CUMULATIVE VOLUMES      L**3       RATES FOR THIS TIME STEP      L**3/T
     ------------------                 ------------------------

           IN:                                      IN:
           ---                                      ---
             STORAGE =    32979922.9727               STORAGE =       20064.9326
       CONSTANT HEAD =    11488806.6573         CONSTANT HEAD =       34246.5013
               WELLS =           0.0000                 WELLS =           0.0000
            RECHARGE =    10074000.0000              RECHARGE =       13800.0000
      STREAM LEAKAGE =     3016690.5520        STREAM LEAKAGE =        8431.4805

            TOTAL IN =    57559420.1820              TOTAL IN =       76542.9145

          OUT:                                     OUT:
          ----                                     ----
             STORAGE =        1194.2213               STORAGE =           0.0000
       CONSTANT HEAD =           0.0000         CONSTANT HEAD =           0.0000
               WELLS =    14377576.2487                 WELLS =       31460.7795
            RECHARGE =           0.0000              RECHARGE =           0.0000
      STREAM LEAKAGE =    43180652.0534        STREAM LEAKAGE =       45082.1383

           TOTAL OUT =    57559422.5233             TOTAL OUT =       76542.9179

            IN - OUT =          -2.3414              IN - OUT =      -3.4115E-03

 PERCENT DISCREPANCY =          -0.00     PERCENT DISCREPANCY =          -0.00






         TIME SUMMARY AT END OF TIME STEP    1 IN STRESS PERIOD    5
                    SECONDS     MINUTES      HOURS       DAYS        YEARS
                    -----------------------------------------------------------
   TIME STEP LENGTH 7.94880E+06 1.32480E+05  2208.0      92.000     0.25188    
 STRESS PERIOD TIME 7.94880E+06 1.32480E+05  2208.0      92.000     0.25188    
         TOTAL TIME 3.94848E+07 6.58080E+05  10968.      457.00      1.2512    
1
1
                            STRESS PERIOD NO.    6, LENGTH =   91.00000    
                            -----------------------------------------------

                              NUMBER OF TIME STEPS =     1

                               MULTIPLIER FOR DELT =     1.500

                            INITIAL TIME STEP SIZE =   91.00000    

 WELL NO.  LAYER   ROW   COL   STRESS RATE         
 --------------------------------------------------
      1      1     20     21      -6420.    
      2      1     18     16     -0.1266E+05
      3      1     20     18      -5517.    
      4      1      4      9      -6868.    

      4 WELLS

                 RECHARGE =  2.000000E-03

 REUSING STREAM SEGMENT DATA FROM LAST STRESS PERIOD
 
 SOLVING FOR HEAD 


     7 CALLS TO PCG ROUTINE FOR TIME STEP   1 IN STRESS PERIOD    6
    26 TOTAL ITERATIONS

 OUTPUT CONTROL FOR STRESS PERIOD    6   TIME STEP    1
    SAVE BUDGET
    SAVE HEAD FOR ALL LAYERS
    PRINT HEAD FOR ALL LAYERS
 UBDSV2 SAVING "STREAMFLOW OUT  " ON UNIT  50 AT TIME STEP  1, STRESS PERIOD   6



 STREAM LISTING     PERIOD      6   STEP        1

 LAYER ROW COL. STREAM  RCH.  FLOW INTO     FLOW TO   FLOW OUT OF   OVRLND.     DIRECT     STREAM       STREAM     STREAM     STREAM   STREAMBED  STREAMBED
                SEG.NO.  NO.  STRM. RCH.    AQUIFER    STRM. RCH.    RUNOFF     PRECIP       ET          HEAD       DEPTH      WIDTH   CONDCTNC.   GRADIENT

   1   13    1     1     1    1.0000E+05 -2.0358E+03   1.0204E+05  0.000E+00  0.000E+00  0.000E+00  4.84069E+01  1.455E-01  2.000E+01  2.000E+04 -1.018E-01
   1   13    2     1     2    1.0204E+05 -3.0546E+03   1.0509E+05  0.000E+00  0.000E+00  0.000E+00  4.79318E+01  1.477E-01  2.000E+01  2.000E+04 -1.527E-01
   1   14    3     1     3    1.0509E+05 -6.1548E+02   1.0571E+05  0.000E+00  0.000E+00  0.000E+00  4.74561E+01  1.493E-01  2.000E+01  2.000E+04 -3.077E-02
   1   15    4     1     4    1.0571E+05 -5.9379E+02   1.0630E+05  0.000E+00  0.000E+00  0.000E+00  4.69793E+01  1.498E-01  2.000E+01  2.000E+04 -2.969E-02
   1   16    5     1     5    1.0630E+05 -1.9537E+03   1.0825E+05  0.000E+00  0.000E+00  0.000E+00  4.65032E+01  1.509E-01  2.000E+01  2.000E+04 -9.769E-02
   1   16    6     1     6    1.0825E+05 -1.1925E+03   1.0945E+05  0.000E+00  0.000E+00  0.000E+00  4.60272E+01  1.522E-01  2.000E+01  2.000E+04 -5.963E-02
   1   16    7     1     7    1.0945E+05 -1.1198E+03   1.1057E+05  0.000E+00  0.000E+00  0.000E+00  4.55509E+01  1.532E-01  2.000E+01  2.000E+04 -5.599E-02
   1   16    8     1     8    1.1057E+05 -1.0447E+03   1.1161E+05  0.000E+00  0.000E+00  0.000E+00  4.50745E+01  1.541E-01  2.000E+01  2.000E+04 -5.223E-02
   1   16    9     1     9    1.1161E+05 -9.3553E+02   1.1255E+05  0.000E+00  0.000E+00  0.000E+00  4.45981E+01  1.549E-01  2.000E+01  2.000E+04 -4.678E-02
   1   16   10     1    10    1.1255E+05 -7.7212E+02   1.1332E+05  0.000E+00  0.000E+00  0.000E+00  4.41215E+01  1.556E-01  2.000E+01  2.000E+04 -3.861E-02
   1   16   11     1    11    1.1332E+05 -5.1652E+02   1.1383E+05  0.000E+00  0.000E+00  0.000E+00  4.36448E+01  1.561E-01  2.000E+01  2.000E+04 -2.583E-02
   1   16   12     1    12    1.1383E+05 -1.0077E+02   1.1394E+05  0.000E+00  0.000E+00  0.000E+00  4.31678E+01  1.564E-01  2.000E+01  2.000E+04 -5.039E-03
   1   15   13     1    13    1.1394E+05 -1.9559E+02   1.1413E+05  0.000E+00  0.000E+00  0.000E+00  4.26906E+01  1.565E-01  2.000E+01  2.000E+04 -9.779E-03
   1   14   14     1    14    1.1413E+05 -6.9979E+02   1.1483E+05  0.000E+00  0.000E+00  0.000E+00  4.22137E+01  1.569E-01  2.000E+01  2.000E+04 -3.499E-02
   1   13   15     1    15    1.1483E+05 -1.4162E+03   1.1625E+05  0.000E+00  0.000E+00  0.000E+00  4.17373E+01  1.577E-01  2.000E+01  2.000E+04 -7.081E-02
   1   12   16     1    16    1.1625E+05 -2.6975E+03   1.1894E+05  0.000E+00  0.000E+00  0.000E+00  4.12617E+01  1.594E-01  2.000E+01  2.000E+04 -1.349E-01
   1   12   17     1    17    1.1894E+05 -1.5568E+03   1.2050E+05  0.000E+00  0.000E+00  0.000E+00  4.07862E+01  1.612E-01  2.000E+01  2.000E+04 -7.784E-02
   1   12   18     1    18    1.2050E+05 -1.5074E+03   1.2201E+05  0.000E+00  0.000E+00  0.000E+00  4.03101E+01  1.624E-01  2.000E+01  2.000E+04 -7.537E-02
   1   12   19     1    19    1.2201E+05 -2.3125E+03   1.2432E+05  0.000E+00  0.000E+00  0.000E+00  3.98344E+01  1.639E-01  2.000E+01  2.000E+04 -1.156E-01
   1   13   20     1    20    1.2432E+05 -1.0281E+03   1.2535E+05  0.000E+00  0.000E+00  0.000E+00  3.93584E+01  1.652E-01  2.000E+01  2.000E+04 -5.141E-02
   1   14   21     1    21    1.2535E+05  4.2723E+01   1.2531E+05  0.000E+00  0.000E+00  0.000E+00  3.88815E+01  1.656E-01  2.000E+01  2.000E+04  2.136E-03
   1   14   22     1    22    1.2531E+05  5.0681E+03   1.2024E+05  0.000E+00  0.000E+00  0.000E+00  3.84022E+01  1.636E-01  2.000E+01  2.000E+04  2.534E-01
   1    9   30     2     1    5.0000E+04 -1.0164E+03   5.1016E+04  0.000E+00  0.000E+00  0.000E+00  4.02416E+01  1.166E-01  2.000E+01  2.000E+04 -5.082E-02
   1    9   29     2     2    5.1016E+04 -1.3141E+03   5.2331E+04  0.000E+00  0.000E+00  0.000E+00  3.99932E+01  1.182E-01  2.000E+01  2.000E+04 -6.571E-02
   1    9   28     2     3    5.2331E+04 -1.5694E+03   5.3900E+04  0.000E+00  0.000E+00  0.000E+00  3.97451E+01  1.201E-01  2.000E+01  2.000E+04 -7.847E-02
   1    9   27     2     4    5.3900E+04 -2.9582E+03   5.6858E+04  0.000E+00  0.000E+00  0.000E+00  3.94982E+01  1.232E-01  2.000E+01  2.000E+04 -1.479E-01
   1   10   26     2     5    5.6858E+04 -2.1480E+03   5.9006E+04  0.000E+00  0.000E+00  0.000E+00  3.92516E+01  1.266E-01  2.000E+01  2.000E+04 -1.074E-01
   1   11   25     2     6    5.9006E+04 -1.9195E+03   6.0926E+04  0.000E+00  0.000E+00  0.000E+00  3.90042E+01  1.292E-01  2.000E+01  2.000E+04 -9.597E-02
   1   12   24     2     7    6.0926E+04 -1.9403E+03   6.2866E+04  0.000E+00  0.000E+00  0.000E+00  3.87567E+01  1.317E-01  2.000E+01  2.000E+04 -9.702E-02
   1   13   23     2     8    6.2866E+04 -3.7447E+02   6.3240E+04  0.000E+00  0.000E+00  0.000E+00  3.85082E+01  1.332E-01  2.000E+01  2.000E+04 -1.872E-02
   1   14   22     2     9    6.3240E+04  2.1640E+03   6.1076E+04  0.000E+00  0.000E+00  0.000E+00  3.82570E+01  1.320E-01  2.000E+01  2.000E+04  1.082E-01
   1   14   22     3     1    1.8131E+05 -8.3874E+03   1.8970E+05  0.000E+00  0.000E+00  0.000E+00  3.77295E+01  1.739E-01  2.000E+01  2.000E+04 -4.194E-01
   1   15   23     3     2    1.8970E+05 -2.6242E+02   1.8996E+05  0.000E+00  0.000E+00  0.000E+00  3.68430E+01  1.763E-01  2.000E+01  2.000E+04 -1.312E-02
   1   15   24     3     3    1.8996E+05 -2.7177E+02   1.9024E+05  0.000E+00  0.000E+00  0.000E+00  3.59543E+01  1.765E-01  2.000E+01  2.000E+04 -1.359E-02
   1   15   25     3     4    1.9024E+05 -3.0868E+02   1.9055E+05  0.000E+00  0.000E+00  0.000E+00  3.50655E+01  1.766E-01  2.000E+01  2.000E+04 -1.543E-02
   1   15   26     3     5    1.9055E+05 -4.1486E+02   1.9096E+05  0.000E+00  0.000E+00  0.000E+00  3.41768E+01  1.768E-01  2.000E+01  2.000E+04 -2.074E-02
   1   16   27     3     6    1.9096E+05 -4.3136E+02   1.9139E+05  0.000E+00  0.000E+00  0.000E+00  3.32882E+01  1.771E-01  2.000E+01  2.000E+04 -2.157E-02
   1   17   28     3     7    1.9139E+05 -1.6197E+03   1.9301E+05  0.000E+00  0.000E+00  0.000E+00  3.23999E+01  1.776E-01  2.000E+01  2.000E+04 -8.099E-02
   1   18   29     3     8    1.9301E+05 -2.5605E+03   1.9557E+05  0.000E+00  0.000E+00  0.000E+00  3.15121E+01  1.788E-01  2.000E+01  2.000E+04 -1.280E-01
   1   18   30     3     9    1.9557E+05 -3.0521E+03   1.9862E+05  0.000E+00  0.000E+00  0.000E+00  3.06248E+01  1.803E-01  2.000E+01  2.000E+04 -1.526E-01



1
              HEAD IN LAYER   1 AT END OF TIME STEP   1 IN STRESS PERIOD    6
  ---------------------------------------------------------------------------

          1      2      3      4      5      6      7      8      9     10
         11     12     13     14     15     16     17     18     19     20
         21     22     23     24     25     26     27     28     29     30
 .........................................................................
   1  ****** ****** ****** ****** ****** ****** ****** ****** ****** ******
      ****** ****** ****** ****** ****** ****** ****** ****** ****** ******
      ****** ****** ****** ****** ****** ****** ****** ****** ****** ******
   2  ****** ****** ****** ****** ****** ****** ****** ****** ****** ******
      ****** ****** ****** ****** ****** ****** ****** ****** ****** ******
      ****** ****** ****** ****** ****** ****** ****** ****** ****** ******
   3  ****** ****** ****** ****** ****** ****** ****** ****** ****** ******
      ****** ****** ****** ****** ****** ****** ****** ****** ****** ******
      ****** ****** ****** ****** ****** ****** ****** ****** ****** ******
   4  ****** ****** ****** ****** ****** ****** ****** ****** ****** ******
      ****** ****** ****** ****** ****** ****** ****** ****** ****** ******
      ****** ****** ****** ****** ****** ****** ****** ****** ****** ******
   5  ****** ****** ****** ****** ****** ****** ****** ****** ****** ******
      ****** ****** ****** ****** ****** ****** ****** ****** ****** ******
      ****** ****** ****** ****** ****** ****** ****** ****** ****** ******
   6  ****** ****** ****** ****** ****** ****** ****** ****** ****** ******
      ****** ****** ****** ****** ****** ****** ****** ****** ****** ******
      ****** ****** ****** ****** ****** ****** ****** ****** ****** ******
   7  ****** ****** ****** ****** ****** ****** ****** ****** ****** ******
      ****** ****** ****** ****** ****** ****** ****** ****** ****** ******
      ****** ****** ****** ****** ****** ****** ****** ****** ****** ******
   8  ****** ****** ****** ****** ****** ****** ****** ****** ****** ******
      ****** ****** ****** ****** ****** ****** ****** ****** ****** ******
      ****** ****** ****** ****** ****** ****** ****** ****** ****** ******
   9  ****** ****** ****** ****** ****** ****** ****** ****** ****** ******
      ****** ****** ****** ****** ****** ****** ****** ****** ****** ******
      ****** ****** ****** ****** ****** ****** ****** ****** ****** ******
  10  ****** ****** ****** ****** ****** ****** ****** ****** ****** ******
      ****** ****** ****** ****** ****** ****** ****** ****** ****** ******
      ****** ****** ****** ****** ****** ****** ****** ****** ****** ******
  11  ****** ****** ****** ****** ****** ****** ****** ****** ****** ******
      ****** ****** ****** ****** ****** ****** ****** ****** ****** ******
      ****** ****** ****** ****** ****** ****** ****** ****** ****** ******
  12  ****** ****** ****** ****** ****** ****** ****** ****** ****** ******
      ****** ****** ****** ****** ****** ****** ****** ****** ****** ******
      ****** ****** ****** ****** ****** ****** ****** ****** ****** ******
  13  ****** ****** ****** ****** ****** ****** ****** ****** ****** ******
      ****** ****** ****** ****** ****** ****** ****** ****** ****** ******
      ****** ****** ****** ****** ****** ****** ****** ****** ****** ******
  14  ****** ****** ****** ****** ****** ****** ****** ****** ****** ******
      ****** ****** ****** ****** ****** ****** ****** ****** ****** ******
      ****** ****** ****** ****** ****** ****** ****** ****** ****** ******
  15  ****** ****** ****** ****** ****** ****** ****** ****** ****** ******
      ****** ****** ****** ****** ****** ****** ****** ****** ****** ******
      ****** ****** ****** ****** ****** ****** ****** ****** ****** ******
  16  ****** ****** ****** ****** ****** ****** ****** ****** ****** ******
      ****** ****** ****** ****** ****** ****** ****** ****** ****** ******
      ****** ****** ****** ****** ****** ****** ****** ****** ****** ******
  17  ****** ****** ****** ****** ****** ****** ****** ****** ****** ******
      ****** ****** ****** ****** ****** ****** ****** ****** ****** ******
      ****** ****** ****** ****** ****** ****** ****** ****** ****** ******
  18  ****** ****** ****** ****** ****** ****** ****** ****** ****** ******
      ****** ****** ****** ****** ****** ****** ****** ****** ****** ******
      ****** ****** ****** ****** ****** ****** ****** ****** ****** ******
  19  ****** ****** ****** ****** ****** ****** ****** ****** ****** ******
      ****** ****** ****** ****** ****** ****** ****** ****** ****** ******
      ****** ****** ****** ****** ****** ****** ****** ****** ****** ******
  20  ****** ****** ****** ****** ****** ****** ****** ****** ****** ******
      ****** ****** ****** ****** ****** ****** ****** ****** ****** ******
      ****** ****** ****** ****** ****** ****** ****** ****** ****** ******
  21  ****** ****** ****** ****** ****** ****** ****** ****** ****** ******
      ****** ****** ****** ****** ****** ****** ****** ****** ****** ******
      ****** ****** ****** ****** ****** ****** ****** ****** ****** ******
  22  ****** ****** ****** ****** ****** ****** ****** ****** ****** ******
      ****** ****** ****** ****** ****** ****** ****** ****** ****** ******
      ****** ****** ****** ****** ****** ****** ****** ****** ****** ******
  23  ****** ****** ****** ****** ****** ****** ****** ****** ****** ******
      ****** ****** ****** ****** ****** ****** ****** ****** ****** ******
      ****** ****** ****** ****** ****** ****** ****** ****** ****** ******
  24  ****** ****** ****** ****** ****** ****** ****** ****** ****** ******
      ****** ****** ****** ****** ****** ****** ****** ****** ****** ******
      ****** ****** ****** ****** ****** ****** ****** ****** ****** ******
  25  ****** ****** ****** ****** ****** ****** ****** ****** ****** ******
      ****** ****** ****** ****** ****** ****** ****** ****** ****** ******
      ****** ****** ****** ****** ****** ****** ****** ****** ****** ******

 HEAD WILL BE SAVED ON UNIT   51 AT END OF TIME STEP    1, STRESS PERIOD    6
1
  VOLUMETRIC BUDGET FOR ENTIRE MODEL AT END OF TIME STEP    1, STRESS PERIOD   6
  ------------------------------------------------------------------------------

     CUMULATIVE VOLUMES      L**3       RATES FOR THIS TIME STEP      L**3/T
     ------------------                 ------------------------

           IN:                                      IN:
           ---                                      ---
             STORAGE =    32981999.7825               STORAGE =          22.8221
       CONSTANT HEAD =    14447035.6940         CONSTANT HEAD =       32508.0114
               WELLS =           0.0000                 WELLS =           0.0000
            RECHARGE =    15097200.0000              RECHARGE =       55200.0000
      STREAM LEAKAGE =     3678697.4598        STREAM LEAKAGE =        7274.8012

            TOTAL IN =    66204932.9363              TOTAL IN =       95005.6347

          OUT:                                     OUT:
          ----                                     ----
             STORAGE =      697014.4275               STORAGE =        7646.3759
       CONSTANT HEAD =           0.0000         CONSTANT HEAD =           0.0000
               WELLS =    17240507.1866                 WELLS =       31460.7795
            RECHARGE =           0.0000              RECHARGE =           0.0000
      STREAM LEAKAGE =    48267413.4079        STREAM LEAKAGE =       55898.4764

           TOTAL OUT =    66204935.0220             TOTAL OUT =       95005.6319

            IN - OUT =          -2.0857              IN - OUT =       2.8099E-03

 PERCENT DISCREPANCY =          -0.00     PERCENT DISCREPANCY =           0.00






         TIME SUMMARY AT END OF TIME STEP    1 IN STRESS PERIOD    6
                    SECONDS     MINUTES      HOURS       DAYS        YEARS
                    -----------------------------------------------------------
   TIME STEP LENGTH 7.86240E+06 1.31040E+05  2184.0      91.000     0.24914    
 STRESS PERIOD TIME 7.86240E+06 1.31040E+05  2184.0      91.000     0.24914    
         TOTAL TIME 4.73472E+07 7.89120E+05  13152.      548.00      1.5003    
1
1
                            STRESS PERIOD NO.    7, LENGTH =   91.00000    
                            -----------------------------------------------

                              NUMBER OF TIME STEPS =     1

                               MULTIPLIER FOR DELT =     1.500

                            INITIAL TIME STEP SIZE =   91.00000    

 WELL NO.  LAYER   ROW   COL   STRESS RATE         
 --------------------------------------------------
      1      1     20     21      -6420.    
      2      1     18     16     -0.1266E+05
      3      1     20     18      -5517.    
      4      1      4      9      -6868.    

      4 WELLS

                 RECHARGE =   0.00000    

 REUSING STREAM SEGMENT DATA FROM LAST STRESS PERIOD
 
 SOLVING FOR HEAD 


     7 CALLS TO PCG ROUTINE FOR TIME STEP   1 IN STRESS PERIOD    7
    26 TOTAL ITERATIONS

 OUTPUT CONTROL FOR STRESS PERIOD    7   TIME STEP    1
    SAVE BUDGET
    SAVE HEAD FOR ALL LAYERS
    PRINT HEAD FOR ALL LAYERS
 UBDSV2 SAVING "STREAMFLOW OUT  " ON UNIT  50 AT TIME STEP  1, STRESS PERIOD   7



 STREAM LISTING     PERIOD      7   STEP        1

 LAYER ROW COL. STREAM  RCH.  FLOW INTO     FLOW TO   FLOW OUT OF   OVRLND.     DIRECT     STREAM       STREAM     STREAM     STREAM   STREAMBED  STREAMBED
                SEG.NO.  NO.  STRM. RCH.    AQUIFER    STRM. RCH.    RUNOFF     PRECIP       ET          HEAD       DEPTH      WIDTH   CONDCTNC.   GRADIENT

   1   13    1     1     1    1.0000E+05 -1.3492E+03   1.0135E+05  0.000E+00  0.000E+00  0.000E+00  4.84066E+01  1.452E-01  2.000E+01  2.000E+04 -6.746E-02
   1   13    2     1     2    1.0135E+05 -2.2859E+03   1.0364E+05  0.000E+00  0.000E+00  0.000E+00  4.79309E+01  1.468E-01  2.000E+01  2.000E+04 -1.143E-01
   1   14    3     1     3    1.0364E+05 -3.6001E+02   1.0400E+05  0.000E+00  0.000E+00  0.000E+00  4.74548E+01  1.479E-01  2.000E+01  2.000E+04 -1.800E-02
   1   15    4     1     4    1.0400E+05 -3.2793E+02   1.0432E+05  0.000E+00  0.000E+00  0.000E+00  4.69778E+01  1.482E-01  2.000E+01  2.000E+04 -1.640E-02
   1   16    5     1     5    1.0432E+05 -1.1913E+03   1.0551E+05  0.000E+00  0.000E+00  0.000E+00  4.65012E+01  1.489E-01  2.000E+01  2.000E+04 -5.957E-02
   1   16    6     1     6    1.0551E+05 -7.3195E+02   1.0625E+05  0.000E+00  0.000E+00  0.000E+00  4.60247E+01  1.497E-01  2.000E+01  2.000E+04 -3.660E-02
   1   16    7     1     7    1.0625E+05 -6.7738E+02   1.0692E+05  0.000E+00  0.000E+00  0.000E+00  4.55480E+01  1.503E-01  2.000E+01  2.000E+04 -3.387E-02
   1   16    8     1     8    1.0692E+05 -6.0786E+02   1.0753E+05  0.000E+00  0.000E+00  0.000E+00  4.50713E+01  1.508E-01  2.000E+01  2.000E+04 -3.039E-02
   1   16    9     1     9    1.0753E+05 -5.0154E+02   1.0803E+05  0.000E+00  0.000E+00  0.000E+00  4.45945E+01  1.513E-01  2.000E+01  2.000E+04 -2.508E-02
   1   16   10     1    10    1.0803E+05 -3.4017E+02   1.0837E+05  0.000E+00  0.000E+00  0.000E+00  4.41176E+01  1.517E-01  2.000E+01  2.000E+04 -1.701E-02
   1   16   11     1    11    1.0837E+05 -8.2519E+01   1.0846E+05  0.000E+00  0.000E+00  0.000E+00  4.36405E+01  1.518E-01  2.000E+01  2.000E+04 -4.126E-03
   1   16   12     1    12    1.0846E+05  6.3174E+02   1.0782E+05  0.000E+00  0.000E+00  0.000E+00  4.31630E+01  1.516E-01  2.000E+01  2.000E+04  3.159E-02
   1   15   13     1    13    1.0782E+05  5.8852E+02   1.0724E+05  0.000E+00  0.000E+00  0.000E+00  4.26852E+01  1.511E-01  2.000E+01  2.000E+04  2.943E-02
   1   14   14     1    14    1.0724E+05  1.1244E+02   1.0712E+05  0.000E+00  0.000E+00  0.000E+00  4.22076E+01  1.508E-01  2.000E+01  2.000E+04  5.622E-03
   1   13   15     1    15    1.0712E+05 -6.0245E+02   1.0773E+05  0.000E+00  0.000E+00  0.000E+00  4.17305E+01  1.510E-01  2.000E+01  2.000E+04 -3.012E-02
   1   12   16     1    16    1.0773E+05 -1.8912E+03   1.0962E+05  0.000E+00  0.000E+00  0.000E+00  4.12543E+01  1.521E-01  2.000E+01  2.000E+04 -9.456E-02
   1   12   17     1    17    1.0962E+05 -9.7166E+02   1.1059E+05  0.000E+00  0.000E+00  0.000E+00  4.07783E+01  1.533E-01  2.000E+01  2.000E+04 -4.858E-02
   1   12   18     1    18    1.1059E+05 -9.3743E+02   1.1153E+05  0.000E+00  0.000E+00  0.000E+00  4.03018E+01  1.540E-01  2.000E+01  2.000E+04 -4.687E-02
   1   12   19     1    19    1.1153E+05 -1.6186E+03   1.1314E+05  0.000E+00  0.000E+00  0.000E+00  3.98256E+01  1.551E-01  2.000E+01  2.000E+04 -8.093E-02
   1   13   20     1    20    1.1314E+05 -3.4903E+02   1.1349E+05  0.000E+00  0.000E+00  0.000E+00  3.93491E+01  1.559E-01  2.000E+01  2.000E+04 -1.745E-02
   1   14   21     1    21    1.1349E+05  7.2003E+02   1.1277E+05  0.000E+00  0.000E+00  0.000E+00  3.88717E+01  1.558E-01  2.000E+01  2.000E+04  3.600E-02
   1   14   22     1    22    1.1277E+05  5.2242E+03   1.0755E+05  0.000E+00  0.000E+00  0.000E+00  3.83919E+01  1.533E-01  2.000E+01  2.000E+04  2.612E-01
   1    9   30     2     1    5.0000E+04 -5.0308E+02   5.0503E+04  0.000E+00  0.000E+00  0.000E+00  4.02412E+01  1.162E-01  2.000E+01  2.000E+04 -2.515E-02
   1    9   29     2     2    5.0503E+04 -8.0249E+02   5.1306E+04  0.000E+00  0.000E+00  0.000E+00  3.99921E+01  1.171E-01  2.000E+01  2.000E+04 -4.012E-02
   1    9   28     2     3    5.1306E+04 -1.0563E+03   5.2362E+04  0.000E+00  0.000E+00  0.000E+00  3.97434E+01  1.184E-01  2.000E+01  2.000E+04 -5.281E-02
   1    9   27     2     4    5.2362E+04 -2.2605E+03   5.4622E+04  0.000E+00  0.000E+00  0.000E+00  3.94957E+01  1.207E-01  2.000E+01  2.000E+04 -1.130E-01
   1   10   26     2     5    5.4622E+04 -1.4480E+03   5.6070E+04  0.000E+00  0.000E+00  0.000E+00  3.92481E+01  1.231E-01  2.000E+01  2.000E+04 -7.240E-02
   1   11   25     2     6    5.6070E+04 -1.2478E+03   5.7318E+04  0.000E+00  0.000E+00  0.000E+00  3.89999E+01  1.249E-01  2.000E+01  2.000E+04 -6.239E-02
   1   12   24     2     7    5.7318E+04 -1.3275E+03   5.8646E+04  0.000E+00  0.000E+00  0.000E+00  3.87516E+01  1.266E-01  2.000E+01  2.000E+04 -6.638E-02
   1   13   23     2     8    5.8646E+04 -1.8230E+02   5.8828E+04  0.000E+00  0.000E+00  0.000E+00  3.85026E+01  1.276E-01  2.000E+01  2.000E+04 -9.115E-03
   1   14   22     2     9    5.8828E+04  2.4088E+03   5.6419E+04  0.000E+00  0.000E+00  0.000E+00  3.82512E+01  1.262E-01  2.000E+01  2.000E+04  1.204E-01
   1   14   22     3     1    1.6397E+05 -8.2251E+03   1.7219E+05  0.000E+00  0.000E+00  0.000E+00  3.77195E+01  1.639E-01  2.000E+01  2.000E+04 -4.113E-01
   1   15   23     3     2    1.7219E+05 -5.2016E+01   1.7225E+05  0.000E+00  0.000E+00  0.000E+00  3.68330E+01  1.663E-01  2.000E+01  2.000E+04 -2.601E-03
   1   15   24     3     3    1.7225E+05 -9.5955E+01   1.7234E+05  0.000E+00  0.000E+00  0.000E+00  3.59441E+01  1.664E-01  2.000E+01  2.000E+04 -4.798E-03
   1   15   25     3     4    1.7234E+05 -1.3009E+02   1.7247E+05  0.000E+00  0.000E+00  0.000E+00  3.50553E+01  1.664E-01  2.000E+01  2.000E+04 -6.505E-03
   1   15   26     3     5    1.7247E+05 -2.1246E+02   1.7268E+05  0.000E+00  0.000E+00  0.000E+00  3.41665E+01  1.665E-01  2.000E+01  2.000E+04 -1.062E-02
   1   16   27     3     6    1.7268E+05 -1.9681E+02   1.7288E+05  0.000E+00  0.000E+00  0.000E+00  3.32778E+01  1.666E-01  2.000E+01  2.000E+04 -9.840E-03
   1   17   28     3     7    1.7288E+05 -9.7042E+02   1.7385E+05  0.000E+00  0.000E+00  0.000E+00  3.23892E+01  1.670E-01  2.000E+01  2.000E+04 -4.852E-02
   1   18   29     3     8    1.7385E+05 -1.8575E+03   1.7571E+05  0.000E+00  0.000E+00  0.000E+00  3.15011E+01  1.678E-01  2.000E+01  2.000E+04 -9.287E-02
   1   18   30     3     9    1.7571E+05 -2.5134E+03   1.7822E+05  0.000E+00  0.000E+00  0.000E+00  3.06135E+01  1.691E-01  2.000E+01  2.000E+04 -1.257E-01



1
              HEAD IN LAYER   1 AT END OF TIME STEP   1 IN STRESS PERIOD    7
  ---------------------------------------------------------------------------

          1      2      3      4      5      6      7      8      9     10
         11     12     13     14     15     16     17     18     19     20
         21     22     23     24     25     26     27     28     29     30
 .........................................................................
   1  ****** ****** ****** ****** ****** ****** ****** ****** ****** ******
      ****** ****** ****** ****** ****** ****** ****** ****** ****** ******
      ****** ****** ****** ****** ****** ****** ****** ****** ****** ******
   2  ****** ****** ****** ****** ****** ****** ****** ****** ****** ******
      ****** ****** ****** ****** ****** ****** ****** ****** ****** ******
      ****** ****** ****** ****** ****** ****** ****** ****** ****** ******
   3  ****** ****** ****** ****** ****** ****** ****** ****** ****** ******
      ****** ****** ****** ****** ****** ****** ****** ****** ****** ******
      ****** ****** ****** ****** ****** ****** ****** ****** ****** ******
   4  ****** ****** ****** ****** ****** ****** ****** ****** ****** ******
      ****** ****** ****** ****** ****** ****** ****** ****** ****** ******
      ****** ****** ****** ****** ****** ****** ****** ****** ****** ******
   5  ****** ****** ****** ****** ****** ****** ****** ****** ****** ******
      ****** ****** ****** ****** ****** ****** ****** ****** ****** ******
      ****** ****** ****** ****** ****** ****** ****** ****** ****** ******
   6  ****** ****** ****** ****** ****** ****** ****** ****** ****** ******
      ****** ****** ****** ****** ****** ****** ****** ****** ****** ******
      ****** ****** ****** ****** ****** ****** ****** ****** ****** ******
   7  ****** ****** ****** ****** ****** ****** ****** ****** ****** ******
      ****** ****** ****** ****** ****** ****** ****** ****** ****** ******
      ****** ****** ****** ****** ****** ****** ****** ****** ****** ******
   8  ****** ****** ****** ****** ****** ****** ****** ****** ****** ******
      ****** ****** ****** ****** ****** ****** ****** ****** ****** ******
      ****** ****** ****** ****** ****** ****** ****** ****** ****** ******
   9  ****** ****** ****** ****** ****** ****** ****** ****** ****** ******
      ****** ****** ****** ****** ****** ****** ****** ****** ****** ******
      ****** ****** ****** ****** ****** ****** ****** ****** ****** ******
  10  ****** ****** ****** ****** ****** ****** ****** ****** ****** ******
      ****** ****** ****** ****** ****** ****** ****** ****** ****** ******
      ****** ****** ****** ****** ****** ****** ****** ****** ****** ******
  11  ****** ****** ****** ****** ****** ****** ****** ****** ****** ******
      ****** ****** ****** ****** ****** ****** ****** ****** ****** ******
      ****** ****** ****** ****** ****** ****** ****** ****** ****** ******
  12  ****** ****** ****** ****** ****** ****** ****** ****** ****** ******
      ****** ****** ****** ****** ****** ****** ****** ****** ****** ******
      ****** ****** ****** ****** ****** ****** ****** ****** ****** ******
  13  ****** ****** ****** ****** ****** ****** ****** ****** ****** ******
      ****** ****** ****** ****** ****** ****** ****** ****** ****** ******
      ****** ****** ****** ****** ****** ****** ****** ****** ****** ******
  14  ****** ****** ****** ****** ****** ****** ****** ****** ****** ******
      ****** ****** ****** ****** ****** ****** ****** ****** ****** ******
      ****** ****** ****** ****** ****** ****** ****** ****** ****** ******
  15  ****** ****** ****** ****** ****** ****** ****** ****** ****** ******
      ****** ****** ****** ****** ****** ****** ****** ****** ****** ******
      ****** ****** ****** ****** ****** ****** ****** ****** ****** ******
  16  ****** ****** ****** ****** ****** ****** ****** ****** ****** ******
      ****** ****** ****** ****** ****** ****** ****** ****** ****** ******
      ****** ****** ****** ****** ****** ****** ****** ****** ****** ******
  17  ****** ****** ****** ****** ****** ****** ****** ****** ****** ******
      ****** ****** ****** ****** ****** ****** ****** ****** ****** ******
      ****** ****** ****** ****** ****** ****** ****** ****** ****** ******
  18  ****** ****** ****** ****** ****** ****** ****** ****** ****** ******
      ****** ****** ****** ****** ****** ****** ****** ****** ****** ******
      ****** ****** ****** ****** ****** ****** ****** ****** ****** ******
  19  ****** ****** ****** ****** ****** ****** ****** ****** ****** ******
      ****** ****** ****** ****** ****** ****** ****** ****** ****** ******
      ****** ****** ****** ****** ****** ****** ****** ****** ****** ******
  20  ****** ****** ****** ****** ****** ****** ****** ****** ****** ******
      ****** ****** ****** ****** ****** ****** ****** ****** ****** ******
      ****** ****** ****** ****** ****** ****** ****** ****** ****** ******
  21  ****** ****** ****** ****** ****** ****** ****** ****** ****** ******
      ****** ****** ****** ****** ****** ****** ****** ****** ****** ******
      ****** ****** ****** ****** ****** ****** ****** ****** ****** ******
  22  ****** ****** ****** ****** ****** ****** ****** ****** ****** ******
      ****** ****** ****** ****** ****** ****** ****** ****** ****** ******
      ****** ****** ****** ****** ****** ****** ****** ****** ****** ******
  23  ****** ****** ****** ****** ****** ****** ****** ****** ****** ******
      ****** ****** ****** ****** ****** ****** ****** ****** ****** ******
      ****** ****** ****** ****** ****** ****** ****** ****** ****** ******
  24  ****** ****** ****** ****** ****** ****** ****** ****** ****** ******
      ****** ****** ****** ****** ****** ****** ****** ****** ****** ******
      ****** ****** ****** ****** ****** ****** ****** ****** ****** ******
  25  ****** ****** ****** ****** ****** ****** ****** ****** ****** ******
      ****** ****** ****** ****** ****** ****** ****** ****** ****** ******
      ****** ****** ****** ****** ****** ****** ****** ****** ****** ******

 HEAD WILL BE SAVED ON UNIT   51 AT END OF TIME STEP    1, STRESS PERIOD    7
1
  VOLUMETRIC BUDGET FOR ENTIRE MODEL AT END OF TIME STEP    1, STRESS PERIOD   7
  ------------------------------------------------------------------------------

     CUMULATIVE VOLUMES      L**3       RATES FOR THIS TIME STEP      L**3/T
     ------------------                 ------------------------

           IN:                                      IN:
           ---                                      ---
             STORAGE =    35087816.1260               STORAGE =       23140.8389
       CONSTANT HEAD =    17772376.9670         CONSTANT HEAD =       36542.2118
               WELLS =           0.0000                 WELLS =           0.0000
            RECHARGE =    15097200.0000              RECHARGE =           0.0000
      STREAM LEAKAGE =     4560100.2770        STREAM LEAKAGE =        9685.7452

            TOTAL IN =    72517493.3701              TOTAL IN =       69368.7960

          OUT:                                     OUT:
          ----                                     ----
             STORAGE =      697014.4275               STORAGE =           0.0000
       CONSTANT HEAD =           0.0000         CONSTANT HEAD =           0.0000
               WELLS =    20103438.1245                 WELLS =       31460.7795
            RECHARGE =           0.0000              RECHARGE =           0.0000
      STREAM LEAKAGE =    51717043.4159        STREAM LEAKAGE =       37908.0221

           TOTAL OUT =    72517495.9678             TOTAL OUT =       69368.8016

            IN - OUT =          -2.5978              IN - OUT =      -5.6274E-03

 PERCENT DISCREPANCY =          -0.00     PERCENT DISCREPANCY =          -0.00






         TIME SUMMARY AT END OF TIME STEP    1 IN STRESS PERIOD    7
                    SECONDS     MINUTES      HOURS       DAYS        YEARS
                    -----------------------------------------------------------
   TIME STEP LENGTH 7.86240E+06 1.31040E+05  2184.0      91.000     0.24914    
 STRESS PERIOD TIME 7.86240E+06 1.31040E+05  2184.0      91.000     0.24914    
         TOTAL TIME 5.52096E+07 9.20160E+05  15336.      639.00      1.7495    
1
1
                            STRESS PERIOD NO.    8, LENGTH =   91.00000    
                            -----------------------------------------------

                              NUMBER OF TIME STEPS =     1

                               MULTIPLIER FOR DELT =     1.500

                            INITIAL TIME STEP SIZE =   91.00000    

 WELL NO.  LAYER   ROW   COL   STRESS RATE         
 --------------------------------------------------
      1      1     20     21      -6420.    
      2      1     18     16     -0.1266E+05
      3      1     20     18      -5517.    
      4      1      4      9      -6868.    

      4 WELLS

                 RECHARGE =  1.000000E-03

 REUSING STREAM SEGMENT DATA FROM LAST STRESS PERIOD
 
 SOLVING FOR HEAD 


     6 CALLS TO PCG ROUTINE FOR TIME STEP   1 IN STRESS PERIOD    8
    22 TOTAL ITERATIONS

 OUTPUT CONTROL FOR STRESS PERIOD    8   TIME STEP    1
    SAVE BUDGET
    SAVE HEAD FOR ALL LAYERS
    PRINT HEAD FOR ALL LAYERS
 UBDSV2 SAVING "STREAMFLOW OUT  " ON UNIT  50 AT TIME STEP  1, STRESS PERIOD   8



 STREAM LISTING     PERIOD      8   STEP        1

 LAYER ROW COL. STREAM  RCH.  FLOW INTO     FLOW TO   FLOW OUT OF   OVRLND.     DIRECT     STREAM       STREAM     STREAM     STREAM   STREAMBED  STREAMBED
                SEG.NO.  NO.  STRM. RCH.    AQUIFER    STRM. RCH.    RUNOFF     PRECIP       ET          HEAD       DEPTH      WIDTH   CONDCTNC.   GRADIENT

   1   13    1     1     1    1.0000E+05 -1.4084E+03   1.0141E+05  0.000E+00  0.000E+00  0.000E+00  4.84066E+01  1.453E-01  2.000E+01  2.000E+04 -7.042E-02
   1   13    2     1     2    1.0141E+05 -2.3425E+03   1.0375E+05  0.000E+00  0.000E+00  0.000E+00  4.79310E+01  1.469E-01  2.000E+01  2.000E+04 -1.171E-01
   1   14    3     1     3    1.0375E+05 -4.2148E+02   1.0417E+05  0.000E+00  0.000E+00  0.000E+00  4.74549E+01  1.481E-01  2.000E+01  2.000E+04 -2.107E-02
   1   15    4     1     4    1.0417E+05 -3.9434E+02   1.0457E+05  0.000E+00  0.000E+00  0.000E+00  4.69780E+01  1.484E-01  2.000E+01  2.000E+04 -1.972E-02
   1   16    5     1     5    1.0457E+05 -1.3597E+03   1.0593E+05  0.000E+00  0.000E+00  0.000E+00  4.65014E+01  1.492E-01  2.000E+01  2.000E+04 -6.799E-02
   1   16    6     1     6    1.0593E+05 -8.3498E+02   1.0676E+05  0.000E+00  0.000E+00  0.000E+00  4.60251E+01  1.501E-01  2.000E+01  2.000E+04 -4.175E-02
   1   16    7     1     7    1.0676E+05 -7.7528E+02   1.0754E+05  0.000E+00  0.000E+00  0.000E+00  4.55485E+01  1.508E-01  2.000E+01  2.000E+04 -3.876E-02
   1   16    8     1     8    1.0754E+05 -7.0481E+02   1.0824E+05  0.000E+00  0.000E+00  0.000E+00  4.50718E+01  1.514E-01  2.000E+01  2.000E+04 -3.524E-02
   1   16    9     1     9    1.0824E+05 -5.9958E+02   1.0884E+05  0.000E+00  0.000E+00  0.000E+00  4.45951E+01  1.519E-01  2.000E+01  2.000E+04 -2.998E-02
   1   16   10     1    10    1.0884E+05 -4.4066E+02   1.0928E+05  0.000E+00  0.000E+00  0.000E+00  4.41183E+01  1.524E-01  2.000E+01  2.000E+04 -2.203E-02
   1   16   11     1    11    1.0928E+05 -1.8581E+02   1.0947E+05  0.000E+00  0.000E+00  0.000E+00  4.36413E+01  1.526E-01  2.000E+01  2.000E+04 -9.290E-03
   1   16   12     1    12    1.0947E+05  4.7985E+02   1.0899E+05  0.000E+00  0.000E+00  0.000E+00  4.31639E+01  1.525E-01  2.000E+01  2.000E+04  2.399E-02
   1   15   13     1    13    1.0899E+05  4.3052E+02   1.0856E+05  0.000E+00  0.000E+00  0.000E+00  4.26862E+01  1.521E-01  2.000E+01  2.000E+04  2.153E-02
   1   14   14     1    14    1.0856E+05 -3.7627E+01   1.0859E+05  0.000E+00  0.000E+00  0.000E+00  4.22088E+01  1.520E-01  2.000E+01  2.000E+04 -1.881E-03
   1   13   15     1    15    1.0859E+05 -7.3925E+02   1.0933E+05  0.000E+00  0.000E+00  0.000E+00  4.17318E+01  1.523E-01  2.000E+01  2.000E+04 -3.696E-02
   1   12   16     1    16    1.0933E+05 -1.9894E+03   1.1132E+05  0.000E+00  0.000E+00  0.000E+00  4.12557E+01  1.534E-01  2.000E+01  2.000E+04 -9.947E-02
   1   12   17     1    17    1.1132E+05 -1.0753E+03   1.1240E+05  0.000E+00  0.000E+00  0.000E+00  4.07797E+01  1.547E-01  2.000E+01  2.000E+04 -5.377E-02
   1   12   18     1    18    1.1240E+05 -1.0488E+03   1.1345E+05  0.000E+00  0.000E+00  0.000E+00  4.03033E+01  1.556E-01  2.000E+01  2.000E+04 -5.244E-02
   1   12   19     1    19    1.1345E+05 -1.7608E+03   1.1521E+05  0.000E+00  0.000E+00  0.000E+00  3.98272E+01  1.568E-01  2.000E+01  2.000E+04 -8.804E-02
   1   13   20     1    20    1.1521E+05 -5.2051E+02   1.1573E+05  0.000E+00  0.000E+00  0.000E+00  3.93509E+01  1.577E-01  2.000E+01  2.000E+04 -2.603E-02
   1   14   21     1    21    1.1573E+05  5.7107E+02   1.1516E+05  0.000E+00  0.000E+00  0.000E+00  3.88736E+01  1.577E-01  2.000E+01  2.000E+04  2.855E-02
   1   14   22     1    22    1.1516E+05  5.1786E+03   1.0998E+05  0.000E+00  0.000E+00  0.000E+00  3.83939E+01  1.553E-01  2.000E+01  2.000E+04  2.589E-01
   1    9   30     2     1    5.0000E+04 -6.6569E+02   5.0666E+04  0.000E+00  0.000E+00  0.000E+00  4.02413E+01  1.163E-01  2.000E+01  2.000E+04 -3.328E-02
   1    9   29     2     2    5.0666E+04 -9.6223E+02   5.1628E+04  0.000E+00  0.000E+00  0.000E+00  3.99925E+01  1.175E-01  2.000E+01  2.000E+04 -4.811E-02
   1    9   28     2     3    5.1628E+04 -1.2102E+03   5.2838E+04  0.000E+00  0.000E+00  0.000E+00  3.97439E+01  1.189E-01  2.000E+01  2.000E+04 -6.051E-02
   1    9   27     2     4    5.2838E+04 -2.4363E+03   5.5274E+04  0.000E+00  0.000E+00  0.000E+00  3.94964E+01  1.214E-01  2.000E+01  2.000E+04 -1.218E-01
   1   10   26     2     5    5.5274E+04 -1.6510E+03   5.6926E+04  0.000E+00  0.000E+00  0.000E+00  3.92492E+01  1.242E-01  2.000E+01  2.000E+04 -8.255E-02
   1   11   25     2     6    5.6926E+04 -1.4493E+03   5.8375E+04  0.000E+00  0.000E+00  0.000E+00  3.90012E+01  1.262E-01  2.000E+01  2.000E+04 -7.247E-02
   1   12   24     2     7    5.8375E+04 -1.5101E+03   5.9885E+04  0.000E+00  0.000E+00  0.000E+00  3.87531E+01  1.281E-01  2.000E+01  2.000E+04 -7.551E-02
   1   13   23     2     8    5.9885E+04 -2.5618E+02   6.0141E+04  0.000E+00  0.000E+00  0.000E+00  3.85043E+01  1.293E-01  2.000E+01  2.000E+04 -1.281E-02
   1   14   22     2     9    6.0141E+04  2.3581E+03   5.7783E+04  0.000E+00  0.000E+00  0.000E+00  3.82529E+01  1.279E-01  2.000E+01  2.000E+04  1.179E-01
   1   14   22     3     1    1.6776E+05 -8.2663E+03   1.7603E+05  0.000E+00  0.000E+00  0.000E+00  3.77217E+01  1.661E-01  2.000E+01  2.000E+04 -4.133E-01
   1   15   23     3     2    1.7603E+05 -1.1389E+02   1.7614E+05  0.000E+00  0.000E+00  0.000E+00  3.68352E+01  1.686E-01  2.000E+01  2.000E+04 -5.695E-03
   1   15   24     3     3    1.7614E+05 -1.5514E+02   1.7630E+05  0.000E+00  0.000E+00  0.000E+00  3.59464E+01  1.686E-01  2.000E+01  2.000E+04 -7.757E-03
   1   15   25     3     4    1.7630E+05 -1.9116E+02   1.7649E+05  0.000E+00  0.000E+00  0.000E+00  3.50576E+01  1.687E-01  2.000E+01  2.000E+04 -9.558E-03
   1   15   26     3     5    1.7649E+05 -2.8636E+02   1.7678E+05  0.000E+00  0.000E+00  0.000E+00  3.41689E+01  1.689E-01  2.000E+01  2.000E+04 -1.432E-02
   1   16   27     3     6    1.7678E+05 -2.7724E+02   1.7705E+05  0.000E+00  0.000E+00  0.000E+00  3.32801E+01  1.690E-01  2.000E+01  2.000E+04 -1.386E-02
   1   17   28     3     7    1.7705E+05 -1.1693E+03   1.7822E+05  0.000E+00  0.000E+00  0.000E+00  3.23917E+01  1.694E-01  2.000E+01  2.000E+04 -5.847E-02
   1   18   29     3     8    1.7822E+05 -2.0126E+03   1.8023E+05  0.000E+00  0.000E+00  0.000E+00  3.15037E+01  1.704E-01  2.000E+01  2.000E+04 -1.006E-01
   1   18   30     3     9    1.8023E+05 -2.6538E+03   1.8289E+05  0.000E+00  0.000E+00  0.000E+00  3.06161E+01  1.717E-01  2.000E+01  2.000E+04 -1.327E-01



1
              HEAD IN LAYER   1 AT END OF TIME STEP   1 IN STRESS PERIOD    8
  ---------------------------------------------------------------------------

          1      2      3      4      5      6      7      8      9     10
         11     12     13     14     15     16     17     18     19     20
         21     22     23     24     25     26     27     28     29     30
 .........................................................................
   1  ****** ****** ****** ****** ****** ****** ****** ****** ****** ******
      ****** ****** ****** ****** ****** ****** ****** ****** ****** ******
      ****** ****** ****** ****** ****** ****** ****** ****** ****** ******
   2  ****** ****** ****** ****** ****** ****** ****** ****** ****** ******
      ****** ****** ****** ****** ****** ****** ****** ****** ****** ******
      ****** ****** ****** ****** ****** ****** ****** ****** ****** ******
   3  ****** ****** ****** ****** ****** ****** ****** ****** ****** ******
      ****** ****** ****** ****** ****** ****** ****** ****** ****** ******
      ****** ****** ****** ****** ****** ****** ****** ****** ****** ******
   4  ****** ****** ****** ****** ****** ****** ****** ****** ****** ******
      ****** ****** ****** ****** ****** ****** ****** ****** ****** ******
      ****** ****** ****** ****** ****** ****** ****** ****** ****** ******
   5  ****** ****** ****** ****** ****** ****** ****** ****** ****** ******
      ****** ****** ****** ****** ****** ****** ****** ****** ****** ******
      ****** ****** ****** ****** ****** ****** ****** ****** ****** ******
   6  ****** ****** ****** ****** ****** ****** ****** ****** ****** ******
      ****** ****** ****** ****** ****** ****** ****** ****** ****** ******
      ****** ****** ****** ****** ****** ****** ****** ****** ****** ******
   7  ****** ****** ****** ****** ****** ****** ****** ****** ****** ******
      ****** ****** ****** ****** ****** ****** ****** ****** ****** ******
      ****** ****** ****** ****** ****** ****** ****** ****** ****** ******
   8  ****** ****** ****** ****** ****** ****** ****** ****** ****** ******
      ****** ****** ****** ****** ****** ****** ****** ****** ****** ******
      ****** ****** ****** ****** ****** ****** ****** ****** ****** ******
   9  ****** ****** ****** ****** ****** ****** ****** ****** ****** ******
      ****** ****** ****** ****** ****** ****** ****** ****** ****** ******
      ****** ****** ****** ****** ****** ****** ****** ****** ****** ******
  10  ****** ****** ****** ****** ****** ****** ****** ****** ****** ******
      ****** ****** ****** ****** ****** ****** ****** ****** ****** ******
      ****** ****** ****** ****** ****** ****** ****** ****** ****** ******
  11  ****** ****** ****** ****** ****** ****** ****** ****** ****** ******
      ****** ****** ****** ****** ****** ****** ****** ****** ****** ******
      ****** ****** ****** ****** ****** ****** ****** ****** ****** ******
  12  ****** ****** ****** ****** ****** ****** ****** ****** ****** ******
      ****** ****** ****** ****** ****** ****** ****** ****** ****** ******
      ****** ****** ****** ****** ****** ****** ****** ****** ****** ******
  13  ****** ****** ****** ****** ****** ****** ****** ****** ****** ******
      ****** ****** ****** ****** ****** ****** ****** ****** ****** ******
      ****** ****** ****** ****** ****** ****** ****** ****** ****** ******
  14  ****** ****** ****** ****** ****** ****** ****** ****** ****** ******
      ****** ****** ****** ****** ****** ****** ****** ****** ****** ******
      ****** ****** ****** ****** ****** ****** ****** ****** ****** ******
  15  ****** ****** ****** ****** ****** ****** ****** ****** ****** ******
      ****** ****** ****** ****** ****** ****** ****** ****** ****** ******
      ****** ****** ****** ****** ****** ****** ****** ****** ****** ******
  16  ****** ****** ****** ****** ****** ****** ****** ****** ****** ******
      ****** ****** ****** ****** ****** ****** ****** ****** ****** ******
      ****** ****** ****** ****** ****** ****** ****** ****** ****** ******
  17  ****** ****** ****** ****** ****** ****** ****** ****** ****** ******
      ****** ****** ****** ****** ****** ****** ****** ****** ****** ******
      ****** ****** ****** ****** ****** ****** ****** ****** ****** ******
  18  ****** ****** ****** ****** ****** ****** ****** ****** ****** ******
      ****** ****** ****** ****** ****** ****** ****** ****** ****** ******
      ****** ****** ****** ****** ****** ****** ****** ****** ****** ******
  19  ****** ****** ****** ****** ****** ****** ****** ****** ****** ******
      ****** ****** ****** ****** ****** ****** ****** ****** ****** ******
      ****** ****** ****** ****** ****** ****** ****** ****** ****** ******
  20  ****** ****** ****** ****** ****** ****** ****** ****** ****** ******
      ****** ****** ****** ****** ****** ****** ****** ****** ****** ******
      ****** ****** ****** ****** ****** ****** ****** ****** ****** ******
  21  ****** ****** ****** ****** ****** ****** ****** ****** ****** ******
      ****** ****** ****** ****** ****** ****** ****** ****** ****** ******
      ****** ****** ****** ****** ****** ****** ****** ****** ****** ******
  22  ****** ****** ****** ****** ****** ****** ****** ****** ****** ******
      ****** ****** ****** ****** ****** ****** ****** ****** ****** ******
      ****** ****** ****** ****** ****** ****** ****** ****** ****** ******
  23  ****** ****** ****** ****** ****** ****** ****** ****** ****** ******
      ****** ****** ****** ****** ****** ****** ****** ****** ****** ******
      ****** ****** ****** ****** ****** ****** ****** ****** ****** ******
  24  ****** ****** ****** ****** ****** ****** ****** ****** ****** ******
      ****** ****** ****** ****** ****** ****** ****** ****** ****** ******
      ****** ****** ****** ****** ****** ****** ****** ****** ****** ******
  25  ****** ****** ****** ****** ****** ****** ****** ****** ****** ******
      ****** ****** ****** ****** ****** ****** ****** ****** ****** ******
      ****** ****** ****** ****** ****** ****** ****** ****** ****** ******

 HEAD WILL BE SAVED ON UNIT   51 AT END OF TIME STEP    1, STRESS PERIOD    8
1
  VOLUMETRIC BUDGET FOR ENTIRE MODEL AT END OF TIME STEP    1, STRESS PERIOD   8
  ------------------------------------------------------------------------------

     CUMULATIVE VOLUMES      L**3       RATES FOR THIS TIME STEP      L**3/T
     ------------------                 ------------------------

           IN:                                      IN:
           ---                                      ---
             STORAGE =    35252507.6852               STORAGE =        1809.7974
       CONSTANT HEAD =    21077230.6019         CONSTANT HEAD =       36317.0729
               WELLS =           0.0000                 WELLS =           0.0000
            RECHARGE =    17608800.0000              RECHARGE =       27600.0000
      STREAM LEAKAGE =     5380757.5062        STREAM LEAKAGE =        9018.2113

            TOTAL IN =    79319295.7933              TOTAL IN =       74745.0816

          OUT:                                     OUT:
          ----                                     ----
             STORAGE =      822410.1106               STORAGE =        1377.9745
       CONSTANT HEAD =           0.0000         CONSTANT HEAD =           0.0000
               WELLS =    22966369.0624                 WELLS =       31460.7795
            RECHARGE =           0.0000              RECHARGE =           0.0000
      STREAM LEAKAGE =    55530518.5182        STREAM LEAKAGE =       41906.3198

           TOTAL OUT =    79319297.6912             TOTAL OUT =       74745.0739

            IN - OUT =          -1.8979              IN - OUT =       7.6906E-03

 PERCENT DISCREPANCY =          -0.00     PERCENT DISCREPANCY =           0.00






         TIME SUMMARY AT END OF TIME STEP    1 IN STRESS PERIOD    8
                    SECONDS     MINUTES      HOURS       DAYS        YEARS
                    -----------------------------------------------------------
   TIME STEP LENGTH 7.86240E+06 1.31040E+05  2184.0      91.000     0.24914    
 STRESS PERIOD TIME 7.86240E+06 1.31040E+05  2184.0      91.000     0.24914    
         TOTAL TIME 6.30720E+07 1.05120E+06  17520.      730.00      1.9986    
1
1
                            STRESS PERIOD NO.    9, LENGTH =   92.00000    
                            -----------------------------------------------

                              NUMBER OF TIME STEPS =     1

                               MULTIPLIER FOR DELT =     1.500

                            INITIAL TIME STEP SIZE =   92.00000    

 WELL NO.  LAYER   ROW   COL   STRESS RATE         
 --------------------------------------------------
      1      1     20     21      -6420.    
      2      1     18     16     -0.1266E+05
      3      1     20     18      -5517.    
      4      1      4      9      -6868.    

      4 WELLS

                 RECHARGE =  5.000000E-04

 REUSING STREAM SEGMENT DATA FROM LAST STRESS PERIOD
 
 SOLVING FOR HEAD 


     6 CALLS TO PCG ROUTINE FOR TIME STEP   1 IN STRESS PERIOD    9
    23 TOTAL ITERATIONS

 OUTPUT CONTROL FOR STRESS PERIOD    9   TIME STEP    1
    SAVE BUDGET
    SAVE HEAD FOR ALL LAYERS
    PRINT HEAD FOR ALL LAYERS
 UBDSV2 SAVING "STREAMFLOW OUT  " ON UNIT  50 AT TIME STEP  1, STRESS PERIOD   9



 STREAM LISTING     PERIOD      9   STEP        1

 LAYER ROW COL. STREAM  RCH.  FLOW INTO     FLOW TO   FLOW OUT OF   OVRLND.     DIRECT     STREAM       STREAM     STREAM     STREAM   STREAMBED  STREAMBED
                SEG.NO.  NO.  STRM. RCH.    AQUIFER    STRM. RCH.    RUNOFF     PRECIP       ET          HEAD       DEPTH      WIDTH   CONDCTNC.   GRADIENT

   1   13    1     1     1    1.0000E+05 -1.1839E+03   1.0118E+05  0.000E+00  0.000E+00  0.000E+00  4.84065E+01  1.452E-01  2.000E+01  2.000E+04 -5.919E-02
   1   13    2     1     2    1.0118E+05 -2.0879E+03   1.0327E+05  0.000E+00  0.000E+00  0.000E+00  4.79307E+01  1.466E-01  2.000E+01  2.000E+04 -1.044E-01
   1   14    3     1     3    1.0327E+05 -3.4879E+02   1.0362E+05  0.000E+00  0.000E+00  0.000E+00  4.74544E+01  1.476E-01  2.000E+01  2.000E+04 -1.744E-02
   1   15    4     1     4    1.0362E+05 -3.2089E+02   1.0394E+05  0.000E+00  0.000E+00  0.000E+00  4.69775E+01  1.479E-01  2.000E+01  2.000E+04 -1.604E-02
   1   16    5     1     5    1.0394E+05 -1.1640E+03   1.0511E+05  0.000E+00  0.000E+00  0.000E+00  4.65008E+01  1.485E-01  2.000E+01  2.000E+04 -5.820E-02
   1   16    6     1     6    1.0511E+05 -7.1256E+02   1.0582E+05  0.000E+00  0.000E+00  0.000E+00  4.60243E+01  1.493E-01  2.000E+01  2.000E+04 -3.563E-02
   1   16    7     1     7    1.0582E+05 -6.5647E+02   1.0647E+05  0.000E+00  0.000E+00  0.000E+00  4.55476E+01  1.499E-01  2.000E+01  2.000E+04 -3.282E-02
   1   16    8     1     8    1.0647E+05 -5.8749E+02   1.0706E+05  0.000E+00  0.000E+00  0.000E+00  4.50709E+01  1.504E-01  2.000E+01  2.000E+04 -2.937E-02
   1   16    9     1     9    1.0706E+05 -4.8390E+02   1.0755E+05  0.000E+00  0.000E+00  0.000E+00  4.45941E+01  1.509E-01  2.000E+01  2.000E+04 -2.419E-02
   1   16   10     1    10    1.0755E+05 -3.2705E+02   1.0787E+05  0.000E+00  0.000E+00  0.000E+00  4.41172E+01  1.512E-01  2.000E+01  2.000E+04 -1.635E-02
   1   16   11     1    11    1.0787E+05 -7.3172E+01   1.0795E+05  0.000E+00  0.000E+00  0.000E+00  4.36400E+01  1.514E-01  2.000E+01  2.000E+04 -3.659E-03
   1   16   12     1    12    1.0795E+05  6.7352E+02   1.0727E+05  0.000E+00  0.000E+00  0.000E+00  4.31625E+01  1.512E-01  2.000E+01  2.000E+04  3.368E-02
   1   15   13     1    13    1.0727E+05  6.4632E+02   1.0663E+05  0.000E+00  0.000E+00  0.000E+00  4.26847E+01  1.506E-01  2.000E+01  2.000E+04  3.232E-02
   1   14   14     1    14    1.0663E+05  1.9233E+02   1.0643E+05  0.000E+00  0.000E+00  0.000E+00  4.22071E+01  1.502E-01  2.000E+01  2.000E+04  9.617E-03
   1   13   15     1    15    1.0643E+05 -5.0309E+02   1.0694E+05  0.000E+00  0.000E+00  0.000E+00  4.17299E+01  1.504E-01  2.000E+01  2.000E+04 -2.515E-02
   1   12   16     1    16    1.0694E+05 -1.7444E+03   1.0868E+05  0.000E+00  0.000E+00  0.000E+00  4.12536E+01  1.513E-01  2.000E+01  2.000E+04 -8.722E-02
   1   12   17     1    17    1.0868E+05 -9.0807E+02   1.0959E+05  0.000E+00  0.000E+00  0.000E+00  4.07774E+01  1.524E-01  2.000E+01  2.000E+04 -4.540E-02
   1   12   18     1    18    1.0959E+05 -8.8971E+02   1.1048E+05  0.000E+00  0.000E+00  0.000E+00  4.03009E+01  1.532E-01  2.000E+01  2.000E+04 -4.449E-02
   1   12   19     1    19    1.1048E+05 -1.5699E+03   1.1205E+05  0.000E+00  0.000E+00  0.000E+00  3.98247E+01  1.542E-01  2.000E+01  2.000E+04 -7.850E-02
   1   13   20     1    20    1.1205E+05 -3.4338E+02   1.1239E+05  0.000E+00  0.000E+00  0.000E+00  3.93482E+01  1.550E-01  2.000E+01  2.000E+04 -1.717E-02
   1   14   21     1    21    1.1239E+05  7.4764E+02   1.1164E+05  0.000E+00  0.000E+00  0.000E+00  3.88708E+01  1.548E-01  2.000E+01  2.000E+04  3.738E-02
   1   14   22     1    22    1.1164E+05  5.2163E+03   1.0643E+05  0.000E+00  0.000E+00  0.000E+00  3.83910E+01  1.524E-01  2.000E+01  2.000E+04  2.608E-01
   1    9   30     2     1    5.0000E+04 -5.4200E+02   5.0542E+04  0.000E+00  0.000E+00  0.000E+00  4.02412E+01  1.162E-01  2.000E+01  2.000E+04 -2.710E-02
   1    9   29     2     2    5.0542E+04 -8.3827E+02   5.1380E+04  0.000E+00  0.000E+00  0.000E+00  3.99922E+01  1.172E-01  2.000E+01  2.000E+04 -4.191E-02
   1    9   28     2     3    5.1380E+04 -1.0842E+03   5.2465E+04  0.000E+00  0.000E+00  0.000E+00  3.97435E+01  1.185E-01  2.000E+01  2.000E+04 -5.421E-02
   1    9   27     2     4    5.2465E+04 -2.2585E+03   5.4723E+04  0.000E+00  0.000E+00  0.000E+00  3.94958E+01  1.208E-01  2.000E+01  2.000E+04 -1.129E-01
   1   10   26     2     5    5.4723E+04 -1.4761E+03   5.6199E+04  0.000E+00  0.000E+00  0.000E+00  3.92483E+01  1.233E-01  2.000E+01  2.000E+04 -7.381E-02
   1   11   25     2     6    5.6199E+04 -1.2819E+03   5.7481E+04  0.000E+00  0.000E+00  0.000E+00  3.90001E+01  1.251E-01  2.000E+01  2.000E+04 -6.409E-02
   1   12   24     2     7    5.7481E+04 -1.3560E+03   5.8837E+04  0.000E+00  0.000E+00  0.000E+00  3.87519E+01  1.269E-01  2.000E+01  2.000E+04 -6.780E-02
   1   13   23     2     8    5.8837E+04 -2.0883E+02   5.9046E+04  0.000E+00  0.000E+00  0.000E+00  3.85029E+01  1.279E-01  2.000E+01  2.000E+04 -1.044E-02
   1   14   22     2     9    5.9046E+04  2.4252E+03   5.6621E+04  0.000E+00  0.000E+00  0.000E+00  3.82514E+01  1.264E-01  2.000E+01  2.000E+04  1.213E-01
   1   14   22     3     1    1.6305E+05 -8.2250E+03   1.7127E+05  0.000E+00  0.000E+00  0.000E+00  3.77189E+01  1.634E-01  2.000E+01  2.000E+04 -4.113E-01
   1   15   23     3     2    1.7127E+05 -6.0115E+01   1.7133E+05  0.000E+00  0.000E+00  0.000E+00  3.68325E+01  1.658E-01  2.000E+01  2.000E+04 -3.006E-03
   1   15   24     3     3    1.7133E+05 -1.1143E+02   1.7145E+05  0.000E+00  0.000E+00  0.000E+00  3.59436E+01  1.658E-01  2.000E+01  2.000E+04 -5.572E-03
   1   15   25     3     4    1.7145E+05 -1.4728E+02   1.7159E+05  0.000E+00  0.000E+00  0.000E+00  3.50548E+01  1.659E-01  2.000E+01  2.000E+04 -7.364E-03
   1   15   26     3     5    1.7159E+05 -2.3837E+02   1.7183E+05  0.000E+00  0.000E+00  0.000E+00  3.41660E+01  1.660E-01  2.000E+01  2.000E+04 -1.192E-02
   1   16   27     3     6    1.7183E+05 -2.2051E+02   1.7205E+05  0.000E+00  0.000E+00  0.000E+00  3.32773E+01  1.662E-01  2.000E+01  2.000E+04 -1.103E-02
   1   17   28     3     7    1.7205E+05 -1.0132E+03   1.7307E+05  0.000E+00  0.000E+00  0.000E+00  3.23887E+01  1.665E-01  2.000E+01  2.000E+04 -5.066E-02
   1   18   29     3     8    1.7307E+05 -1.8312E+03   1.7490E+05  0.000E+00  0.000E+00  0.000E+00  3.15007E+01  1.673E-01  2.000E+01  2.000E+04 -9.156E-02
   1   18   30     3     9    1.7490E+05 -2.5183E+03   1.7741E+05  0.000E+00  0.000E+00  0.000E+00  3.06130E+01  1.686E-01  2.000E+01  2.000E+04 -1.259E-01



1
              HEAD IN LAYER   1 AT END OF TIME STEP   1 IN STRESS PERIOD    9
  ---------------------------------------------------------------------------

          1      2      3      4      5      6      7      8      9     10
         11     12     13     14     15     16     17     18     19     20
         21     22     23     24     25     26     27     28     29     30
 .........................................................................
   1  ****** ****** ****** ****** ****** ****** ****** ****** ****** ******
      ****** ****** ****** ****** ****** ****** ****** ****** ****** ******
      ****** ****** ****** ****** ****** ****** ****** ****** ****** ******
   2  ****** ****** ****** ****** ****** ****** ****** ****** ****** ******
      ****** ****** ****** ****** ****** ****** ****** ****** ****** ******
      ****** ****** ****** ****** ****** ****** ****** ****** ****** ******
   3  ****** ****** ****** ****** ****** ****** ****** ****** ****** ******
      ****** ****** ****** ****** ****** ****** ****** ****** ****** ******
      ****** ****** ****** ****** ****** ****** ****** ****** ****** ******
   4  ****** ****** ****** ****** ****** ****** ****** ****** ****** ******
      ****** ****** ****** ****** ****** ****** ****** ****** ****** ******
      ****** ****** ****** ****** ****** ****** ****** ****** ****** ******
   5  ****** ****** ****** ****** ****** ****** ****** ****** ****** ******
      ****** ****** ****** ****** ****** ****** ****** ****** ****** ******
      ****** ****** ****** ****** ****** ****** ****** ****** ****** ******
   6  ****** ****** ****** ****** ****** ****** ****** ****** ****** ******
      ****** ****** ****** ****** ****** ****** ****** ****** ****** ******
      ****** ****** ****** ****** ****** ****** ****** ****** ****** ******
   7  ****** ****** ****** ****** ****** ****** ****** ****** ****** ******
      ****** ****** ****** ****** ****** ****** ****** ****** ****** ******
      ****** ****** ****** ****** ****** ****** ****** ****** ****** ******
   8  ****** ****** ****** ****** ****** ****** ****** ****** ****** ******
      ****** ****** ****** ****** ****** ****** ****** ****** ****** ******
      ****** ****** ****** ****** ****** ****** ****** ****** ****** ******
   9  ****** ****** ****** ****** ****** ****** ****** ****** ****** ******
      ****** ****** ****** ****** ****** ****** ****** ****** ****** ******
      ****** ****** ****** ****** ****** ****** ****** ****** ****** ******
  10  ****** ****** ****** ****** ****** ****** ****** ****** ****** ******
      ****** ****** ****** ****** ****** ****** ****** ****** ****** ******
      ****** ****** ****** ****** ****** ****** ****** ****** ****** ******
  11  ****** ****** ****** ****** ****** ****** ****** ****** ****** ******
      ****** ****** ****** ****** ****** ****** ****** ****** ****** ******
      ****** ****** ****** ****** ****** ****** ****** ****** ****** ******
  12  ****** ****** ****** ****** ****** ****** ****** ****** ****** ******
      ****** ****** ****** ****** ****** ****** ****** ****** ****** ******
      ****** ****** ****** ****** ****** ****** ****** ****** ****** ******
  13  ****** ****** ****** ****** ****** ****** ****** ****** ****** ******
      ****** ****** ****** ****** ****** ****** ****** ****** ****** ******
      ****** ****** ****** ****** ****** ****** ****** ****** ****** ******
  14  ****** ****** ****** ****** ****** ****** ****** ****** ****** ******
      ****** ****** ****** ****** ****** ****** ****** ****** ****** ******
      ****** ****** ****** ****** ****** ****** ****** ****** ****** ******
  15  ****** ****** ****** ****** ****** ****** ****** ****** ****** ******
      ****** ****** ****** ****** ****** ****** ****** ****** ****** ******
      ****** ****** ****** ****** ****** ****** ****** ****** ****** ******
  16  ****** ****** ****** ****** ****** ****** ****** ****** ****** ******
      ****** ****** ****** ****** ****** ****** ****** ****** ****** ******
      ****** ****** ****** ****** ****** ****** ****** ****** ****** ******
  17  ****** ****** ****** ****** ****** ****** ****** ****** ****** ******
      ****** ****** ****** ****** ****** ****** ****** ****** ****** ******
      ****** ****** ****** ****** ****** ****** ****** ****** ****** ******
  18  ****** ****** ****** ****** ****** ****** ****** ****** ****** ******
      ****** ****** ****** ****** ****** ****** ****** ****** ****** ******
      ****** ****** ****** ****** ****** ****** ****** ****** ****** ******
  19  ****** ****** ****** ****** ****** ****** ****** ****** ****** ******
      ****** ****** ****** ****** ****** ****** ****** ****** ****** ******
      ****** ****** ****** ****** ****** ****** ****** ****** ****** ******
  20  ****** ****** ****** ****** ****** ****** ****** ****** ****** ******
      ****** ****** ****** ****** ****** ****** ****** ****** ****** ******
      ****** ****** ****** ****** ****** ****** ****** ****** ****** ******
  21  ****** ****** ****** ****** ****** ****** ****** ****** ****** ******
      ****** ****** ****** ****** ****** ****** ****** ****** ****** ******
      ****** ****** ****** ****** ****** ****** ****** ****** ****** ******
  22  ****** ****** ****** ****** ****** ****** ****** ****** ****** ******
      ****** ****** ****** ****** ****** ****** ****** ****** ****** ******
      ****** ****** ****** ****** ****** ****** ****** ****** ****** ******
  23  ****** ****** ****** ****** ****** ****** ****** ****** ****** ******
      ****** ****** ****** ****** ****** ****** ****** ****** ****** ******
      ****** ****** ****** ****** ****** ****** ****** ****** ****** ******
  24  ****** ****** ****** ****** ****** ****** ****** ****** ****** ******
      ****** ****** ****** ****** ****** ****** ****** ****** ****** ******
      ****** ****** ****** ****** ****** ****** ****** ****** ****** ******
  25  ****** ****** ****** ****** ****** ****** ****** ****** ****** ******
      ****** ****** ****** ****** ****** ****** ****** ****** ****** ******
      ****** ****** ****** ****** ****** ****** ****** ****** ****** ******

 HEAD WILL BE SAVED ON UNIT   51 AT END OF TIME STEP    1, STRESS PERIOD    9
1
  VOLUMETRIC BUDGET FOR ENTIRE MODEL AT END OF TIME STEP    1, STRESS PERIOD   9
  ------------------------------------------------------------------------------

     CUMULATIVE VOLUMES      L**3       RATES FOR THIS TIME STEP      L**3/T
     ------------------                 ------------------------

           IN:                                      IN:
           ---                                      ---
             STORAGE =    35946797.7131               STORAGE =        7546.6307
       CONSTANT HEAD =    24529879.1717         CONSTANT HEAD =       37528.7888
               WELLS =           0.0000                 WELLS =           0.0000
            RECHARGE =    18878400.0000              RECHARGE =       13800.0000
      STREAM LEAKAGE =     6291676.7075        STREAM LEAKAGE =        9901.2957

            TOTAL IN =    85646753.5923              TOTAL IN =       68776.7152

          OUT:                                     OUT:
          ----                                     ----
             STORAGE =      822410.1106               STORAGE =           0.0000
       CONSTANT HEAD =           0.0000         CONSTANT HEAD =           0.0000
               WELLS =    25860760.7798                 WELLS =       31460.7795
            RECHARGE =           0.0000              RECHARGE =           0.0000
      STREAM LEAKAGE =    58963584.6747        STREAM LEAKAGE =       37315.9365

           TOTAL OUT =    85646755.5651             TOTAL OUT =       68776.7160

            IN - OUT =          -1.9728              IN - OUT =      -8.1421E-04

 PERCENT DISCREPANCY =          -0.00     PERCENT DISCREPANCY =          -0.00






         TIME SUMMARY AT END OF TIME STEP    1 IN STRESS PERIOD    9
                    SECONDS     MINUTES      HOURS       DAYS        YEARS
                    -----------------------------------------------------------
   TIME STEP LENGTH 7.94880E+06 1.32480E+05  2208.0      92.000     0.25188    
 STRESS PERIOD TIME 7.94880E+06 1.32480E+05  2208.0      92.000     0.25188    
         TOTAL TIME 7.10208E+07 1.18368E+06  19728.      822.00      2.2505    
1
1
                            STRESS PERIOD NO.   10, LENGTH =   91.00000    
                            -----------------------------------------------

                              NUMBER OF TIME STEPS =     1

                               MULTIPLIER FOR DELT =     1.500

                            INITIAL TIME STEP SIZE =   91.00000    

 WELL NO.  LAYER   ROW   COL   STRESS RATE         
 --------------------------------------------------
      1      1     20     21      -6420.    
      2      1     18     16     -0.1266E+05
      3      1     20     18      -5517.    
      4      1      4      9      -6868.    

      4 WELLS

                 RECHARGE =  2.000000E-03

 REUSING STREAM SEGMENT DATA FROM LAST STRESS PERIOD
 
 SOLVING FOR HEAD 


     7 CALLS TO PCG ROUTINE FOR TIME STEP   1 IN STRESS PERIOD   10
    26 TOTAL ITERATIONS

 OUTPUT CONTROL FOR STRESS PERIOD   10   TIME STEP    1
    SAVE BUDGET
    SAVE HEAD FOR ALL LAYERS
    PRINT HEAD FOR ALL LAYERS
 UBDSV2 SAVING "STREAMFLOW OUT  " ON UNIT  50 AT TIME STEP  1, STRESS PERIOD  10



 STREAM LISTING     PERIOD     10   STEP        1

 LAYER ROW COL. STREAM  RCH.  FLOW INTO     FLOW TO   FLOW OUT OF   OVRLND.     DIRECT     STREAM       STREAM     STREAM     STREAM   STREAMBED  STREAMBED
                SEG.NO.  NO.  STRM. RCH.    AQUIFER    STRM. RCH.    RUNOFF     PRECIP       ET          HEAD       DEPTH      WIDTH   CONDCTNC.   GRADIENT

   1   13    1     1     1    1.0000E+05 -1.6293E+03   1.0163E+05  0.000E+00  0.000E+00  0.000E+00  4.84067E+01  1.454E-01  2.000E+01  2.000E+04 -8.147E-02
   1   13    2     1     2    1.0163E+05 -2.5811E+03   1.0421E+05  0.000E+00  0.000E+00  0.000E+00  4.79313E+01  1.472E-01  2.000E+01  2.000E+04 -1.291E-01
   1   14    3     1     3    1.0421E+05 -5.3398E+02   1.0474E+05  0.000E+00  0.000E+00  0.000E+00  4.74553E+01  1.485E-01  2.000E+01  2.000E+04 -2.670E-02
   1   15    4     1     4    1.0474E+05 -5.1917E+02   1.0526E+05  0.000E+00  0.000E+00  0.000E+00  4.69785E+01  1.490E-01  2.000E+01  2.000E+04 -2.596E-02
   1   16    5     1     5    1.0526E+05 -1.7811E+03   1.0704E+05  0.000E+00  0.000E+00  0.000E+00  4.65022E+01  1.499E-01  2.000E+01  2.000E+04 -8.905E-02
   1   16    6     1     6    1.0704E+05 -1.0732E+03   1.0812E+05  0.000E+00  0.000E+00  0.000E+00  4.60261E+01  1.511E-01  2.000E+01  2.000E+04 -5.366E-02
   1   16    7     1     7    1.0812E+05 -9.9927E+02   1.0912E+05  0.000E+00  0.000E+00  0.000E+00  4.55497E+01  1.520E-01  2.000E+01  2.000E+04 -4.996E-02
   1   16    8     1     8    1.0912E+05 -9.2483E+02   1.1004E+05  0.000E+00  0.000E+00  0.000E+00  4.50733E+01  1.528E-01  2.000E+01  2.000E+04 -4.624E-02
   1   16    9     1     9    1.1004E+05 -8.1975E+02   1.1086E+05  0.000E+00  0.000E+00  0.000E+00  4.45967E+01  1.535E-01  2.000E+01  2.000E+04 -4.099E-02
   1   16   10     1    10    1.1086E+05 -6.6316E+02   1.1152E+05  0.000E+00  0.000E+00  0.000E+00  4.41201E+01  1.542E-01  2.000E+01  2.000E+04 -3.316E-02
   1   16   11     1    11    1.1152E+05 -4.1280E+02   1.1194E+05  0.000E+00  0.000E+00  0.000E+00  4.36432E+01  1.546E-01  2.000E+01  2.000E+04 -2.064E-02
   1   16   12     1    12    1.1194E+05  1.0719E+02   1.1183E+05  0.000E+00  0.000E+00  0.000E+00  4.31661E+01  1.547E-01  2.000E+01  2.000E+04  5.359E-03
   1   15   13     1    13    1.1183E+05  6.3761E+01   1.1177E+05  0.000E+00  0.000E+00  0.000E+00  4.26888E+01  1.547E-01  2.000E+01  2.000E+04  3.188E-03
   1   14   14     1    14    1.1177E+05 -3.9681E+02   1.1216E+05  0.000E+00  0.000E+00  0.000E+00  4.22116E+01  1.548E-01  2.000E+01  2.000E+04 -1.984E-02
   1   13   15     1    15    1.1216E+05 -1.0818E+03   1.1325E+05  0.000E+00  0.000E+00  0.000E+00  4.17350E+01  1.554E-01  2.000E+01  2.000E+04 -5.409E-02
   1   12   16     1    16    1.1325E+05 -2.3011E+03   1.1555E+05  0.000E+00  0.000E+00  0.000E+00  4.12591E+01  1.568E-01  2.000E+01  2.000E+04 -1.151E-01
   1   12   17     1    17    1.1555E+05 -1.3307E+03   1.1688E+05  0.000E+00  0.000E+00  0.000E+00  4.07833E+01  1.583E-01  2.000E+01  2.000E+04 -6.653E-02
   1   12   18     1    18    1.1688E+05 -1.3086E+03   1.1819E+05  0.000E+00  0.000E+00  0.000E+00  4.03071E+01  1.594E-01  2.000E+01  2.000E+04 -6.543E-02
   1   12   19     1    19    1.1819E+05 -2.0859E+03   1.2027E+05  0.000E+00  0.000E+00  0.000E+00  3.98312E+01  1.608E-01  2.000E+01  2.000E+04 -1.043E-01
   1   13   20     1    20    1.2027E+05 -8.6249E+02   1.2113E+05  0.000E+00  0.000E+00  0.000E+00  3.93551E+01  1.619E-01  2.000E+01  2.000E+04 -4.312E-02
   1   14   21     1    21    1.2113E+05  2.2554E+02   1.2091E+05  0.000E+00  0.000E+00  0.000E+00  3.88781E+01  1.622E-01  2.000E+01  2.000E+04  1.128E-02
   1   14   22     1    22    1.2091E+05  5.0928E+03   1.1582E+05  0.000E+00  0.000E+00  0.000E+00  3.83987E+01  1.600E-01  2.000E+01  2.000E+04  2.546E-01
   1    9   30     2     1    5.0000E+04 -9.5593E+02   5.0956E+04  0.000E+00  0.000E+00  0.000E+00  4.02415E+01  1.165E-01  2.000E+01  2.000E+04 -4.780E-02
   1    9   29     2     2    5.0956E+04 -1.2499E+03   5.2206E+04  0.000E+00  0.000E+00  0.000E+00  3.99930E+01  1.180E-01  2.000E+01  2.000E+04 -6.249E-02
   1    9   28     2     3    5.2206E+04 -1.4950E+03   5.3701E+04  0.000E+00  0.000E+00  0.000E+00  3.97449E+01  1.199E-01  2.000E+01  2.000E+04 -7.475E-02
   1    9   27     2     4    5.3701E+04 -2.8104E+03   5.6511E+04  0.000E+00  0.000E+00  0.000E+00  3.94978E+01  1.228E-01  2.000E+01  2.000E+04 -1.405E-01
   1   10   26     2     5    5.6511E+04 -2.0282E+03   5.8539E+04  0.000E+00  0.000E+00  0.000E+00  3.92510E+01  1.260E-01  2.000E+01  2.000E+04 -1.014E-01
   1   11   25     2     6    5.8539E+04 -1.8094E+03   6.0349E+04  0.000E+00  0.000E+00  0.000E+00  3.90035E+01  1.285E-01  2.000E+01  2.000E+04 -9.047E-02
   1   12   24     2     7    6.0349E+04 -1.8333E+03   6.2182E+04  0.000E+00  0.000E+00  0.000E+00  3.87559E+01  1.309E-01  2.000E+01  2.000E+04 -9.167E-02
   1   13   23     2     8    6.2182E+04 -3.5741E+02   6.2540E+04  0.000E+00  0.000E+00  0.000E+00  3.85073E+01  1.323E-01  2.000E+01  2.000E+04 -1.787E-02
   1   14   22     2     9    6.2540E+04  2.2408E+03   6.0299E+04  0.000E+00  0.000E+00  0.000E+00  3.82561E+01  1.311E-01  2.000E+01  2.000E+04  1.120E-01
   1   14   22     3     1    1.7611E+05 -8.3506E+03   1.8447E+05  0.000E+00  0.000E+00  0.000E+00  3.77265E+01  1.710E-01  2.000E+01  2.000E+04 -4.175E-01
   1   15   23     3     2    1.8447E+05 -2.2199E+02   1.8469E+05  0.000E+00  0.000E+00  0.000E+00  3.68400E+01  1.734E-01  2.000E+01  2.000E+04 -1.110E-02
   1   15   24     3     3    1.8469E+05 -2.4822E+02   1.8494E+05  0.000E+00  0.000E+00  0.000E+00  3.59513E+01  1.735E-01  2.000E+01  2.000E+04 -1.241E-02
   1   15   25     3     4    1.8494E+05 -2.8752E+02   1.8522E+05  0.000E+00  0.000E+00  0.000E+00  3.50626E+01  1.737E-01  2.000E+01  2.000E+04 -1.438E-02
   1   15   26     3     5    1.8522E+05 -4.0039E+02   1.8562E+05  0.000E+00  0.000E+00  0.000E+00  3.41739E+01  1.739E-01  2.000E+01  2.000E+04 -2.002E-02
   1   16   27     3     6    1.8562E+05 -4.0596E+02   1.8603E+05  0.000E+00  0.000E+00  0.000E+00  3.32852E+01  1.741E-01  2.000E+01  2.000E+04 -2.030E-02
   1   17   28     3     7    1.8603E+05 -1.5325E+03   1.8756E+05  0.000E+00  0.000E+00  0.000E+00  3.23969E+01  1.746E-01  2.000E+01  2.000E+04 -7.662E-02
   1   18   29     3     8    1.8756E+05 -2.3796E+03   1.8994E+05  0.000E+00  0.000E+00  0.000E+00  3.15091E+01  1.757E-01  2.000E+01  2.000E+04 -1.190E-01
   1   18   30     3     9    1.8994E+05 -2.9418E+03   1.9288E+05  0.000E+00  0.000E+00  0.000E+00  3.06217E+01  1.772E-01  2.000E+01  2.000E+04 -1.471E-01



1
              HEAD IN LAYER   1 AT END OF TIME STEP   1 IN STRESS PERIOD   10
  ---------------------------------------------------------------------------

          1      2      3      4      5      6      7      8      9     10
         11     12     13     14     15     16     17     18     19     20
         21     22     23     24     25     26     27     28     29     30
 .........................................................................
   1  ****** ****** ****** ****** ****** ****** ****** ****** ****** ******
      ****** ****** ****** ****** ****** ****** ****** ****** ****** ******
      ****** ****** ****** ****** ****** ****** ****** ****** ****** ******
   2  ****** ****** ****** ****** ****** ****** ****** ****** ****** ******
      ****** ****** ****** ****** ****** ****** ****** ****** ****** ******
      ****** ****** ****** ****** ****** ****** ****** ****** ****** ******
   3  ****** ****** ****** ****** ****** ****** ****** ****** ****** ******
      ****** ****** ****** ****** ****** ****** ****** ****** ****** ******
      ****** ****** ****** ****** ****** ****** ****** ****** ****** ******
   4  ****** ****** ****** ****** ****** ****** ****** ****** ****** ******
      ****** ****** ****** ****** ****** ****** ****** ****** ****** ******
      ****** ****** ****** ****** ****** ****** ****** ****** ****** ******
   5  ****** ****** ****** ****** ****** ****** ****** ****** ****** ******
      ****** ****** ****** ****** ****** ****** ****** ****** ****** ******
      ****** ****** ****** ****** ****** ****** ****** ****** ****** ******
   6  ****** ****** ****** ****** ****** ****** ****** ****** ****** ******
      ****** ****** ****** ****** ****** ****** ****** ****** ****** ******
      ****** ****** ****** ****** ****** ****** ****** ****** ****** ******
   7  ****** ****** ****** ****** ****** ****** ****** ****** ****** ******
      ****** ****** ****** ****** ****** ****** ****** ****** ****** ******
      ****** ****** ****** ****** ****** ****** ****** ****** ****** ******
   8  ****** ****** ****** ****** ****** ****** ****** ****** ****** ******
      ****** ****** ****** ****** ****** ****** ****** ****** ****** ******
      ****** ****** ****** ****** ****** ****** ****** ****** ****** ******
   9  ****** ****** ****** ****** ****** ****** ****** ****** ****** ******
      ****** ****** ****** ****** ****** ****** ****** ****** ****** ******
      ****** ****** ****** ****** ****** ****** ****** ****** ****** ******
  10  ****** ****** ****** ****** ****** ****** ****** ****** ****** ******
      ****** ****** ****** ****** ****** ****** ****** ****** ****** ******
      ****** ****** ****** ****** ****** ****** ****** ****** ****** ******
  11  ****** ****** ****** ****** ****** ****** ****** ****** ****** ******
      ****** ****** ****** ****** ****** ****** ****** ****** ****** ******
      ****** ****** ****** ****** ****** ****** ****** ****** ****** ******
  12  ****** ****** ****** ****** ****** ****** ****** ****** ****** ******
      ****** ****** ****** ****** ****** ****** ****** ****** ****** ******
      ****** ****** ****** ****** ****** ****** ****** ****** ****** ******
  13  ****** ****** ****** ****** ****** ****** ****** ****** ****** ******
      ****** ****** ****** ****** ****** ****** ****** ****** ****** ******
      ****** ****** ****** ****** ****** ****** ****** ****** ****** ******
  14  ****** ****** ****** ****** ****** ****** ****** ****** ****** ******
      ****** ****** ****** ****** ****** ****** ****** ****** ****** ******
      ****** ****** ****** ****** ****** ****** ****** ****** ****** ******
  15  ****** ****** ****** ****** ****** ****** ****** ****** ****** ******
      ****** ****** ****** ****** ****** ****** ****** ****** ****** ******
      ****** ****** ****** ****** ****** ****** ****** ****** ****** ******
  16  ****** ****** ****** ****** ****** ****** ****** ****** ****** ******
      ****** ****** ****** ****** ****** ****** ****** ****** ****** ******
      ****** ****** ****** ****** ****** ****** ****** ****** ****** ******
  17  ****** ****** ****** ****** ****** ****** ****** ****** ****** ******
      ****** ****** ****** ****** ****** ****** ****** ****** ****** ******
      ****** ****** ****** ****** ****** ****** ****** ****** ****** ******
  18  ****** ****** ****** ****** ****** ****** ****** ****** ****** ******
      ****** ****** ****** ****** ****** ****** ****** ****** ****** ******
      ****** ****** ****** ****** ****** ****** ****** ****** ****** ******
  19  ****** ****** ****** ****** ****** ****** ****** ****** ****** ******
      ****** ****** ****** ****** ****** ****** ****** ****** ****** ******
      ****** ****** ****** ****** ****** ****** ****** ****** ****** ******
  20  ****** ****** ****** ****** ****** ****** ****** ****** ****** ******
      ****** ****** ****** ****** ****** ****** ****** ****** ****** ******
      ****** ****** ****** ****** ****** ****** ****** ****** ****** ******
  21  ****** ****** ****** ****** ****** ****** ****** ****** ****** ******
      ****** ****** ****** ****** ****** ****** ****** ****** ****** ******
      ****** ****** ****** ****** ****** ****** ****** ****** ****** ******
  22  ****** ****** ****** ****** ****** ****** ****** ****** ****** ******
      ****** ****** ****** ****** ****** ****** ****** ****** ****** ******
      ****** ****** ****** ****** ****** ****** ****** ****** ****** ******
  23  ****** ****** ****** ****** ****** ****** ****** ****** ****** ******
      ****** ****** ****** ****** ****** ****** ****** ****** ****** ******
      ****** ****** ****** ****** ****** ****** ****** ****** ****** ******
  24  ****** ****** ****** ****** ****** ****** ****** ****** ****** ******
      ****** ****** ****** ****** ****** ****** ****** ****** ****** ******
      ****** ****** ****** ****** ****** ****** ****** ****** ****** ******
  25  ****** ****** ****** ****** ****** ****** ****** ****** ****** ******
      ****** ****** ****** ****** ****** ****** ****** ****** ****** ******
      ****** ****** ****** ****** ****** ****** ****** ****** ****** ******

 HEAD WILL BE SAVED ON UNIT   51 AT END OF TIME STEP    1, STRESS PERIOD   10
1
  VOLUMETRIC BUDGET FOR ENTIRE MODEL AT END OF TIME STEP    1, STRESS PERIOD  10
  ------------------------------------------------------------------------------

     CUMULATIVE VOLUMES      L**3       RATES FOR THIS TIME STEP      L**3/T
     ------------------                 ------------------------

           IN:                                      IN:
           ---                                      ---
             STORAGE =    35946797.7131               STORAGE =           0.0000
       CONSTANT HEAD =    27678913.8684         CONSTANT HEAD =       34604.7769
               WELLS =           0.0000                 WELLS =           0.0000
            RECHARGE =    23901600.0000              RECHARGE =       55200.0000
      STREAM LEAKAGE =     6995121.0946        STREAM LEAKAGE =        7730.1581

            TOTAL IN =    94522432.6761              TOTAL IN =       97534.9350

          OUT:                                     OUT:
          ----                                     ----
             STORAGE =     2229345.6147               STORAGE =       15460.8297
       CONSTANT HEAD =           0.0000         CONSTANT HEAD =           0.0000
               WELLS =    28723691.7178                 WELLS =       31460.7795
            RECHARGE =           0.0000              RECHARGE =           0.0000
      STREAM LEAKAGE =    63569396.9650        STREAM LEAKAGE =       50613.3219

           TOTAL OUT =    94522434.2976             TOTAL OUT =       97534.9311

            IN - OUT =          -1.6214              IN - OUT =       3.8617E-03

 PERCENT DISCREPANCY =          -0.00     PERCENT DISCREPANCY =           0.00






         TIME SUMMARY AT END OF TIME STEP    1 IN STRESS PERIOD   10
                    SECONDS     MINUTES      HOURS       DAYS        YEARS
                    -----------------------------------------------------------
   TIME STEP LENGTH 7.86240E+06 1.31040E+05  2184.0      91.000     0.24914    
 STRESS PERIOD TIME 7.86240E+06 1.31040E+05  2184.0      91.000     0.24914    
         TOTAL TIME 7.88832E+07 1.31472E+06  21912.      913.00      2.4997    
1
1
                            STRESS PERIOD NO.   11, LENGTH =   91.00000    
                            -----------------------------------------------

                              NUMBER OF TIME STEPS =     1

                               MULTIPLIER FOR DELT =     1.500

                            INITIAL TIME STEP SIZE =   91.00000    

 WELL NO.  LAYER   ROW   COL   STRESS RATE         
 --------------------------------------------------
      1      1     20     21      -6420.    
      2      1     18     16     -0.1266E+05
      3      1     20     18      -5517.    
      4      1      4      9      -6868.    

      4 WELLS

                 RECHARGE =   0.00000    

 REUSING STREAM SEGMENT DATA FROM LAST STRESS PERIOD
 
 SOLVING FOR HEAD 


     7 CALLS TO PCG ROUTINE FOR TIME STEP   1 IN STRESS PERIOD   11
    26 TOTAL ITERATIONS

 OUTPUT CONTROL FOR STRESS PERIOD   11   TIME STEP    1
    SAVE BUDGET
    SAVE HEAD FOR ALL LAYERS
    PRINT HEAD FOR ALL LAYERS
 UBDSV2 SAVING "STREAMFLOW OUT  " ON UNIT  50 AT TIME STEP  1, STRESS PERIOD  11



 STREAM LISTING     PERIOD     11   STEP        1

 LAYER ROW COL. STREAM  RCH.  FLOW INTO     FLOW TO   FLOW OUT OF   OVRLND.     DIRECT     STREAM       STREAM     STREAM     STREAM   STREAMBED  STREAMBED
                SEG.NO.  NO.  STRM. RCH.    AQUIFER    STRM. RCH.    RUNOFF     PRECIP       ET          HEAD       DEPTH      WIDTH   CONDCTNC.   GRADIENT

   1   13    1     1     1    1.0000E+05 -1.0566E+03   1.0106E+05  0.000E+00  0.000E+00  0.000E+00  4.84065E+01  1.451E-01  2.000E+01  2.000E+04 -5.283E-02
   1   13    2     1     2    1.0106E+05 -1.9430E+03   1.0300E+05  0.000E+00  0.000E+00  0.000E+00  4.79305E+01  1.464E-01  2.000E+01  2.000E+04 -9.715E-02
   1   14    3     1     3    1.0300E+05 -3.0213E+02   1.0330E+05  0.000E+00  0.000E+00  0.000E+00  4.74542E+01  1.474E-01  2.000E+01  2.000E+04 -1.511E-02
   1   15    4     1     4    1.0330E+05 -2.7646E+02   1.0358E+05  0.000E+00  0.000E+00  0.000E+00  4.69772E+01  1.476E-01  2.000E+01  2.000E+04 -1.382E-02
   1   16    5     1     5    1.0358E+05 -1.0920E+03   1.0467E+05  0.000E+00  0.000E+00  0.000E+00  4.65005E+01  1.482E-01  2.000E+01  2.000E+04 -5.460E-02
   1   16    6     1     6    1.0467E+05 -6.5791E+02   1.0533E+05  0.000E+00  0.000E+00  0.000E+00  4.60239E+01  1.489E-01  2.000E+01  2.000E+04 -3.290E-02
   1   16    7     1     7    1.0533E+05 -6.0151E+02   1.0593E+05  0.000E+00  0.000E+00  0.000E+00  4.55472E+01  1.495E-01  2.000E+01  2.000E+04 -3.008E-02
   1   16    8     1     8    1.0593E+05 -5.3258E+02   1.0646E+05  0.000E+00  0.000E+00  0.000E+00  4.50704E+01  1.500E-01  2.000E+01  2.000E+04 -2.663E-02
   1   16    9     1     9    1.0646E+05 -4.2979E+02   1.0689E+05  0.000E+00  0.000E+00  0.000E+00  4.45936E+01  1.504E-01  2.000E+01  2.000E+04 -2.149E-02
   1   16   10     1    10    1.0689E+05 -2.7436E+02   1.0717E+05  0.000E+00  0.000E+00  0.000E+00  4.41166E+01  1.507E-01  2.000E+01  2.000E+04 -1.372E-02
   1   16   11     1    11    1.0717E+05 -2.2268E+01   1.0719E+05  0.000E+00  0.000E+00  0.000E+00  4.36394E+01  1.508E-01  2.000E+01  2.000E+04 -1.113E-03
   1   16   12     1    12    1.0719E+05  7.5467E+02   1.0643E+05  0.000E+00  0.000E+00  0.000E+00  4.31618E+01  1.505E-01  2.000E+01  2.000E+04  3.773E-02
   1   15   13     1    13    1.0643E+05  7.5477E+02   1.0568E+05  0.000E+00  0.000E+00  0.000E+00  4.26839E+01  1.498E-01  2.000E+01  2.000E+04  3.774E-02
   1   14   14     1    14    1.0568E+05  3.1241E+02   1.0537E+05  0.000E+00  0.000E+00  0.000E+00  4.22062E+01  1.494E-01  2.000E+01  2.000E+04  1.562E-02
   1   13   15     1    15    1.0537E+05 -3.7791E+02   1.0574E+05  0.000E+00  0.000E+00  0.000E+00  4.17290E+01  1.494E-01  2.000E+01  2.000E+04 -1.890E-02
   1   12   16     1    16    1.0574E+05 -1.6201E+03   1.0736E+05  0.000E+00  0.000E+00  0.000E+00  4.12525E+01  1.503E-01  2.000E+01  2.000E+04 -8.101E-02
   1   12   17     1    17    1.0736E+05 -8.2200E+02   1.0819E+05  0.000E+00  0.000E+00  0.000E+00  4.07763E+01  1.513E-01  2.000E+01  2.000E+04 -4.110E-02
   1   12   18     1    18    1.0819E+05 -8.0794E+02   1.0899E+05  0.000E+00  0.000E+00  0.000E+00  4.02997E+01  1.520E-01  2.000E+01  2.000E+04 -4.040E-02
   1   12   19     1    19    1.0899E+05 -1.4716E+03   1.1047E+05  0.000E+00  0.000E+00  0.000E+00  3.98234E+01  1.529E-01  2.000E+01  2.000E+04 -7.358E-02
   1   13   20     1    20    1.1047E+05 -2.4895E+02   1.1072E+05  0.000E+00  0.000E+00  0.000E+00  3.93468E+01  1.537E-01  2.000E+01  2.000E+04 -1.245E-02
   1   14   21     1    21    1.1072E+05  8.2376E+02   1.0989E+05  0.000E+00  0.000E+00  0.000E+00  3.88693E+01  1.534E-01  2.000E+01  2.000E+04  4.119E-02
   1   14   22     1    22    1.0989E+05  5.2358E+03   1.0466E+05  0.000E+00  0.000E+00  0.000E+00  3.83895E+01  1.509E-01  2.000E+01  2.000E+04  2.618E-01
   1    9   30     2     1    5.0000E+04 -4.6768E+02   5.0468E+04  0.000E+00  0.000E+00  0.000E+00  4.02412E+01  1.162E-01  2.000E+01  2.000E+04 -2.338E-02
   1    9   29     2     2    5.0468E+04 -7.6465E+02   5.1232E+04  0.000E+00  0.000E+00  0.000E+00  3.99920E+01  1.170E-01  2.000E+01  2.000E+04 -3.823E-02
   1    9   28     2     3    5.1232E+04 -1.0119E+03   5.2244E+04  0.000E+00  0.000E+00  0.000E+00  3.97433E+01  1.183E-01  2.000E+01  2.000E+04 -5.059E-02
   1    9   27     2     4    5.2244E+04 -2.1700E+03   5.4414E+04  0.000E+00  0.000E+00  0.000E+00  3.94954E+01  1.204E-01  2.000E+01  2.000E+04 -1.085E-01
   1   10   26     2     5    5.4414E+04 -1.3734E+03   5.5788E+04  0.000E+00  0.000E+00  0.000E+00  3.92478E+01  1.228E-01  2.000E+01  2.000E+04 -6.867E-02
   1   11   25     2     6    5.5788E+04 -1.1784E+03   5.6966E+04  0.000E+00  0.000E+00  0.000E+00  3.89995E+01  1.245E-01  2.000E+01  2.000E+04 -5.892E-02
   1   12   24     2     7    5.6966E+04 -1.2592E+03   5.8225E+04  0.000E+00  0.000E+00  0.000E+00  3.87511E+01  1.261E-01  2.000E+01  2.000E+04 -6.296E-02
   1   13   23     2     8    5.8225E+04 -1.7139E+02   5.8397E+04  0.000E+00  0.000E+00  0.000E+00  3.85021E+01  1.271E-01  2.000E+01  2.000E+04 -8.570E-03
   1   14   22     2     9    5.8397E+04  2.4568E+03   5.5940E+04  0.000E+00  0.000E+00  0.000E+00  3.82506E+01  1.256E-01  2.000E+01  2.000E+04  1.228E-01
   1   14   22     3     1    1.6060E+05 -8.2049E+03   1.6880E+05  0.000E+00  0.000E+00  0.000E+00  3.77175E+01  1.619E-01  2.000E+01  2.000E+04 -4.102E-01
   1   15   23     3     2    1.6880E+05 -2.9603E+01   1.6883E+05  0.000E+00  0.000E+00  0.000E+00  3.68310E+01  1.643E-01  2.000E+01  2.000E+04 -1.480E-03
   1   15   24     3     3    1.6883E+05 -8.2896E+01   1.6891E+05  0.000E+00  0.000E+00  0.000E+00  3.59422E+01  1.644E-01  2.000E+01  2.000E+04 -4.145E-03
   1   15   25     3     4    1.6891E+05 -1.1838E+02   1.6903E+05  0.000E+00  0.000E+00  0.000E+00  3.50533E+01  1.644E-01  2.000E+01  2.000E+04 -5.919E-03
   1   15   26     3     5    1.6903E+05 -2.0458E+02   1.6924E+05  0.000E+00  0.000E+00  0.000E+00  3.41645E+01  1.645E-01  2.000E+01  2.000E+04 -1.023E-02
   1   16   27     3     6    1.6924E+05 -1.8273E+02   1.6942E+05  0.000E+00  0.000E+00  0.000E+00  3.32758E+01  1.646E-01  2.000E+01  2.000E+04 -9.137E-03
   1   17   28     3     7    1.6942E+05 -9.2201E+02   1.7034E+05  0.000E+00  0.000E+00  0.000E+00  3.23872E+01  1.650E-01  2.000E+01  2.000E+04 -4.610E-02
   1   18   29     3     8    1.7034E+05 -1.7561E+03   1.7210E+05  0.000E+00  0.000E+00  0.000E+00  3.14991E+01  1.657E-01  2.000E+01  2.000E+04 -8.781E-02
   1   18   30     3     9    1.7210E+05 -2.4517E+03   1.7455E+05  0.000E+00  0.000E+00  0.000E+00  3.06114E+01  1.670E-01  2.000E+01  2.000E+04 -1.226E-01



1
              HEAD IN LAYER   1 AT END OF TIME STEP   1 IN STRESS PERIOD   11
  ---------------------------------------------------------------------------

          1      2      3      4      5      6      7      8      9     10
         11     12     13     14     15     16     17     18     19     20
         21     22     23     24     25     26     27     28     29     30
 .........................................................................
   1  ****** ****** ****** ****** ****** ****** ****** ****** ****** ******
      ****** ****** ****** ****** ****** ****** ****** ****** ****** ******
      ****** ****** ****** ****** ****** ****** ****** ****** ****** ******
   2  ****** ****** ****** ****** ****** ****** ****** ****** ****** ******
      ****** ****** ****** ****** ****** ****** ****** ****** ****** ******
      ****** ****** ****** ****** ****** ****** ****** ****** ****** ******
   3  ****** ****** ****** ****** ****** ****** ****** ****** ****** ******
      ****** ****** ****** ****** ****** ****** ****** ****** ****** ******
      ****** ****** ****** ****** ****** ****** ****** ****** ****** ******
   4  ****** ****** ****** ****** ****** ****** ****** ****** ****** ******
      ****** ****** ****** ****** ****** ****** ****** ****** ****** ******
      ****** ****** ****** ****** ****** ****** ****** ****** ****** ******
   5  ****** ****** ****** ****** ****** ****** ****** ****** ****** ******
      ****** ****** ****** ****** ****** ****** ****** ****** ****** ******
      ****** ****** ****** ****** ****** ****** ****** ****** ****** ******
   6  ****** ****** ****** ****** ****** ****** ****** ****** ****** ******
      ****** ****** ****** ****** ****** ****** ****** ****** ****** ******
      ****** ****** ****** ****** ****** ****** ****** ****** ****** ******
   7  ****** ****** ****** ****** ****** ****** ****** ****** ****** ******
      ****** ****** ****** ****** ****** ****** ****** ****** ****** ******
      ****** ****** ****** ****** ****** ****** ****** ****** ****** ******
   8  ****** ****** ****** ****** ****** ****** ****** ****** ****** ******
      ****** ****** ****** ****** ****** ****** ****** ****** ****** ******
      ****** ****** ****** ****** ****** ****** ****** ****** ****** ******
   9  ****** ****** ****** ****** ****** ****** ****** ****** ****** ******
      ****** ****** ****** ****** ****** ****** ****** ****** ****** ******
      ****** ****** ****** ****** ****** ****** ****** ****** ****** ******
  10  ****** ****** ****** ****** ****** ****** ****** ****** ****** ******
      ****** ****** ****** ****** ****** ****** ****** ****** ****** ******
      ****** ****** ****** ****** ****** ****** ****** ****** ****** ******
  11  ****** ****** ****** ****** ****** ****** ****** ****** ****** ******
      ****** ****** ****** ****** ****** ****** ****** ****** ****** ******
      ****** ****** ****** ****** ****** ****** ****** ****** ****** ******
  12  ****** ****** ****** ****** ****** ****** ****** ****** ****** ******
      ****** ****** ****** ****** ****** ****** ****** ****** ****** ******
      ****** ****** ****** ****** ****** ****** ****** ****** ****** ******
  13  ****** ****** ****** ****** ****** ****** ****** ****** ****** ******
      ****** ****** ****** ****** ****** ****** ****** ****** ****** ******
      ****** ****** ****** ****** ****** ****** ****** ****** ****** ******
  14  ****** ****** ****** ****** ****** ****** ****** ****** ****** ******
      ****** ****** ****** ****** ****** ****** ****** ****** ****** ******
      ****** ****** ****** ****** ****** ****** ****** ****** ****** ******
  15  ****** ****** ****** ****** ****** ****** ****** ****** ****** ******
      ****** ****** ****** ****** ****** ****** ****** ****** ****** ******
      ****** ****** ****** ****** ****** ****** ****** ****** ****** ******
  16  ****** ****** ****** ****** ****** ****** ****** ****** ****** ******
      ****** ****** ****** ****** ****** ****** ****** ****** ****** ******
      ****** ****** ****** ****** ****** ****** ****** ****** ****** ******
  17  ****** ****** ****** ****** ****** ****** ****** ****** ****** ******
      ****** ****** ****** ****** ****** ****** ****** ****** ****** ******
      ****** ****** ****** ****** ****** ****** ****** ****** ****** ******
  18  ****** ****** ****** ****** ****** ****** ****** ****** ****** ******
      ****** ****** ****** ****** ****** ****** ****** ****** ****** ******
      ****** ****** ****** ****** ****** ****** ****** ****** ****** ******
  19  ****** ****** ****** ****** ****** ****** ****** ****** ****** ******
      ****** ****** ****** ****** ****** ****** ****** ****** ****** ******
      ****** ****** ****** ****** ****** ****** ****** ****** ****** ******
  20  ****** ****** ****** ****** ****** ****** ****** ****** ****** ******
      ****** ****** ****** ****** ****** ****** ****** ****** ****** ******
      ****** ****** ****** ****** ****** ****** ****** ****** ****** ******
  21  ****** ****** ****** ****** ****** ****** ****** ****** ****** ******
      ****** ****** ****** ****** ****** ****** ****** ****** ****** ******
      ****** ****** ****** ****** ****** ****** ****** ****** ****** ******
  22  ****** ****** ****** ****** ****** ****** ****** ****** ****** ******
      ****** ****** ****** ****** ****** ****** ****** ****** ****** ******
      ****** ****** ****** ****** ****** ****** ****** ****** ****** ******
  23  ****** ****** ****** ****** ****** ****** ****** ****** ****** ******
      ****** ****** ****** ****** ****** ****** ****** ****** ****** ******
      ****** ****** ****** ****** ****** ****** ****** ****** ****** ******
  24  ****** ****** ****** ****** ****** ****** ****** ****** ****** ******
      ****** ****** ****** ****** ****** ****** ****** ****** ****** ******
      ****** ****** ****** ****** ****** ****** ****** ****** ****** ******
  25  ****** ****** ****** ****** ****** ****** ****** ****** ****** ******
      ****** ****** ****** ****** ****** ****** ****** ****** ****** ******
      ****** ****** ****** ****** ****** ****** ****** ****** ****** ******

 HEAD WILL BE SAVED ON UNIT   51 AT END OF TIME STEP    1, STRESS PERIOD   11
1
  VOLUMETRIC BUDGET FOR ENTIRE MODEL AT END OF TIME STEP    1, STRESS PERIOD  11
  ------------------------------------------------------------------------------

     CUMULATIVE VOLUMES      L**3       RATES FOR THIS TIME STEP      L**3/T
     ------------------                 ------------------------

           IN:                                      IN:
           ---                                      ---
             STORAGE =    37593826.0380               STORAGE =       18099.2124
       CONSTANT HEAD =    31128724.2720         CONSTANT HEAD =       37910.0044
               WELLS =           0.0000                 WELLS =           0.0000
            RECHARGE =    23901600.0000              RECHARGE =           0.0000
      STREAM LEAKAGE =     7935892.8311        STREAM LEAKAGE =       10338.1510

            TOTAL IN =   100560043.1411              TOTAL IN =       66347.3677

          OUT:                                     OUT:
          ----                                     ----
             STORAGE =     2229345.6147               STORAGE =           0.0000
       CONSTANT HEAD =           0.0000         CONSTANT HEAD =           0.0000
               WELLS =    31586622.6557                 WELLS =       31460.7795
            RECHARGE =           0.0000              RECHARGE =           0.0000
      STREAM LEAKAGE =    66744076.9467        STREAM LEAKAGE =       34886.5932

           TOTAL OUT =   100560045.2171             TOTAL OUT =       66347.3727

            IN - OUT =          -2.0761              IN - OUT =      -4.9961E-03

 PERCENT DISCREPANCY =          -0.00     PERCENT DISCREPANCY =          -0.00






         TIME SUMMARY AT END OF TIME STEP    1 IN STRESS PERIOD   11
                    SECONDS     MINUTES      HOURS       DAYS        YEARS
                    -----------------------------------------------------------
   TIME STEP LENGTH 7.86240E+06 1.31040E+05  2184.0      91.000     0.24914    
 STRESS PERIOD TIME 7.86240E+06 1.31040E+05  2184.0      91.000     0.24914    
         TOTAL TIME 8.67456E+07 1.44576E+06  24096.      1004.0      2.7488    
1
1
                            STRESS PERIOD NO.   12, LENGTH =   91.00000    
                            -----------------------------------------------

                              NUMBER OF TIME STEPS =     1

                               MULTIPLIER FOR DELT =     1.500

                            INITIAL TIME STEP SIZE =   91.00000    

 WELL NO.  LAYER   ROW   COL   STRESS RATE         
 --------------------------------------------------
      1      1     20     21      -6420.    
      2      1     18     16     -0.1266E+05
      3      1     20     18      -5517.    
      4      1      4      9      -6868.    

      4 WELLS

                 RECHARGE =  1.000000E-03

 REUSING STREAM SEGMENT DATA FROM LAST STRESS PERIOD
 
 SOLVING FOR HEAD 


     7 CALLS TO PCG ROUTINE FOR TIME STEP   1 IN STRESS PERIOD   12
    24 TOTAL ITERATIONS

 OUTPUT CONTROL FOR STRESS PERIOD   12   TIME STEP    1
    SAVE BUDGET
    SAVE HEAD FOR ALL LAYERS
    PRINT HEAD FOR ALL LAYERS
 UBDSV2 SAVING "STREAMFLOW OUT  " ON UNIT  50 AT TIME STEP  1, STRESS PERIOD  12



 STREAM LISTING     PERIOD     12   STEP        1

 LAYER ROW COL. STREAM  RCH.  FLOW INTO     FLOW TO   FLOW OUT OF   OVRLND.     DIRECT     STREAM       STREAM     STREAM     STREAM   STREAMBED  STREAMBED
                SEG.NO.  NO.  STRM. RCH.    AQUIFER    STRM. RCH.    RUNOFF     PRECIP       ET          HEAD       DEPTH      WIDTH   CONDCTNC.   GRADIENT

   1   13    1     1     1    1.0000E+05 -1.1972E+03   1.0120E+05  0.000E+00  0.000E+00  0.000E+00  4.84065E+01  1.452E-01  2.000E+01  2.000E+04 -5.986E-02
   1   13    2     1     2    1.0120E+05 -2.0939E+03   1.0329E+05  0.000E+00  0.000E+00  0.000E+00  4.79307E+01  1.466E-01  2.000E+01  2.000E+04 -1.047E-01
   1   14    3     1     3    1.0329E+05 -3.8000E+02   1.0367E+05  0.000E+00  0.000E+00  0.000E+00  4.74545E+01  1.477E-01  2.000E+01  2.000E+04 -1.900E-02
   1   15    4     1     4    1.0367E+05 -3.5824E+02   1.0403E+05  0.000E+00  0.000E+00  0.000E+00  4.69775E+01  1.480E-01  2.000E+01  2.000E+04 -1.791E-02
   1   16    5     1     5    1.0403E+05 -1.3011E+03   1.0533E+05  0.000E+00  0.000E+00  0.000E+00  4.65009E+01  1.487E-01  2.000E+01  2.000E+04 -6.505E-02
   1   16    6     1     6    1.0533E+05 -7.8768E+02   1.0612E+05  0.000E+00  0.000E+00  0.000E+00  4.60246E+01  1.496E-01  2.000E+01  2.000E+04 -3.938E-02
   1   16    7     1     7    1.0612E+05 -7.2616E+02   1.0684E+05  0.000E+00  0.000E+00  0.000E+00  4.55479E+01  1.502E-01  2.000E+01  2.000E+04 -3.631E-02
   1   16    8     1     8    1.0684E+05 -6.5619E+02   1.0750E+05  0.000E+00  0.000E+00  0.000E+00  4.50712E+01  1.508E-01  2.000E+01  2.000E+04 -3.281E-02
   1   16    9     1     9    1.0750E+05 -5.5387E+02   1.0805E+05  0.000E+00  0.000E+00  0.000E+00  4.45945E+01  1.513E-01  2.000E+01  2.000E+04 -2.769E-02
   1   16   10     1    10    1.0805E+05 -3.9984E+02   1.0845E+05  0.000E+00  0.000E+00  0.000E+00  4.41176E+01  1.517E-01  2.000E+01  2.000E+04 -1.999E-02
   1   16   11     1    11    1.0845E+05 -1.5004E+02   1.0860E+05  0.000E+00  0.000E+00  0.000E+00  4.36406E+01  1.519E-01  2.000E+01  2.000E+04 -7.502E-03
   1   16   12     1    12    1.0860E+05  5.5410E+02   1.0805E+05  0.000E+00  0.000E+00  0.000E+00  4.31631E+01  1.518E-01  2.000E+01  2.000E+04  2.771E-02
   1   15   13     1    13    1.0805E+05  5.3949E+02   1.0751E+05  0.000E+00  0.000E+00  0.000E+00  4.26854E+01  1.513E-01  2.000E+01  2.000E+04  2.697E-02
   1   14   14     1    14    1.0751E+05  9.6936E+01   1.0741E+05  0.000E+00  0.000E+00  0.000E+00  4.22079E+01  1.510E-01  2.000E+01  2.000E+04  4.847E-03
   1   13   15     1    15    1.0741E+05 -5.8582E+02   1.0800E+05  0.000E+00  0.000E+00  0.000E+00  4.17308E+01  1.512E-01  2.000E+01  2.000E+04 -2.929E-02
   1   12   16     1    16    1.0800E+05 -1.8012E+03   1.0980E+05  0.000E+00  0.000E+00  0.000E+00  4.12545E+01  1.522E-01  2.000E+01  2.000E+04 -9.006E-02
   1   12   17     1    17    1.0980E+05 -9.7418E+02   1.1077E+05  0.000E+00  0.000E+00  0.000E+00  4.07784E+01  1.534E-01  2.000E+01  2.000E+04 -4.871E-02
   1   12   18     1    18    1.1077E+05 -9.6250E+02   1.1174E+05  0.000E+00  0.000E+00  0.000E+00  4.03019E+01  1.542E-01  2.000E+01  2.000E+04 -4.813E-02
   1   12   19     1    19    1.1174E+05 -1.6629E+03   1.1340E+05  0.000E+00  0.000E+00  0.000E+00  3.98258E+01  1.553E-01  2.000E+01  2.000E+04 -8.314E-02
   1   13   20     1    20    1.1340E+05 -4.5852E+02   1.1386E+05  0.000E+00  0.000E+00  0.000E+00  3.93494E+01  1.562E-01  2.000E+01  2.000E+04 -2.293E-02
   1   14   21     1    21    1.1386E+05  6.3062E+02   1.1323E+05  0.000E+00  0.000E+00  0.000E+00  3.88720E+01  1.561E-01  2.000E+01  2.000E+04  3.153E-02
   1   14   22     1    22    1.1323E+05  5.1840E+03   1.0804E+05  0.000E+00  0.000E+00  0.000E+00  3.83923E+01  1.537E-01  2.000E+01  2.000E+04  2.592E-01
   1    9   30     2     1    5.0000E+04 -6.4394E+02   5.0644E+04  0.000E+00  0.000E+00  0.000E+00  4.02413E+01  1.163E-01  2.000E+01  2.000E+04 -3.220E-02
   1    9   29     2     2    5.0644E+04 -9.3884E+02   5.1583E+04  0.000E+00  0.000E+00  0.000E+00  3.99924E+01  1.174E-01  2.000E+01  2.000E+04 -4.694E-02
   1    9   28     2     3    5.1583E+04 -1.1825E+03   5.2765E+04  0.000E+00  0.000E+00  0.000E+00  3.97439E+01  1.189E-01  2.000E+01  2.000E+04 -5.912E-02
   1    9   27     2     4    5.2765E+04 -2.3786E+03   5.5144E+04  0.000E+00  0.000E+00  0.000E+00  3.94963E+01  1.213E-01  2.000E+01  2.000E+04 -1.189E-01
   1   10   26     2     5    5.5144E+04 -1.6027E+03   5.6747E+04  0.000E+00  0.000E+00  0.000E+00  3.92489E+01  1.239E-01  2.000E+01  2.000E+04 -8.014E-02
   1   11   25     2     6    5.6747E+04 -1.4039E+03   5.8150E+04  0.000E+00  0.000E+00  0.000E+00  3.90009E+01  1.259E-01  2.000E+01  2.000E+04 -7.019E-02
   1   12   24     2     7    5.8150E+04 -1.4650E+03   5.9615E+04  0.000E+00  0.000E+00  0.000E+00  3.87528E+01  1.278E-01  2.000E+01  2.000E+04 -7.325E-02
   1   13   23     2     8    5.9615E+04 -2.4897E+02   5.9864E+04  0.000E+00  0.000E+00  0.000E+00  3.85039E+01  1.289E-01  2.000E+01  2.000E+04 -1.245E-02
   1   14   22     2     9    5.9864E+04  2.3881E+03   5.7476E+04  0.000E+00  0.000E+00  0.000E+00  3.82525E+01  1.275E-01  2.000E+01  2.000E+04  1.194E-01
   1   14   22     3     1    1.6552E+05 -8.2549E+03   1.7378E+05  0.000E+00  0.000E+00  0.000E+00  3.77204E+01  1.648E-01  2.000E+01  2.000E+04 -4.127E-01
   1   15   23     3     2    1.7378E+05 -1.0144E+02   1.7388E+05  0.000E+00  0.000E+00  0.000E+00  3.68339E+01  1.673E-01  2.000E+01  2.000E+04 -5.072E-03
   1   15   24     3     3    1.7388E+05 -1.4787E+02   1.7402E+05  0.000E+00  0.000E+00  0.000E+00  3.59451E+01  1.673E-01  2.000E+01  2.000E+04 -7.393E-03
   1   15   25     3     4    1.7402E+05 -1.8464E+02   1.7421E+05  0.000E+00  0.000E+00  0.000E+00  3.50563E+01  1.674E-01  2.000E+01  2.000E+04 -9.232E-03
   1   15   26     3     5    1.7421E+05 -2.8200E+02   1.7449E+05  0.000E+00  0.000E+00  0.000E+00  3.41676E+01  1.676E-01  2.000E+01  2.000E+04 -1.410E-02
   1   16   27     3     6    1.7449E+05 -2.6940E+02   1.7476E+05  0.000E+00  0.000E+00  0.000E+00  3.32788E+01  1.677E-01  2.000E+01  2.000E+04 -1.347E-02
   1   17   28     3     7    1.7476E+05 -1.1423E+03   1.7590E+05  0.000E+00  0.000E+00  0.000E+00  3.23903E+01  1.681E-01  2.000E+01  2.000E+04 -5.712E-02
   1   18   29     3     8    1.7590E+05 -1.9558E+03   1.7786E+05  0.000E+00  0.000E+00  0.000E+00  3.15023E+01  1.690E-01  2.000E+01  2.000E+04 -9.779E-02
   1   18   30     3     9    1.7786E+05 -2.6193E+03   1.8048E+05  0.000E+00  0.000E+00  0.000E+00  3.06148E+01  1.703E-01  2.000E+01  2.000E+04 -1.310E-01



1
              HEAD IN LAYER   1 AT END OF TIME STEP   1 IN STRESS PERIOD   12
  ---------------------------------------------------------------------------

          1      2      3      4      5      6      7      8      9     10
         11     12     13     14     15     16     17     18     19     20
         21     22     23     24     25     26     27     28     29     30
 .........................................................................
   1  ****** ****** ****** ****** ****** ****** ****** ****** ****** ******
      ****** ****** ****** ****** ****** ****** ****** ****** ****** ******
      ****** ****** ****** ****** ****** ****** ****** ****** ****** ******
   2  ****** ****** ****** ****** ****** ****** ****** ****** ****** ******
      ****** ****** ****** ****** ****** ****** ****** ****** ****** ******
      ****** ****** ****** ****** ****** ****** ****** ****** ****** ******
   3  ****** ****** ****** ****** ****** ****** ****** ****** ****** ******
      ****** ****** ****** ****** ****** ****** ****** ****** ****** ******
      ****** ****** ****** ****** ****** ****** ****** ****** ****** ******
   4  ****** ****** ****** ****** ****** ****** ****** ****** ****** ******
      ****** ****** ****** ****** ****** ****** ****** ****** ****** ******
      ****** ****** ****** ****** ****** ****** ****** ****** ****** ******
   5  ****** ****** ****** ****** ****** ****** ****** ****** ****** ******
      ****** ****** ****** ****** ****** ****** ****** ****** ****** ******
      ****** ****** ****** ****** ****** ****** ****** ****** ****** ******
   6  ****** ****** ****** ****** ****** ****** ****** ****** ****** ******
      ****** ****** ****** ****** ****** ****** ****** ****** ****** ******
      ****** ****** ****** ****** ****** ****** ****** ****** ****** ******
   7  ****** ****** ****** ****** ****** ****** ****** ****** ****** ******
      ****** ****** ****** ****** ****** ****** ****** ****** ****** ******
      ****** ****** ****** ****** ****** ****** ****** ****** ****** ******
   8  ****** ****** ****** ****** ****** ****** ****** ****** ****** ******
      ****** ****** ****** ****** ****** ****** ****** ****** ****** ******
      ****** ****** ****** ****** ****** ****** ****** ****** ****** ******
   9  ****** ****** ****** ****** ****** ****** ****** ****** ****** ******
      ****** ****** ****** ****** ****** ****** ****** ****** ****** ******
      ****** ****** ****** ****** ****** ****** ****** ****** ****** ******
  10  ****** ****** ****** ****** ****** ****** ****** ****** ****** ******
      ****** ****** ****** ****** ****** ****** ****** ****** ****** ******
      ****** ****** ****** ****** ****** ****** ****** ****** ****** ******
  11  ****** ****** ****** ****** ****** ****** ****** ****** ****** ******
      ****** ****** ****** ****** ****** ****** ****** ****** ****** ******
      ****** ****** ****** ****** ****** ****** ****** ****** ****** ******
  12  ****** ****** ****** ****** ****** ****** ****** ****** ****** ******
      ****** ****** ****** ****** ****** ****** ****** ****** ****** ******
      ****** ****** ****** ****** ****** ****** ****** ****** ****** ******
  13  ****** ****** ****** ****** ****** ****** ****** ****** ****** ******
      ****** ****** ****** ****** ****** ****** ****** ****** ****** ******
      ****** ****** ****** ****** ****** ****** ****** ****** ****** ******
  14  ****** ****** ****** ****** ****** ****** ****** ****** ****** ******
      ****** ****** ****** ****** ****** ****** ****** ****** ****** ******
      ****** ****** ****** ****** ****** ****** ****** ****** ****** ******
  15  ****** ****** ****** ****** ****** ****** ****** ****** ****** ******
      ****** ****** ****** ****** ****** ****** ****** ****** ****** ******
      ****** ****** ****** ****** ****** ****** ****** ****** ****** ******
  16  ****** ****** ****** ****** ****** ****** ****** ****** ****** ******
      ****** ****** ****** ****** ****** ****** ****** ****** ****** ******
      ****** ****** ****** ****** ****** ****** ****** ****** ****** ******
  17  ****** ****** ****** ****** ****** ****** ****** ****** ****** ******
      ****** ****** ****** ****** ****** ****** ****** ****** ****** ******
      ****** ****** ****** ****** ****** ****** ****** ****** ****** ******
  18  ****** ****** ****** ****** ****** ****** ****** ****** ****** ******
      ****** ****** ****** ****** ****** ****** ****** ****** ****** ******
      ****** ****** ****** ****** ****** ****** ****** ****** ****** ******
  19  ****** ****** ****** ****** ****** ****** ****** ****** ****** ******
      ****** ****** ****** ****** ****** ****** ****** ****** ****** ******
      ****** ****** ****** ****** ****** ****** ****** ****** ****** ******
  20  ****** ****** ****** ****** ****** ****** ****** ****** ****** ******
      ****** ****** ****** ****** ****** ****** ****** ****** ****** ******
      ****** ****** ****** ****** ****** ****** ****** ****** ****** ******
  21  ****** ****** ****** ****** ****** ****** ****** ****** ****** ******
      ****** ****** ****** ****** ****** ****** ****** ****** ****** ******
      ****** ****** ****** ****** ****** ****** ****** ****** ****** ******
  22  ****** ****** ****** ****** ****** ****** ****** ****** ****** ******
      ****** ****** ****** ****** ****** ****** ****** ****** ****** ******
      ****** ****** ****** ****** ****** ****** ****** ****** ****** ******
  23  ****** ****** ****** ****** ****** ****** ****** ****** ****** ******
      ****** ****** ****** ****** ****** ****** ****** ****** ****** ******
      ****** ****** ****** ****** ****** ****** ****** ****** ****** ******
  24  ****** ****** ****** ****** ****** ****** ****** ****** ****** ******
      ****** ****** ****** ****** ****** ****** ****** ****** ****** ******
      ****** ****** ****** ****** ****** ****** ****** ****** ****** ******
  25  ****** ****** ****** ****** ****** ****** ****** ****** ****** ******
      ****** ****** ****** ****** ****** ****** ****** ****** ****** ******
      ****** ****** ****** ****** ****** ****** ****** ****** ****** ******

 HEAD WILL BE SAVED ON UNIT   51 AT END OF TIME STEP    1, STRESS PERIOD   12
1
  VOLUMETRIC BUDGET FOR ENTIRE MODEL AT END OF TIME STEP    1, STRESS PERIOD  12
  ------------------------------------------------------------------------------

     CUMULATIVE VOLUMES      L**3       RATES FOR THIS TIME STEP      L**3/T
     ------------------                 ------------------------

           IN:                                      IN:
           ---                                      ---
             STORAGE =    37596878.6407               STORAGE =          33.5451
       CONSTANT HEAD =    34516398.3356         CONSTANT HEAD =       37227.1875
               WELLS =           0.0000                 WELLS =           0.0000
            RECHARGE =    26413200.0000              RECHARGE =       27600.0000
      STREAM LEAKAGE =     8790679.1160        STREAM LEAKAGE =        9393.2559

            TOTAL IN =   107317156.0923              TOTAL IN =       74253.9885

          OUT:                                     OUT:
          ----                                     ----
             STORAGE =     2495230.0690               STORAGE =        2921.8072
       CONSTANT HEAD =           0.0000         CONSTANT HEAD =           0.0000
               WELLS =    34449553.5936                 WELLS =       31460.7795
            RECHARGE =           0.0000              RECHARGE =           0.0000
      STREAM LEAKAGE =    70372374.4194        STREAM LEAKAGE =       39871.4008

           TOTAL OUT =   107317158.0820             TOTAL OUT =       74253.9875

            IN - OUT =          -1.9897              IN - OUT =       9.4875E-04

 PERCENT DISCREPANCY =          -0.00     PERCENT DISCREPANCY =           0.00






         TIME SUMMARY AT END OF TIME STEP    1 IN STRESS PERIOD   12
                    SECONDS     MINUTES      HOURS       DAYS        YEARS
                    -----------------------------------------------------------
   TIME STEP LENGTH 7.86240E+06 1.31040E+05  2184.0      91.000     0.24914    
 STRESS PERIOD TIME 7.86240E+06 1.31040E+05  2184.0      91.000     0.24914    
         TOTAL TIME 9.46080E+07 1.57680E+06  26280.      1095.0      2.9979    
1

 Run end date and time (yyyy/mm/dd hh:mm:ss): 2019/08/27 21:01:18
 Elapsed run time:  0.044 Seconds

