                                  MODFLOW-2005     
      U.S. GEOLOGICAL SURVEY MODULAR FINITE-DIFFERENCE GROUND-WATER FLOW MODEL
                            VERSION 1.11.00 8/8/2013

 LIST FILE: supply2.lst
                         UNIT   10

 OPENING ..\data\supply.dis
 FILE TYPE:DIS   UNIT   11   STATUS:OLD    
 FORMAT:FORMATTED              ACCESS:SEQUENTIAL          

 OPENING ..\data\supply.ba6
 FILE TYPE:BAS6   UNIT   12   STATUS:OLD    
 FORMAT:FORMATTED              ACCESS:SEQUENTIAL          

 OPENING ..\data\supply_het.bc6
 FILE TYPE:BCF6   UNIT   13   STATUS:OLD    
 FORMAT:FORMATTED              ACCESS:SEQUENTIAL          

 OPENING ..\data\supply.rch
 FILE TYPE:RCH   UNIT   15   STATUS:OLD    
 FORMAT:FORMATTED              ACCESS:SEQUENTIAL          

 OPENING ..\data\supply2.sfr
 FILE TYPE:SFR   UNIT   16   STATUS:OLD    
 FORMAT:FORMATTED              ACCESS:SEQUENTIAL          

 OPENING ..\data\supply.oc
 FILE TYPE:OC   UNIT   17   STATUS:OLD    
 FORMAT:FORMATTED              ACCESS:SEQUENTIAL          

 OPENING ..\data\supply.pcg
 FILE TYPE:PCG   UNIT   18   STATUS:OLD    
 FORMAT:FORMATTED              ACCESS:SEQUENTIAL          

 OPENING supply2.wel
 FILE TYPE:WEL   UNIT   19   STATUS:OLD    
 FORMAT:FORMATTED              ACCESS:SEQUENTIAL          

 OPENING supply2sf.cbc
 FILE TYPE:DATA(BINARY)   UNIT   50   STATUS:UNKNOWN
 FORMAT:BINARY                 ACCESS:SEQUENTIAL          

 OPENING supply2hd.bhd
 FILE TYPE:DATA(BINARY)   UNIT   51   STATUS:UNKNOWN
 FORMAT:BINARY                 ACCESS:SEQUENTIAL          

 BAS -- BASIC PACKAGE, VERSION 7, 5/2/2005 INPUT READ FROM UNIT   12
 
 MODFLOW was compiled using uniform precision
 Precision of REAL and DOUBLE PRECISION variables:          15

 DISCRETIZATION INPUT DATA READ FROM UNIT   11
    1 LAYERS        25 ROWS        30 COLUMNS
   12 STRESS PERIOD(S) IN SIMULATION
 MODEL TIME UNIT IS DAYS
 MODEL LENGTH UNIT IS UNDEFINED
  Confining bed flag for each layer:
   0

                     DELR =   200.000    

                     DELC =   200.000    

 TOP ELEVATION OF LAYER 1 =  100.0000    

   MODEL LAYER BOTTOM EL. =   0.00000     FOR LAYER   1


 STRESS PERIOD     LENGTH       TIME STEPS     MULTIPLIER FOR DELT    SS FLAG
 ----------------------------------------------------------------------------
        1         92.00000          1                    1.500         TR
        2         91.00000          1                    1.500         TR
        3         91.00000          1                    1.500         TR
        4         91.00000          1                    1.500         TR
        5         92.00000          1                    1.500         TR
        6         91.00000          1                    1.500         TR
        7         91.00000          1                    1.500         TR
        8         91.00000          1                    1.500         TR
        9         92.00000          1                    1.500         TR
       10         91.00000          1                    1.500         TR
       11         91.00000          1                    1.500         TR
       12         91.00000          1                    1.500         TR

 TRANSIENT SIMULATION



 
 #MODOFC transient water supply sample problem                                   
 #                                                                               
 THE FREE FORMAT OPTION HAS BEEN SELECTED



                     BOUNDARY ARRAY FOR LAYER   1
 READING ON UNIT   12 WITH FORMAT: (20I4)              

 AQUIFER HEAD WILL BE SET TO   0.0000     AT ALL NO-FLOW NODES (IBOUND=0).



                       INITIAL HEAD FOR LAYER   1
 READING ON UNIT   12 WITH FORMAT: (10F13.0)           

 OUTPUT CONTROL IS SPECIFIED ONLY AT TIME STEPS FOR WHICH OUTPUT IS DESIRED
 COMPACT CELL-BY-CELL BUDGET FILES WILL BE WRITTEN
 HEAD PRINT FORMAT CODE IS  18    DRAWDOWN PRINT FORMAT CODE IS   0
 HEADS WILL BE SAVED ON UNIT   51    DRAWDOWNS WILL BE SAVED ON UNIT    0

 BCF -- BLOCK-CENTERED FLOW PACKAGE, VERSION 7, 5/2/2005
         INPUT READ FROM UNIT 13
 TRANSIENT SIMULATION
 HEAD AT CELLS THAT CONVERT TO DRY=   0.0000    
 WETTING CAPABILITY IS NOT ACTIVE
      LAYER  LAYER-TYPE CODE     INTERBLOCK T
      --------------------------------------------
         1            0          0 -- HARMONIC    

 COLUMN TO ROW ANISOTROPY =  1.000000    

     PRIMARY STORAGE COEF =  5.000000E-02 FOR LAYER   1



               TRANSMIS. ALONG ROWS FOR LAYER   1
 READING ON UNIT   13 WITH FORMAT: (FREE)              

 WEL -- WELL PACKAGE, VERSION 7, 5/2/2005 INPUT READ FROM UNIT   19
 # Well package input file written by MMProc
 No named parameters
 MAXIMUM OF      4 ACTIVE WELLS AT ONE TIME


     0 Well parameters

 RCH -- RECHARGE PACKAGE, VERSION 7, 5/2/2005 INPUT READ FROM UNIT   15
 No named parameters
 OPTION 1 -- RECHARGE TO TOP LAYER


     0 Recharge parameters

 SFR7 -- STREAMFLOW ROUTING PACKAGE, VERSION 1.0.7, 2013-01-15
         INPUT READ FROM UNIT  16
 #  Supply2 test problem for GWM-VI
 #  The eighth entry in the first data line is ISTCB2 -
 #    Setting this to a negative number indicates that
 #    streamflows out of the reach will be saved to a
 #    binary file.  The absolute value of ISTCB2 is the
 #    unit to which unformatted flows will be written.
 #
 No named parameters
 Segment information will not be 
 read by reach
 No named parameters
 No specifed inflow files


 NUMBER OF STREAM REACHES IS   40

 NUMBER OF STREAM SEGMENTS IS    3

 NUMBER OF STREAM PARAMETERS IS    0

 NUMBER OF STREAM SEGMENTS DEFINED USING PARAMETERS IS              0

 MAXIMUM ERROR FOR STREAM LEAKAGE RATES IS  1.00E-04

 CONSTANT FOR MANNINGS EQUATION IS  1.2839E+05





   STREAM NETWORK DESCRIPTION: 

   LAYER    ROW    COL   SEGMENT   REACH     LENGTH
                          NUMBER   NUMBER    IN CELL        
   --------------------------------------------------
      1     13      1       1        1    2.0000E+02
      1     13      2       1        2    2.0000E+02
      1     14      3       1        3    2.0000E+02
      1     15      4       1        4    2.0000E+02
      1     16      5       1        5    2.0000E+02
      1     16      6       1        6    2.0000E+02
      1     16      7       1        7    2.0000E+02
      1     16      8       1        8    2.0000E+02
      1     16      9       1        9    2.0000E+02
      1     16     10       1       10    2.0000E+02
      1     16     11       1       11    2.0000E+02
      1     16     12       1       12    2.0000E+02
      1     15     13       1       13    2.0000E+02
      1     14     14       1       14    2.0000E+02
      1     13     15       1       15    2.0000E+02
      1     12     16       1       16    2.0000E+02
      1     12     17       1       17    2.0000E+02
      1     12     18       1       18    2.0000E+02
      1     12     19       1       19    2.0000E+02
      1     13     20       1       20    2.0000E+02
      1     14     21       1       21    2.0000E+02
      1     14     22       1       22    2.0000E+02
      1      9     30       2        1    2.0000E+02
      1      9     29       2        2    2.0000E+02
      1      9     28       2        3    2.0000E+02
      1      9     27       2        4    2.0000E+02
      1     10     26       2        5    2.0000E+02
      1     11     25       2        6    2.0000E+02
      1     12     24       2        7    2.0000E+02
      1     13     23       2        8    2.0000E+02
      1     14     22       2        9    2.0000E+02
      1     14     22       3        1    2.0000E+02
      1     15     23       3        2    2.0000E+02
      1     15     24       3        3    2.0000E+02
      1     15     25       3        4    2.0000E+02
      1     15     26       3        5    2.0000E+02
      1     16     27       3        6    2.0000E+02
      1     17     28       3        7    2.0000E+02
      1     18     29       3        8    2.0000E+02
      1     18     30       3        9    2.0000E+02




 PCG -- CONJUGATE-GRADIENT SOLUTION PACKAGE, VERSION 7, 5/2/2005
 MAXIMUM OF    500 CALLS OF SOLUTION ROUTINE
 MAXIMUM OF      5 INTERNAL ITERATIONS PER CALL TO SOLUTION ROUTINE
 MATRIX PRECONDITIONING TYPE :    1



                                    SOLUTION BY THE CONJUGATE-GRADIENT METHOD
                                   -------------------------------------------
                    MAXIMUM NUMBER OF CALLS TO PCG ROUTINE =      500
                        MAXIMUM ITERATIONS PER CALL TO PCG =        5
                               MATRIX PRECONDITIONING TYPE =        1
        RELAXATION FACTOR (ONLY USED WITH PRECOND. TYPE 1) =    0.10000E+01
 PARAMETER OF POLYNOMIAL PRECOND. = 2 (2) OR IS CALCULATED :        0
                         HEAD CHANGE CRITERION FOR CLOSURE =    0.10000E-05
                     RESIDUAL CHANGE CRITERION FOR CLOSURE =    0.10000E+01
            PCG HEAD AND RESIDUAL CHANGE PRINTOUT INTERVAL =        1
     PRINTING FROM SOLVER IS LIMITED(1) OR SUPPRESSED (>1) =        1
                            STEADY-STATE DAMPING PARAMETER =    0.10000E+01
                               TRANSIENT DAMPING PARAMETER =    0.10000E+01
1
                            STRESS PERIOD NO.    1, LENGTH =   92.00000    
                            -----------------------------------------------

                              NUMBER OF TIME STEPS =     1

                               MULTIPLIER FOR DELT =     1.500

                            INITIAL TIME STEP SIZE =   92.00000    

 WELL NO.  LAYER   ROW   COL   STRESS RATE         
 --------------------------------------------------
      1      1     17     24      -1629.    
      2      1      9     25     -0.1155E+05
      3      1      8     20      -8674.    
      4      1     10     13     -0.1380E+05

      4 WELLS

                 RECHARGE =  5.000000E-04



 CLASSIFICATION & COUNT OF STREAM SEGMENTS BASED ON SOURCE OF INFLOW:

                HEADWATER     DIVERSION     RECEIVES TRIBUTARY FLOW
                ---------     ---------     -----------------------
                     2              0               1



                    INPUT DATA FOR EACH STREAM SEGMENT
 ---------------------------------------------------------------------------------------------

 SEGMENT    SEG.     INFLOW   OVERLAND   STREAM    STREAM   ICALC  OUTFLOW  DIVERSION PRIORITY
    NO.    LENGTH     RATE     RUNOFF      ET       PPT.    METH.  TO SEG.  FROM SEG.    NO.

      1  4.400E+03 1.000E+05 0.000E+00 0.000E+00 0.000E+00    1        3        0        0
      2  1.800E+03 5.000E+04 0.000E+00 0.000E+00 0.000E+00    1        3        0        0
      3  1.800E+03 0.000E+00 0.000E+00 0.000E+00 0.000E+00    1        0        0        0


         STREAMBED PROPERTIES AND STREAM DIMENSIONS

 SEGMENT     BED HYD. COND.      BED THICKNESS     ELEV.-TOP OF BED     WIDTH OF STREAM     DEPTH OF STREAM    STREAM ROUGHNESS
    No.     UPPER     LOWER     UPPER     LOWER     UPPER     LOWER     UPPER     LOWER     UPPER     LOWER   CHANNEL      BANK

     1  5.000E+00 5.000E+00 1.000E+00 1.000E+00 4.850E+01 3.800E+01 2.000E+01 2.000E+01                     5.000E-02
     2  5.000E+00 5.000E+00 1.000E+00 1.000E+00 4.025E+01 3.800E+01 2.000E+01 2.000E+01                     5.000E-02
     3  5.000E+00 5.000E+00 1.000E+00 1.000E+00 3.800E+01 3.000E+01 2.000E+01 2.000E+01                     5.000E-02



 
 SOLVING FOR HEAD 


     9 CALLS TO PCG ROUTINE FOR TIME STEP   1 IN STRESS PERIOD    1
    36 TOTAL ITERATIONS

 OUTPUT CONTROL FOR STRESS PERIOD    1   TIME STEP    1
    SAVE BUDGET
    SAVE HEAD FOR ALL LAYERS
    PRINT HEAD FOR ALL LAYERS
 UBDSV2 SAVING "STREAMFLOW OUT  " ON UNIT  50 AT TIME STEP  1, STRESS PERIOD   1



 STREAM LISTING     PERIOD      1   STEP        1

 LAYER ROW COL. STREAM  RCH.  FLOW INTO     FLOW TO   FLOW OUT OF   OVRLND.     DIRECT     STREAM       STREAM     STREAM     STREAM   STREAMBED  STREAMBED
                SEG.NO.  NO.  STRM. RCH.    AQUIFER    STRM. RCH.    RUNOFF     PRECIP       ET          HEAD       DEPTH      WIDTH   CONDCTNC.   GRADIENT

   1   13    1     1     1    1.0000E+05 -6.1008E+03   1.0610E+05  0.000E+00  0.000E+00  0.000E+00  4.84086E+01  1.473E-01  2.000E+01  2.000E+04 -3.050E-01
   1   13    2     1     2    1.0610E+05 -7.5690E+03   1.1367E+05  0.000E+00  0.000E+00  0.000E+00  4.79372E+01  1.531E-01  2.000E+01  2.000E+04 -3.785E-01
   1   14    3     1     3    1.1367E+05 -2.1975E+03   1.1587E+05  0.000E+00  0.000E+00  0.000E+00  4.74639E+01  1.571E-01  2.000E+01  2.000E+04 -1.099E-01
   1   15    4     1     4    1.1587E+05 -2.2692E+03   1.1814E+05  0.000E+00  0.000E+00  0.000E+00  4.69885E+01  1.589E-01  2.000E+01  2.000E+04 -1.135E-01
   1   16    5     1     5    1.1814E+05 -7.1857E+03   1.2532E+05  0.000E+00  0.000E+00  0.000E+00  4.65150E+01  1.628E-01  2.000E+01  2.000E+04 -3.593E-01
   1   16    6     1     6    1.2532E+05 -4.3032E+03   1.2963E+05  0.000E+00  0.000E+00  0.000E+00  4.60423E+01  1.673E-01  2.000E+01  2.000E+04 -2.152E-01
   1   16    7     1     7    1.2963E+05 -4.1370E+03   1.3376E+05  0.000E+00  0.000E+00  0.000E+00  4.55684E+01  1.706E-01  2.000E+01  2.000E+04 -2.069E-01
   1   16    8     1     8    1.3376E+05 -4.0942E+03   1.3786E+05  0.000E+00  0.000E+00  0.000E+00  4.50943E+01  1.738E-01  2.000E+01  2.000E+04 -2.047E-01
   1   16    9     1     9    1.3786E+05 -4.0798E+03   1.4194E+05  0.000E+00  0.000E+00  0.000E+00  4.46201E+01  1.769E-01  2.000E+01  2.000E+04 -2.040E-01
   1   16   10     1    10    1.4194E+05 -4.0705E+03   1.4601E+05  0.000E+00  0.000E+00  0.000E+00  4.41459E+01  1.800E-01  2.000E+01  2.000E+04 -2.035E-01
   1   16   11     1    11    1.4601E+05 -4.0915E+03   1.5010E+05  0.000E+00  0.000E+00  0.000E+00  4.36717E+01  1.831E-01  2.000E+01  2.000E+04 -2.046E-01
   1   16   12     1    12    1.5010E+05 -6.8035E+03   1.5690E+05  0.000E+00  0.000E+00  0.000E+00  4.31984E+01  1.871E-01  2.000E+01  2.000E+04 -3.402E-01
   1   15   13     1    13    1.5690E+05 -6.6875E+03   1.6359E+05  0.000E+00  0.000E+00  0.000E+00  4.27260E+01  1.920E-01  2.000E+01  2.000E+04 -3.344E-01
   1   14   14     1    14    1.6359E+05 -6.7192E+03   1.7031E+05  0.000E+00  0.000E+00  0.000E+00  4.22535E+01  1.967E-01  2.000E+01  2.000E+04 -3.360E-01
   1   13   15     1    15    1.7031E+05 -6.6930E+03   1.7700E+05  0.000E+00  0.000E+00  0.000E+00  4.17810E+01  2.014E-01  2.000E+01  2.000E+04 -3.347E-01
   1   12   16     1    16    1.7700E+05 -7.0615E+03   1.8406E+05  0.000E+00  0.000E+00  0.000E+00  4.13085E+01  2.062E-01  2.000E+01  2.000E+04 -3.531E-01
   1   12   17     1    17    1.8406E+05 -5.5226E+03   1.8959E+05  0.000E+00  0.000E+00  0.000E+00  4.08355E+01  2.105E-01  2.000E+01  2.000E+04 -2.761E-01
   1   12   18     1    18    1.8959E+05 -5.4391E+03   1.9502E+05  0.000E+00  0.000E+00  0.000E+00  4.03619E+01  2.142E-01  2.000E+01  2.000E+04 -2.720E-01
   1   12   19     1    19    1.9502E+05 -6.6581E+03   2.0168E+05  0.000E+00  0.000E+00  0.000E+00  3.98886E+01  2.182E-01  2.000E+01  2.000E+04 -3.329E-01
   1   13   20     1    20    2.0168E+05 -6.3172E+03   2.0800E+05  0.000E+00  0.000E+00  0.000E+00  3.94156E+01  2.224E-01  2.000E+01  2.000E+04 -3.159E-01
   1   14   21     1    21    2.0800E+05 -6.2102E+03   2.1421E+05  0.000E+00  0.000E+00  0.000E+00  3.89424E+01  2.265E-01  2.000E+01  2.000E+04 -3.105E-01
   1   14   22     1    22    2.1421E+05  3.7813E+03   2.1043E+05  0.000E+00  0.000E+00  0.000E+00  3.84659E+01  2.273E-01  2.000E+01  2.000E+04  1.891E-01
   1    9   30     2     1    5.0000E+04 -4.6736E+03   5.4674E+04  0.000E+00  0.000E+00  0.000E+00  4.02441E+01  1.191E-01  2.000E+01  2.000E+04 -2.337E-01
   1    9   29     2     2    5.4674E+04 -4.9176E+03   5.9591E+04  0.000E+00  0.000E+00  0.000E+00  4.00005E+01  1.255E-01  2.000E+01  2.000E+04 -2.459E-01
   1    9   28     2     3    5.9591E+04 -5.0323E+03   6.4624E+04  0.000E+00  0.000E+00  0.000E+00  3.97570E+01  1.320E-01  2.000E+01  2.000E+04 -2.516E-01
   1    9   27     2     4    6.4624E+04 -6.1195E+03   7.0743E+04  0.000E+00  0.000E+00  0.000E+00  3.95140E+01  1.390E-01  2.000E+01  2.000E+04 -3.060E-01
   1   10   26     2     5    7.0743E+04 -4.2339E+03   7.4977E+04  0.000E+00  0.000E+00  0.000E+00  3.92702E+01  1.452E-01  2.000E+01  2.000E+04 -2.117E-01
   1   11   25     2     6    7.4977E+04 -4.6245E+03   7.9601E+04  0.000E+00  0.000E+00  0.000E+00  3.90255E+01  1.505E-01  2.000E+01  2.000E+04 -2.312E-01
   1   12   24     2     7    7.9601E+04 -5.2749E+03   8.4876E+04  0.000E+00  0.000E+00  0.000E+00  3.87812E+01  1.562E-01  2.000E+01  2.000E+04 -2.637E-01
   1   13   23     2     8    8.4876E+04 -1.5340E+03   8.6410E+04  0.000E+00  0.000E+00  0.000E+00  3.85350E+01  1.600E-01  2.000E+01  2.000E+04 -7.670E-02
   1   14   22     2     9    8.6410E+04  1.7912E+02   8.6231E+04  0.000E+00  0.000E+00  0.000E+00  3.82858E+01  1.608E-01  2.000E+01  2.000E+04  8.956E-03
   1   14   22     3     1    2.9666E+05 -9.7702E+03   3.0643E+05  0.000E+00  0.000E+00  0.000E+00  3.77883E+01  2.328E-01  2.000E+01  2.000E+04 -4.885E-01
   1   15   23     3     2    3.0643E+05 -1.9224E+03   3.0835E+05  0.000E+00  0.000E+00  0.000E+00  3.69021E+01  2.355E-01  2.000E+01  2.000E+04 -9.612E-02
   1   15   24     3     3    3.0835E+05 -1.3885E+03   3.0974E+05  0.000E+00  0.000E+00  0.000E+00  3.60140E+01  2.362E-01  2.000E+01  2.000E+04 -6.942E-02
   1   15   25     3     4    3.0974E+05 -1.5041E+03   3.1125E+05  0.000E+00  0.000E+00  0.000E+00  3.51258E+01  2.369E-01  2.000E+01  2.000E+04 -7.520E-02
   1   15   26     3     5    3.1125E+05 -1.8527E+03   3.1310E+05  0.000E+00  0.000E+00  0.000E+00  3.42376E+01  2.376E-01  2.000E+01  2.000E+04 -9.263E-02
   1   16   27     3     6    3.1310E+05 -2.1224E+03   3.1522E+05  0.000E+00  0.000E+00  0.000E+00  3.33497E+01  2.386E-01  2.000E+01  2.000E+04 -1.061E-01
   1   17   28     3     7    3.1522E+05 -6.5412E+03   3.2176E+05  0.000E+00  0.000E+00  0.000E+00  3.24627E+01  2.405E-01  2.000E+01  2.000E+04 -3.271E-01
   1   18   29     3     8    3.2176E+05 -7.9661E+03   3.2973E+05  0.000E+00  0.000E+00  0.000E+00  3.15771E+01  2.438E-01  2.000E+01  2.000E+04 -3.983E-01
   1   18   30     3     9    3.2973E+05 -7.1620E+03   3.3689E+05  0.000E+00  0.000E+00  0.000E+00  3.06916E+01  2.472E-01  2.000E+01  2.000E+04 -3.581E-01



1
              HEAD IN LAYER   1 AT END OF TIME STEP   1 IN STRESS PERIOD    1
  ---------------------------------------------------------------------------

          1      2      3      4      5      6      7      8      9     10
         11     12     13     14     15     16     17     18     19     20
         21     22     23     24     25     26     27     28     29     30
 .........................................................................
   1  ****** ****** ****** ****** ****** ****** ****** ****** ****** ******
      ****** ****** ****** ****** ****** ****** ****** ****** ****** ******
      ****** ****** ****** ****** ****** ****** ****** ****** ****** ******
   2  ****** ****** ****** ****** ****** ****** ****** ****** ****** ******
      ****** ****** ****** ****** ****** ****** ****** ****** ****** ******
      ****** ****** ****** ****** ****** ****** ****** ****** ****** ******
   3  ****** ****** ****** ****** ****** ****** ****** ****** ****** ******
      ****** ****** ****** ****** ****** ****** ****** ****** ****** ******
      ****** ****** ****** ****** ****** ****** ****** ****** ****** ******
   4  ****** ****** ****** ****** ****** ****** ****** ****** ****** ******
      ****** ****** ****** ****** ****** ****** ****** ****** ****** ******
      ****** ****** ****** ****** ****** ****** ****** ****** ****** ******
   5  ****** ****** ****** ****** ****** ****** ****** ****** ****** ******
      ****** ****** ****** ****** ****** ****** ****** ****** ****** ******
      ****** ****** ****** ****** ****** ****** ****** ****** ****** ******
   6  ****** ****** ****** ****** ****** ****** ****** ****** ****** ******
      ****** ****** ****** ****** ****** ****** ****** ****** ****** ******
      ****** ****** ****** ****** ****** ****** ****** ****** ****** ******
   7  ****** ****** ****** ****** ****** ****** ****** ****** ****** ******
      ****** ****** ****** ****** ****** ****** ****** ****** ****** ******
      ****** ****** ****** ****** ****** ****** ****** ****** ****** ******
   8  ****** ****** ****** ****** ****** ****** ****** ****** ****** ******
      ****** ****** ****** ****** ****** ****** ****** ****** ****** ******
      ****** ****** ****** ****** ****** ****** ****** ****** ****** ******
   9  ****** ****** ****** ****** ****** ****** ****** ****** ****** ******
      ****** ****** ****** ****** ****** ****** ****** ****** ****** ******
      ****** ****** ****** ****** ****** ****** ****** ****** ****** ******
  10  ****** ****** ****** ****** ****** ****** ****** ****** ****** ******
      ****** ****** ****** ****** ****** ****** ****** ****** ****** ******
      ****** ****** ****** ****** ****** ****** ****** ****** ****** ******
  11  ****** ****** ****** ****** ****** ****** ****** ****** ****** ******
      ****** ****** ****** ****** ****** ****** ****** ****** ****** ******
      ****** ****** ****** ****** ****** ****** ****** ****** ****** ******
  12  ****** ****** ****** ****** ****** ****** ****** ****** ****** ******
      ****** ****** ****** ****** ****** ****** ****** ****** ****** ******
      ****** ****** ****** ****** ****** ****** ****** ****** ****** ******
  13  ****** ****** ****** ****** ****** ****** ****** ****** ****** ******
      ****** ****** ****** ****** ****** ****** ****** ****** ****** ******
      ****** ****** ****** ****** ****** ****** ****** ****** ****** ******
  14  ****** ****** ****** ****** ****** ****** ****** ****** ****** ******
      ****** ****** ****** ****** ****** ****** ****** ****** ****** ******
      ****** ****** ****** ****** ****** ****** ****** ****** ****** ******
  15  ****** ****** ****** ****** ****** ****** ****** ****** ****** ******
      ****** ****** ****** ****** ****** ****** ****** ****** ****** ******
      ****** ****** ****** ****** ****** ****** ****** ****** ****** ******
  16  ****** ****** ****** ****** ****** ****** ****** ****** ****** ******
      ****** ****** ****** ****** ****** ****** ****** ****** ****** ******
      ****** ****** ****** ****** ****** ****** ****** ****** ****** ******
  17  ****** ****** ****** ****** ****** ****** ****** ****** ****** ******
      ****** ****** ****** ****** ****** ****** ****** ****** ****** ******
      ****** ****** ****** ****** ****** ****** ****** ****** ****** ******
  18  ****** ****** ****** ****** ****** ****** ****** ****** ****** ******
      ****** ****** ****** ****** ****** ****** ****** ****** ****** ******
      ****** ****** ****** ****** ****** ****** ****** ****** ****** ******
  19  ****** ****** ****** ****** ****** ****** ****** ****** ****** ******
      ****** ****** ****** ****** ****** ****** ****** ****** ****** ******
      ****** ****** ****** ****** ****** ****** ****** ****** ****** ******
  20  ****** ****** ****** ****** ****** ****** ****** ****** ****** ******
      ****** ****** ****** ****** ****** ****** ****** ****** ****** ******
      ****** ****** ****** ****** ****** ****** ****** ****** ****** ******
  21  ****** ****** ****** ****** ****** ****** ****** ****** ****** ******
      ****** ****** ****** ****** ****** ****** ****** ****** ****** ******
      ****** ****** ****** ****** ****** ****** ****** ****** ****** ******
  22  ****** ****** ****** ****** ****** ****** ****** ****** ****** ******
      ****** ****** ****** ****** ****** ****** ****** ****** ****** ******
      ****** ****** ****** ****** ****** ****** ****** ****** ****** ******
  23  ****** ****** ****** ****** ****** ****** ****** ****** ****** ******
      ****** ****** ****** ****** ****** ****** ****** ****** ****** ******
      ****** ****** ****** ****** ****** ****** ****** ****** ****** ******
  24  ****** ****** ****** ****** ****** ****** ****** ****** ****** ******
      ****** ****** ****** ****** ****** ****** ****** ****** ****** ******
      ****** ****** ****** ****** ****** ****** ****** ****** ****** ******
  25  ****** ****** ****** ****** ****** ****** ****** ****** ****** ******
      ****** ****** ****** ****** ****** ****** ****** ****** ****** ******
      ****** ****** ****** ****** ****** ****** ****** ****** ****** ******

 HEAD WILL BE SAVED ON UNIT   51 AT END OF TIME STEP    1, STRESS PERIOD    1
1
  VOLUMETRIC BUDGET FOR ENTIRE MODEL AT END OF TIME STEP    1, STRESS PERIOD   1
  ------------------------------------------------------------------------------

     CUMULATIVE VOLUMES      L**3       RATES FOR THIS TIME STEP      L**3/T
     ------------------                 ------------------------

           IN:                                      IN:
           ---                                      ---
             STORAGE =    18051825.2912               STORAGE =      196215.4923
       CONSTANT HEAD =     1152720.8043         CONSTANT HEAD =       12529.5740
               WELLS =           0.0000                 WELLS =           0.0000
            RECHARGE =     1269600.0000              RECHARGE =       13800.0000
      STREAM LEAKAGE =      364362.1913        STREAM LEAKAGE =        3960.4586

            TOTAL IN =    20838508.2868              TOTAL IN =      226505.5249

          OUT:                                     OUT:
          ----                                     ----
             STORAGE =           0.0000               STORAGE =           0.0000
       CONSTANT HEAD =           0.0000         CONSTANT HEAD =           0.0000
               WELLS =     3280293.5633                 WELLS =       35655.3648
            RECHARGE =           0.0000              RECHARGE =           0.0000
      STREAM LEAKAGE =    17558215.0119        STREAM LEAKAGE =      190850.1632

           TOTAL OUT =    20838508.5752             TOTAL OUT =      226505.5280

            IN - OUT =          -0.2884              IN - OUT =      -3.1351E-03

 PERCENT DISCREPANCY =          -0.00     PERCENT DISCREPANCY =          -0.00






         TIME SUMMARY AT END OF TIME STEP    1 IN STRESS PERIOD    1
                    SECONDS     MINUTES      HOURS       DAYS        YEARS
                    -----------------------------------------------------------
   TIME STEP LENGTH 7.94880E+06 1.32480E+05  2208.0      92.000     0.25188    
 STRESS PERIOD TIME 7.94880E+06 1.32480E+05  2208.0      92.000     0.25188    
         TOTAL TIME 7.94880E+06 1.32480E+05  2208.0      92.000     0.25188    
1
1
                            STRESS PERIOD NO.    2, LENGTH =   91.00000    
                            -----------------------------------------------

                              NUMBER OF TIME STEPS =     1

                               MULTIPLIER FOR DELT =     1.500

                            INITIAL TIME STEP SIZE =   91.00000    

 WELL NO.  LAYER   ROW   COL   STRESS RATE         
 --------------------------------------------------
      1      1     17     24      -1629.    
      2      1      9     25     -0.1155E+05
      3      1      8     20      -8674.    
      4      1     10     13     -0.1380E+05

      4 WELLS

                 RECHARGE =  2.000000E-03

 REUSING STREAM SEGMENT DATA FROM LAST STRESS PERIOD
 
 SOLVING FOR HEAD 


     7 CALLS TO PCG ROUTINE FOR TIME STEP   1 IN STRESS PERIOD    2
    27 TOTAL ITERATIONS

 OUTPUT CONTROL FOR STRESS PERIOD    2   TIME STEP    1
    SAVE BUDGET
    SAVE HEAD FOR ALL LAYERS
    PRINT HEAD FOR ALL LAYERS
 UBDSV2 SAVING "STREAMFLOW OUT  " ON UNIT  50 AT TIME STEP  1, STRESS PERIOD   2



 STREAM LISTING     PERIOD      2   STEP        1

 LAYER ROW COL. STREAM  RCH.  FLOW INTO     FLOW TO   FLOW OUT OF   OVRLND.     DIRECT     STREAM       STREAM     STREAM     STREAM   STREAMBED  STREAMBED
                SEG.NO.  NO.  STRM. RCH.    AQUIFER    STRM. RCH.    RUNOFF     PRECIP       ET          HEAD       DEPTH      WIDTH   CONDCTNC.   GRADIENT

   1   13    1     1     1    1.0000E+05 -3.9482E+03   1.0395E+05  0.000E+00  0.000E+00  0.000E+00  4.84077E+01  1.464E-01  2.000E+01  2.000E+04 -1.974E-01
   1   13    2     1     2    1.0395E+05 -5.2056E+03   1.0915E+05  0.000E+00  0.000E+00  0.000E+00  4.79344E+01  1.503E-01  2.000E+01  2.000E+04 -2.603E-01
   1   14    3     1     3    1.0915E+05 -1.1113E+03   1.1027E+05  0.000E+00  0.000E+00  0.000E+00  4.74597E+01  1.529E-01  2.000E+01  2.000E+04 -5.557E-02
   1   15    4     1     4    1.1027E+05 -1.1406E+03   1.1141E+05  0.000E+00  0.000E+00  0.000E+00  4.69834E+01  1.539E-01  2.000E+01  2.000E+04 -5.703E-02
   1   16    5     1     5    1.1141E+05 -4.2561E+03   1.1566E+05  0.000E+00  0.000E+00  0.000E+00  4.65084E+01  1.561E-01  2.000E+01  2.000E+04 -2.128E-01
   1   16    6     1     6    1.1566E+05 -2.5064E+03   1.1817E+05  0.000E+00  0.000E+00  0.000E+00  4.60339E+01  1.589E-01  2.000E+01  2.000E+04 -1.253E-01
   1   16    7     1     7    1.1817E+05 -2.4095E+03   1.2058E+05  0.000E+00  0.000E+00  0.000E+00  4.55586E+01  1.609E-01  2.000E+01  2.000E+04 -1.205E-01
   1   16    8     1     8    1.2058E+05 -2.3762E+03   1.2295E+05  0.000E+00  0.000E+00  0.000E+00  4.50832E+01  1.628E-01  2.000E+01  2.000E+04 -1.188E-01
   1   16    9     1     9    1.2295E+05 -2.3488E+03   1.2530E+05  0.000E+00  0.000E+00  0.000E+00  4.46079E+01  1.647E-01  2.000E+01  2.000E+04 -1.174E-01
   1   16   10     1    10    1.2530E+05 -2.3148E+03   1.2762E+05  0.000E+00  0.000E+00  0.000E+00  4.41324E+01  1.665E-01  2.000E+01  2.000E+04 -1.157E-01
   1   16   11     1    11    1.2762E+05 -2.3041E+03   1.2992E+05  0.000E+00  0.000E+00  0.000E+00  4.36570E+01  1.683E-01  2.000E+01  2.000E+04 -1.152E-01
   1   16   12     1    12    1.2992E+05 -3.8590E+03   1.3378E+05  0.000E+00  0.000E+00  0.000E+00  4.31821E+01  1.708E-01  2.000E+01  2.000E+04 -1.930E-01
   1   15   13     1    13    1.3378E+05 -3.2522E+03   1.3703E+05  0.000E+00  0.000E+00  0.000E+00  4.27076E+01  1.735E-01  2.000E+01  2.000E+04 -1.626E-01
   1   14   14     1    14    1.3703E+05 -3.0441E+03   1.4008E+05  0.000E+00  0.000E+00  0.000E+00  4.22327E+01  1.759E-01  2.000E+01  2.000E+04 -1.522E-01
   1   13   15     1    15    1.4008E+05 -2.9256E+03   1.4300E+05  0.000E+00  0.000E+00  0.000E+00  4.17577E+01  1.782E-01  2.000E+01  2.000E+04 -1.463E-01
   1   12   16     1    16    1.4300E+05 -3.3399E+03   1.4634E+05  0.000E+00  0.000E+00  0.000E+00  4.12828E+01  1.805E-01  2.000E+01  2.000E+04 -1.670E-01
   1   12   17     1    17    1.4634E+05 -2.7376E+03   1.4908E+05  0.000E+00  0.000E+00  0.000E+00  4.08078E+01  1.828E-01  2.000E+01  2.000E+04 -1.369E-01
   1   12   18     1    18    1.4908E+05 -2.6758E+03   1.5176E+05  0.000E+00  0.000E+00  0.000E+00  4.03325E+01  1.848E-01  2.000E+01  2.000E+04 -1.338E-01
   1   12   19     1    19    1.5176E+05 -3.1620E+03   1.5492E+05  0.000E+00  0.000E+00  0.000E+00  3.98574E+01  1.869E-01  2.000E+01  2.000E+04 -1.581E-01
   1   13   20     1    20    1.5492E+05 -3.0371E+03   1.5795E+05  0.000E+00  0.000E+00  0.000E+00  3.93824E+01  1.892E-01  2.000E+01  2.000E+04 -1.519E-01
   1   14   21     1    21    1.5795E+05 -3.4262E+03   1.6138E+05  0.000E+00  0.000E+00  0.000E+00  3.89074E+01  1.915E-01  2.000E+01  2.000E+04 -1.713E-01
   1   14   22     1    22    1.6138E+05  4.5770E+03   1.5680E+05  0.000E+00  0.000E+00  0.000E+00  3.84298E+01  1.911E-01  2.000E+01  2.000E+04  2.289E-01
   1    9   30     2     1    5.0000E+04 -1.8523E+03   5.1852E+04  0.000E+00  0.000E+00  0.000E+00  4.02421E+01  1.171E-01  2.000E+01  2.000E+04 -9.262E-02
   1    9   29     2     2    5.1852E+04 -2.0966E+03   5.3949E+04  0.000E+00  0.000E+00  0.000E+00  3.99949E+01  1.199E-01  2.000E+01  2.000E+04 -1.048E-01
   1    9   28     2     3    5.3949E+04 -2.1935E+03   5.6142E+04  0.000E+00  0.000E+00  0.000E+00  3.97477E+01  1.227E-01  2.000E+01  2.000E+04 -1.097E-01
   1    9   27     2     4    5.6142E+04 -2.2707E+03   5.8413E+04  0.000E+00  0.000E+00  0.000E+00  3.95007E+01  1.257E-01  2.000E+01  2.000E+04 -1.135E-01
   1   10   26     2     5    5.8413E+04 -2.5367E+02   5.8667E+04  0.000E+00  0.000E+00  0.000E+00  3.92524E+01  1.274E-01  2.000E+01  2.000E+04 -1.268E-02
   1   11   25     2     6    5.8667E+04 -8.4622E+02   5.9513E+04  0.000E+00  0.000E+00  0.000E+00  3.90031E+01  1.281E-01  2.000E+01  2.000E+04 -4.231E-02
   1   12   24     2     7    5.9513E+04 -1.9030E+03   6.1416E+04  0.000E+00  0.000E+00  0.000E+00  3.87549E+01  1.299E-01  2.000E+01  2.000E+04 -9.515E-02
   1   13   23     2     8    6.1416E+04 -4.5111E+02   6.1867E+04  0.000E+00  0.000E+00  0.000E+00  3.85064E+01  1.314E-01  2.000E+01  2.000E+04 -2.256E-02
   1   14   22     2     9    6.1867E+04  1.1009E+03   6.0766E+04  0.000E+00  0.000E+00  0.000E+00  3.82560E+01  1.310E-01  2.000E+01  2.000E+04  5.505E-02
   1   14   22     3     1    2.1757E+05 -9.0323E+03   2.2660E+05  0.000E+00  0.000E+00  0.000E+00  3.77493E+01  1.937E-01  2.000E+01  2.000E+04 -4.516E-01
   1   15   23     3     2    2.2660E+05 -9.5653E+02   2.2756E+05  0.000E+00  0.000E+00  0.000E+00  3.68630E+01  1.963E-01  2.000E+01  2.000E+04 -4.783E-02
   1   15   24     3     3    2.2756E+05 -4.7339E+02   2.2803E+05  0.000E+00  0.000E+00  0.000E+00  3.59745E+01  1.967E-01  2.000E+01  2.000E+04 -2.367E-02
   1   15   25     3     4    2.2803E+05 -5.5818E+02   2.2859E+05  0.000E+00  0.000E+00  0.000E+00  3.50859E+01  1.970E-01  2.000E+01  2.000E+04 -2.791E-02
   1   15   26     3     5    2.2859E+05 -7.2349E+02   2.2931E+05  0.000E+00  0.000E+00  0.000E+00  3.41973E+01  1.973E-01  2.000E+01  2.000E+04 -3.617E-02
   1   16   27     3     6    2.2931E+05 -8.2843E+02   2.3014E+05  0.000E+00  0.000E+00  0.000E+00  3.33088E+01  1.977E-01  2.000E+01  2.000E+04 -4.142E-02
   1   17   28     3     7    2.3014E+05 -3.1881E+03   2.3333E+05  0.000E+00  0.000E+00  0.000E+00  3.24210E+01  1.987E-01  2.000E+01  2.000E+04 -1.594E-01
   1   18   29     3     8    2.3333E+05 -4.9976E+03   2.3833E+05  0.000E+00  0.000E+00  0.000E+00  3.15342E+01  2.008E-01  2.000E+01  2.000E+04 -2.499E-01
   1   18   30     3     9    2.3833E+05 -4.6574E+03   2.4299E+05  0.000E+00  0.000E+00  0.000E+00  3.06477E+01  2.033E-01  2.000E+01  2.000E+04 -2.329E-01



1
              HEAD IN LAYER   1 AT END OF TIME STEP   1 IN STRESS PERIOD    2
  ---------------------------------------------------------------------------

          1      2      3      4      5      6      7      8      9     10
         11     12     13     14     15     16     17     18     19     20
         21     22     23     24     25     26     27     28     29     30
 .........................................................................
   1  ****** ****** ****** ****** ****** ****** ****** ****** ****** ******
      ****** ****** ****** ****** ****** ****** ****** ****** ****** ******
      ****** ****** ****** ****** ****** ****** ****** ****** ****** ******
   2  ****** ****** ****** ****** ****** ****** ****** ****** ****** ******
      ****** ****** ****** ****** ****** ****** ****** ****** ****** ******
      ****** ****** ****** ****** ****** ****** ****** ****** ****** ******
   3  ****** ****** ****** ****** ****** ****** ****** ****** ****** ******
      ****** ****** ****** ****** ****** ****** ****** ****** ****** ******
      ****** ****** ****** ****** ****** ****** ****** ****** ****** ******
   4  ****** ****** ****** ****** ****** ****** ****** ****** ****** ******
      ****** ****** ****** ****** ****** ****** ****** ****** ****** ******
      ****** ****** ****** ****** ****** ****** ****** ****** ****** ******
   5  ****** ****** ****** ****** ****** ****** ****** ****** ****** ******
      ****** ****** ****** ****** ****** ****** ****** ****** ****** ******
      ****** ****** ****** ****** ****** ****** ****** ****** ****** ******
   6  ****** ****** ****** ****** ****** ****** ****** ****** ****** ******
      ****** ****** ****** ****** ****** ****** ****** ****** ****** ******
      ****** ****** ****** ****** ****** ****** ****** ****** ****** ******
   7  ****** ****** ****** ****** ****** ****** ****** ****** ****** ******
      ****** ****** ****** ****** ****** ****** ****** ****** ****** ******
      ****** ****** ****** ****** ****** ****** ****** ****** ****** ******
   8  ****** ****** ****** ****** ****** ****** ****** ****** ****** ******
      ****** ****** ****** ****** ****** ****** ****** ****** ****** ******
      ****** ****** ****** ****** ****** ****** ****** ****** ****** ******
   9  ****** ****** ****** ****** ****** ****** ****** ****** ****** ******
      ****** ****** ****** ****** ****** ****** ****** ****** ****** ******
      ****** ****** ****** ****** ****** ****** ****** ****** ****** ******
  10  ****** ****** ****** ****** ****** ****** ****** ****** ****** ******
      ****** ****** ****** ****** ****** ****** ****** ****** ****** ******
      ****** ****** ****** ****** ****** ****** ****** ****** ****** ******
  11  ****** ****** ****** ****** ****** ****** ****** ****** ****** ******
      ****** ****** ****** ****** ****** ****** ****** ****** ****** ******
      ****** ****** ****** ****** ****** ****** ****** ****** ****** ******
  12  ****** ****** ****** ****** ****** ****** ****** ****** ****** ******
      ****** ****** ****** ****** ****** ****** ****** ****** ****** ******
      ****** ****** ****** ****** ****** ****** ****** ****** ****** ******
  13  ****** ****** ****** ****** ****** ****** ****** ****** ****** ******
      ****** ****** ****** ****** ****** ****** ****** ****** ****** ******
      ****** ****** ****** ****** ****** ****** ****** ****** ****** ******
  14  ****** ****** ****** ****** ****** ****** ****** ****** ****** ******
      ****** ****** ****** ****** ****** ****** ****** ****** ****** ******
      ****** ****** ****** ****** ****** ****** ****** ****** ****** ******
  15  ****** ****** ****** ****** ****** ****** ****** ****** ****** ******
      ****** ****** ****** ****** ****** ****** ****** ****** ****** ******
      ****** ****** ****** ****** ****** ****** ****** ****** ****** ******
  16  ****** ****** ****** ****** ****** ****** ****** ****** ****** ******
      ****** ****** ****** ****** ****** ****** ****** ****** ****** ******
      ****** ****** ****** ****** ****** ****** ****** ****** ****** ******
  17  ****** ****** ****** ****** ****** ****** ****** ****** ****** ******
      ****** ****** ****** ****** ****** ****** ****** ****** ****** ******
      ****** ****** ****** ****** ****** ****** ****** ****** ****** ******
  18  ****** ****** ****** ****** ****** ****** ****** ****** ****** ******
      ****** ****** ****** ****** ****** ****** ****** ****** ****** ******
      ****** ****** ****** ****** ****** ****** ****** ****** ****** ******
  19  ****** ****** ****** ****** ****** ****** ****** ****** ****** ******
      ****** ****** ****** ****** ****** ****** ****** ****** ****** ******
      ****** ****** ****** ****** ****** ****** ****** ****** ****** ******
  20  ****** ****** ****** ****** ****** ****** ****** ****** ****** ******
      ****** ****** ****** ****** ****** ****** ****** ****** ****** ******
      ****** ****** ****** ****** ****** ****** ****** ****** ****** ******
  21  ****** ****** ****** ****** ****** ****** ****** ****** ****** ******
      ****** ****** ****** ****** ****** ****** ****** ****** ****** ******
      ****** ****** ****** ****** ****** ****** ****** ****** ****** ******
  22  ****** ****** ****** ****** ****** ****** ****** ****** ****** ******
      ****** ****** ****** ****** ****** ****** ****** ****** ****** ******
      ****** ****** ****** ****** ****** ****** ****** ****** ****** ******
  23  ****** ****** ****** ****** ****** ****** ****** ****** ****** ******
      ****** ****** ****** ****** ****** ****** ****** ****** ****** ******
      ****** ****** ****** ****** ****** ****** ****** ****** ****** ******
  24  ****** ****** ****** ****** ****** ****** ****** ****** ****** ******
      ****** ****** ****** ****** ****** ****** ****** ****** ****** ******
      ****** ****** ****** ****** ****** ****** ****** ****** ****** ******
  25  ****** ****** ****** ****** ****** ****** ****** ****** ****** ******
      ****** ****** ****** ****** ****** ****** ****** ****** ****** ******
      ****** ****** ****** ****** ****** ****** ****** ****** ****** ******

 HEAD WILL BE SAVED ON UNIT   51 AT END OF TIME STEP    1, STRESS PERIOD    2
1
  VOLUMETRIC BUDGET FOR ENTIRE MODEL AT END OF TIME STEP    1, STRESS PERIOD   2
  ------------------------------------------------------------------------------

     CUMULATIVE VOLUMES      L**3       RATES FOR THIS TIME STEP      L**3/T
     ------------------                 ------------------------

           IN:                                      IN:
           ---                                      ---
             STORAGE =    23173802.0749               STORAGE =       56285.4592
       CONSTANT HEAD =     2713872.4727         CONSTANT HEAD =       17155.5128
               WELLS =           0.0000                 WELLS =           0.0000
            RECHARGE =     6292800.0000              RECHARGE =       55200.0000
      STREAM LEAKAGE =      881053.6619        STREAM LEAKAGE =        5677.9282

            TOTAL IN =    33061528.2096              TOTAL IN =      134318.9003

          OUT:                                     OUT:
          ----                                     ----
             STORAGE =           0.0000               STORAGE =           0.0000
       CONSTANT HEAD =           0.0000         CONSTANT HEAD =           0.0000
               WELLS =     6524931.7618                 WELLS =       35655.3648
            RECHARGE =           0.0000              RECHARGE =           0.0000
      STREAM LEAKAGE =    26536597.6660        STREAM LEAKAGE =       98663.5457

           TOTAL OUT =    33061529.4278             TOTAL OUT =      134318.9105

            IN - OUT =          -1.2182              IN - OUT =      -1.0218E-02

 PERCENT DISCREPANCY =          -0.00     PERCENT DISCREPANCY =          -0.00






         TIME SUMMARY AT END OF TIME STEP    1 IN STRESS PERIOD    2
                    SECONDS     MINUTES      HOURS       DAYS        YEARS
                    -----------------------------------------------------------
   TIME STEP LENGTH 7.86240E+06 1.31040E+05  2184.0      91.000     0.24914    
 STRESS PERIOD TIME 7.86240E+06 1.31040E+05  2184.0      91.000     0.24914    
         TOTAL TIME 1.58112E+07 2.63520E+05  4392.0      183.00     0.50103    
1
1
                            STRESS PERIOD NO.    3, LENGTH =   91.00000    
                            -----------------------------------------------

                              NUMBER OF TIME STEPS =     1

                               MULTIPLIER FOR DELT =     1.500

                            INITIAL TIME STEP SIZE =   91.00000    

 WELL NO.  LAYER   ROW   COL   STRESS RATE         
 --------------------------------------------------
      1      1     17     24      -1629.    
      2      1      9     25     -0.1155E+05
      3      1      8     20      -8674.    
      4      1     10     13     -0.1380E+05

      4 WELLS

                 RECHARGE =   0.00000    

 REUSING STREAM SEGMENT DATA FROM LAST STRESS PERIOD
 
 SOLVING FOR HEAD 


     7 CALLS TO PCG ROUTINE FOR TIME STEP   1 IN STRESS PERIOD    3
    27 TOTAL ITERATIONS

 OUTPUT CONTROL FOR STRESS PERIOD    3   TIME STEP    1
    SAVE BUDGET
    SAVE HEAD FOR ALL LAYERS
    PRINT HEAD FOR ALL LAYERS
 UBDSV2 SAVING "STREAMFLOW OUT  " ON UNIT  50 AT TIME STEP  1, STRESS PERIOD   3



 STREAM LISTING     PERIOD      3   STEP        1

 LAYER ROW COL. STREAM  RCH.  FLOW INTO     FLOW TO   FLOW OUT OF   OVRLND.     DIRECT     STREAM       STREAM     STREAM     STREAM   STREAMBED  STREAMBED
                SEG.NO.  NO.  STRM. RCH.    AQUIFER    STRM. RCH.    RUNOFF     PRECIP       ET          HEAD       DEPTH      WIDTH   CONDCTNC.   GRADIENT

   1   13    1     1     1    1.0000E+05 -2.6589E+03   1.0266E+05  0.000E+00  0.000E+00  0.000E+00  4.84072E+01  1.458E-01  2.000E+01  2.000E+04 -1.329E-01
   1   13    2     1     2    1.0266E+05 -3.7583E+03   1.0642E+05  0.000E+00  0.000E+00  0.000E+00  4.79326E+01  1.486E-01  2.000E+01  2.000E+04 -1.879E-01
   1   14    3     1     3    1.0642E+05 -6.4626E+02   1.0706E+05  0.000E+00  0.000E+00  0.000E+00  4.74572E+01  1.504E-01  2.000E+01  2.000E+04 -3.231E-02
   1   15    4     1     4    1.0706E+05 -6.3248E+02   1.0770E+05  0.000E+00  0.000E+00  0.000E+00  4.69805E+01  1.510E-01  2.000E+01  2.000E+04 -3.162E-02
   1   16    5     1     5    1.0770E+05 -2.4641E+03   1.1016E+05  0.000E+00  0.000E+00  0.000E+00  4.65045E+01  1.523E-01  2.000E+01  2.000E+04 -1.232E-01
   1   16    6     1     6    1.1016E+05 -1.5026E+03   1.1166E+05  0.000E+00  0.000E+00  0.000E+00  4.60289E+01  1.539E-01  2.000E+01  2.000E+04 -7.513E-02
   1   16    7     1     7    1.1166E+05 -1.4623E+03   1.1312E+05  0.000E+00  0.000E+00  0.000E+00  4.55529E+01  1.552E-01  2.000E+01  2.000E+04 -7.311E-02
   1   16    8     1     8    1.1312E+05 -1.4454E+03   1.1457E+05  0.000E+00  0.000E+00  0.000E+00  4.50768E+01  1.564E-01  2.000E+01  2.000E+04 -7.227E-02
   1   16    9     1     9    1.1457E+05 -1.4211E+03   1.1599E+05  0.000E+00  0.000E+00  0.000E+00  4.46007E+01  1.575E-01  2.000E+01  2.000E+04 -7.106E-02
   1   16   10     1    10    1.1599E+05 -1.3873E+03   1.1738E+05  0.000E+00  0.000E+00  0.000E+00  4.41246E+01  1.587E-01  2.000E+01  2.000E+04 -6.936E-02
   1   16   11     1    11    1.1738E+05 -1.3726E+03   1.1875E+05  0.000E+00  0.000E+00  0.000E+00  4.36484E+01  1.598E-01  2.000E+01  2.000E+04 -6.863E-02
   1   16   12     1    12    1.1875E+05 -2.2273E+03   1.2098E+05  0.000E+00  0.000E+00  0.000E+00  4.31726E+01  1.613E-01  2.000E+01  2.000E+04 -1.114E-01
   1   15   13     1    13    1.2098E+05 -1.5251E+03   1.2250E+05  0.000E+00  0.000E+00  0.000E+00  4.26969E+01  1.628E-01  2.000E+01  2.000E+04 -7.625E-02
   1   14   14     1    14    1.2250E+05 -1.2271E+03   1.2373E+05  0.000E+00  0.000E+00  0.000E+00  4.22207E+01  1.639E-01  2.000E+01  2.000E+04 -6.136E-02
   1   13   15     1    15    1.2373E+05 -1.0661E+03   1.2480E+05  0.000E+00  0.000E+00  0.000E+00  4.17443E+01  1.648E-01  2.000E+01  2.000E+04 -5.331E-02
   1   12   16     1    16    1.2480E+05 -1.3476E+03   1.2614E+05  0.000E+00  0.000E+00  0.000E+00  4.12680E+01  1.657E-01  2.000E+01  2.000E+04 -6.738E-02
   1   12   17     1    17    1.2614E+05 -1.3387E+03   1.2748E+05  0.000E+00  0.000E+00  0.000E+00  4.07918E+01  1.668E-01  2.000E+01  2.000E+04 -6.693E-02
   1   12   18     1    18    1.2748E+05 -1.3067E+03   1.2879E+05  0.000E+00  0.000E+00  0.000E+00  4.03156E+01  1.679E-01  2.000E+01  2.000E+04 -6.534E-02
   1   12   19     1    19    1.2879E+05 -1.4276E+03   1.3022E+05  0.000E+00  0.000E+00  0.000E+00  3.98394E+01  1.689E-01  2.000E+01  2.000E+04 -7.138E-02
   1   13   20     1    20    1.3022E+05 -1.5215E+03   1.3174E+05  0.000E+00  0.000E+00  0.000E+00  3.93633E+01  1.701E-01  2.000E+01  2.000E+04 -7.607E-02
   1   14   21     1    21    1.3174E+05 -1.9360E+03   1.3368E+05  0.000E+00  0.000E+00  0.000E+00  3.88873E+01  1.714E-01  2.000E+01  2.000E+04 -9.680E-02
   1   14   22     1    22    1.3368E+05  4.9464E+03   1.2873E+05  0.000E+00  0.000E+00  0.000E+00  3.84089E+01  1.703E-01  2.000E+01  2.000E+04  2.473E-01
   1    9   30     2     1    5.0000E+04 -6.0046E+02   5.0600E+04  0.000E+00  0.000E+00  0.000E+00  4.02413E+01  1.163E-01  2.000E+01  2.000E+04 -3.002E-02
   1    9   29     2     2    5.0600E+04 -8.4222E+02   5.1443E+04  0.000E+00  0.000E+00  0.000E+00  3.99923E+01  1.173E-01  2.000E+01  2.000E+04 -4.211E-02
   1    9   28     2     3    5.1443E+04 -9.1464E+02   5.2357E+04  0.000E+00  0.000E+00  0.000E+00  3.97435E+01  1.185E-01  2.000E+01  2.000E+04 -4.573E-02
   1    9   27     2     4    5.2357E+04 -3.8545E+02   5.2743E+04  0.000E+00  0.000E+00  0.000E+00  3.94944E+01  1.194E-01  2.000E+01  2.000E+04 -1.927E-02
   1   10   26     2     5    5.2743E+04  1.4907E+03   5.1252E+04  0.000E+00  0.000E+00  0.000E+00  3.92436E+01  1.186E-01  2.000E+01  2.000E+04  7.454E-02
   1   11   25     2     6    5.1252E+04  7.7618E+02   5.0476E+04  0.000E+00  0.000E+00  0.000E+00  3.89921E+01  1.171E-01  2.000E+01  2.000E+04  3.881E-02
   1   12   24     2     7    5.0476E+04 -4.4635E+02   5.0922E+04  0.000E+00  0.000E+00  0.000E+00  3.87418E+01  1.168E-01  2.000E+01  2.000E+04 -2.232E-02
   1   13   23     2     8    5.0922E+04 -9.9944E+01   5.1022E+04  0.000E+00  0.000E+00  0.000E+00  3.84922E+01  1.172E-01  2.000E+01  2.000E+04 -4.997E-03
   1   14   22     2     9    5.1022E+04  1.5923E+03   4.9430E+04  0.000E+00  0.000E+00  0.000E+00  3.82412E+01  1.162E-01  2.000E+01  2.000E+04  7.961E-02
   1   14   22     3     1    1.7816E+05 -8.6761E+03   1.8683E+05  0.000E+00  0.000E+00  0.000E+00  3.77278E+01  1.722E-01  2.000E+01  2.000E+04 -4.338E-01
   1   15   23     3     2    1.8683E+05 -5.5814E+02   1.8739E+05  0.000E+00  0.000E+00  0.000E+00  3.68415E+01  1.748E-01  2.000E+01  2.000E+04 -2.791E-02
   1   15   24     3     3    1.8739E+05 -1.3662E+02   1.8753E+05  0.000E+00  0.000E+00  0.000E+00  3.59528E+01  1.750E-01  2.000E+01  2.000E+04 -6.831E-03
   1   15   25     3     4    1.8753E+05 -2.0606E+02   1.8774E+05  0.000E+00  0.000E+00  0.000E+00  3.50640E+01  1.751E-01  2.000E+01  2.000E+04 -1.030E-02
   1   15   26     3     5    1.8774E+05 -3.1204E+02   1.8805E+05  0.000E+00  0.000E+00  0.000E+00  3.41752E+01  1.752E-01  2.000E+01  2.000E+04 -1.560E-02
   1   16   27     3     6    1.8805E+05 -3.5146E+02   1.8840E+05  0.000E+00  0.000E+00  0.000E+00  3.32865E+01  1.754E-01  2.000E+01  2.000E+04 -1.757E-02
   1   17   28     3     7    1.8840E+05 -1.7645E+03   1.9016E+05  0.000E+00  0.000E+00  0.000E+00  3.23982E+01  1.760E-01  2.000E+01  2.000E+04 -8.822E-02
   1   18   29     3     8    1.9016E+05 -3.4721E+03   1.9364E+05  0.000E+00  0.000E+00  0.000E+00  3.15108E+01  1.775E-01  2.000E+01  2.000E+04 -1.736E-01
   1   18   30     3     9    1.9364E+05 -3.5175E+03   1.9715E+05  0.000E+00  0.000E+00  0.000E+00  3.06239E+01  1.794E-01  2.000E+01  2.000E+04 -1.759E-01



1
              HEAD IN LAYER   1 AT END OF TIME STEP   1 IN STRESS PERIOD    3
  ---------------------------------------------------------------------------

          1      2      3      4      5      6      7      8      9     10
         11     12     13     14     15     16     17     18     19     20
         21     22     23     24     25     26     27     28     29     30
 .........................................................................
   1  ****** ****** ****** ****** ****** ****** ****** ****** ****** ******
      ****** ****** ****** ****** ****** ****** ****** ****** ****** ******
      ****** ****** ****** ****** ****** ****** ****** ****** ****** ******
   2  ****** ****** ****** ****** ****** ****** ****** ****** ****** ******
      ****** ****** ****** ****** ****** ****** ****** ****** ****** ******
      ****** ****** ****** ****** ****** ****** ****** ****** ****** ******
   3  ****** ****** ****** ****** ****** ****** ****** ****** ****** ******
      ****** ****** ****** ****** ****** ****** ****** ****** ****** ******
      ****** ****** ****** ****** ****** ****** ****** ****** ****** ******
   4  ****** ****** ****** ****** ****** ****** ****** ****** ****** ******
      ****** ****** ****** ****** ****** ****** ****** ****** ****** ******
      ****** ****** ****** ****** ****** ****** ****** ****** ****** ******
   5  ****** ****** ****** ****** ****** ****** ****** ****** ****** ******
      ****** ****** ****** ****** ****** ****** ****** ****** ****** ******
      ****** ****** ****** ****** ****** ****** ****** ****** ****** ******
   6  ****** ****** ****** ****** ****** ****** ****** ****** ****** ******
      ****** ****** ****** ****** ****** ****** ****** ****** ****** ******
      ****** ****** ****** ****** ****** ****** ****** ****** ****** ******
   7  ****** ****** ****** ****** ****** ****** ****** ****** ****** ******
      ****** ****** ****** ****** ****** ****** ****** ****** ****** ******
      ****** ****** ****** ****** ****** ****** ****** ****** ****** ******
   8  ****** ****** ****** ****** ****** ****** ****** ****** ****** ******
      ****** ****** ****** ****** ****** ****** ****** ****** ****** ******
      ****** ****** ****** ****** ****** ****** ****** ****** ****** ******
   9  ****** ****** ****** ****** ****** ****** ****** ****** ****** ******
      ****** ****** ****** ****** ****** ****** ****** ****** ****** ******
      ****** ****** ****** ****** ****** ****** ****** ****** ****** ******
  10  ****** ****** ****** ****** ****** ****** ****** ****** ****** ******
      ****** ****** ****** ****** ****** ****** ****** ****** ****** ******
      ****** ****** ****** ****** ****** ****** ****** ****** ****** ******
  11  ****** ****** ****** ****** ****** ****** ****** ****** ****** ******
      ****** ****** ****** ****** ****** ****** ****** ****** ****** ******
      ****** ****** ****** ****** ****** ****** ****** ****** ****** ******
  12  ****** ****** ****** ****** ****** ****** ****** ****** ****** ******
      ****** ****** ****** ****** ****** ****** ****** ****** ****** ******
      ****** ****** ****** ****** ****** ****** ****** ****** ****** ******
  13  ****** ****** ****** ****** ****** ****** ****** ****** ****** ******
      ****** ****** ****** ****** ****** ****** ****** ****** ****** ******
      ****** ****** ****** ****** ****** ****** ****** ****** ****** ******
  14  ****** ****** ****** ****** ****** ****** ****** ****** ****** ******
      ****** ****** ****** ****** ****** ****** ****** ****** ****** ******
      ****** ****** ****** ****** ****** ****** ****** ****** ****** ******
  15  ****** ****** ****** ****** ****** ****** ****** ****** ****** ******
      ****** ****** ****** ****** ****** ****** ****** ****** ****** ******
      ****** ****** ****** ****** ****** ****** ****** ****** ****** ******
  16  ****** ****** ****** ****** ****** ****** ****** ****** ****** ******
      ****** ****** ****** ****** ****** ****** ****** ****** ****** ******
      ****** ****** ****** ****** ****** ****** ****** ****** ****** ******
  17  ****** ****** ****** ****** ****** ****** ****** ****** ****** ******
      ****** ****** ****** ****** ****** ****** ****** ****** ****** ******
      ****** ****** ****** ****** ****** ****** ****** ****** ****** ******
  18  ****** ****** ****** ****** ****** ****** ****** ****** ****** ******
      ****** ****** ****** ****** ****** ****** ****** ****** ****** ******
      ****** ****** ****** ****** ****** ****** ****** ****** ****** ******
  19  ****** ****** ****** ****** ****** ****** ****** ****** ****** ******
      ****** ****** ****** ****** ****** ****** ****** ****** ****** ******
      ****** ****** ****** ****** ****** ****** ****** ****** ****** ******
  20  ****** ****** ****** ****** ****** ****** ****** ****** ****** ******
      ****** ****** ****** ****** ****** ****** ****** ****** ****** ******
      ****** ****** ****** ****** ****** ****** ****** ****** ****** ******
  21  ****** ****** ****** ****** ****** ****** ****** ****** ****** ******
      ****** ****** ****** ****** ****** ****** ****** ****** ****** ******
      ****** ****** ****** ****** ****** ****** ****** ****** ****** ******
  22  ****** ****** ****** ****** ****** ****** ****** ****** ****** ******
      ****** ****** ****** ****** ****** ****** ****** ****** ****** ******
      ****** ****** ****** ****** ****** ****** ****** ****** ****** ******
  23  ****** ****** ****** ****** ****** ****** ****** ****** ****** ******
      ****** ****** ****** ****** ****** ****** ****** ****** ****** ******
      ****** ****** ****** ****** ****** ****** ****** ****** ****** ******
  24  ****** ****** ****** ****** ****** ****** ****** ****** ****** ******
      ****** ****** ****** ****** ****** ****** ****** ****** ****** ******
      ****** ****** ****** ****** ****** ****** ****** ****** ****** ******
  25  ****** ****** ****** ****** ****** ****** ****** ****** ****** ******
      ****** ****** ****** ****** ****** ****** ****** ****** ****** ******
      ****** ****** ****** ****** ****** ****** ****** ****** ****** ******

 HEAD WILL BE SAVED ON UNIT   51 AT END OF TIME STEP    1, STRESS PERIOD    3
1
  VOLUMETRIC BUDGET FOR ENTIRE MODEL AT END OF TIME STEP    1, STRESS PERIOD   3
  ------------------------------------------------------------------------------

     CUMULATIVE VOLUMES      L**3       RATES FOR THIS TIME STEP      L**3/T
     ------------------                 ------------------------

           IN:                                      IN:
           ---                                      ---
             STORAGE =    28355721.6844               STORAGE =       56944.1715
       CONSTANT HEAD =     5067507.9402         CONSTANT HEAD =       25864.1260
               WELLS =           0.0000                 WELLS =           0.0000
            RECHARGE =     6292800.0000              RECHARGE =           0.0000
      STREAM LEAKAGE =     1682361.8475        STREAM LEAKAGE =        8805.5845

            TOTAL IN =    41398391.4721              TOTAL IN =       91613.8820

          OUT:                                     OUT:
          ----                                     ----
             STORAGE =           0.0000               STORAGE =           0.0000
       CONSTANT HEAD =           0.0000         CONSTANT HEAD =           0.0000
               WELLS =     9769569.9603                 WELLS =       35655.3648
            RECHARGE =           0.0000              RECHARGE =           0.0000
      STREAM LEAKAGE =    31628823.4283        STREAM LEAKAGE =       55958.5249

           TOTAL OUT =    41398393.3886             TOTAL OUT =       91613.8897

            IN - OUT =          -1.9165              IN - OUT =      -7.6734E-03

 PERCENT DISCREPANCY =          -0.00     PERCENT DISCREPANCY =          -0.00






         TIME SUMMARY AT END OF TIME STEP    1 IN STRESS PERIOD    3
                    SECONDS     MINUTES      HOURS       DAYS        YEARS
                    -----------------------------------------------------------
   TIME STEP LENGTH 7.86240E+06 1.31040E+05  2184.0      91.000     0.24914    
 STRESS PERIOD TIME 7.86240E+06 1.31040E+05  2184.0      91.000     0.24914    
         TOTAL TIME 2.36736E+07 3.94560E+05  6576.0      274.00     0.75017    
1
1
                            STRESS PERIOD NO.    4, LENGTH =   91.00000    
                            -----------------------------------------------

                              NUMBER OF TIME STEPS =     1

                               MULTIPLIER FOR DELT =     1.500

                            INITIAL TIME STEP SIZE =   91.00000    

 WELL NO.  LAYER   ROW   COL   STRESS RATE         
 --------------------------------------------------
      1      1     17     24      -1629.    
      2      1      9     25     -0.1155E+05
      3      1      8     20      -8674.    
      4      1     10     13     -0.1380E+05

      4 WELLS

                 RECHARGE =  1.000000E-03

 REUSING STREAM SEGMENT DATA FROM LAST STRESS PERIOD
 
 SOLVING FOR HEAD 


     6 CALLS TO PCG ROUTINE FOR TIME STEP   1 IN STRESS PERIOD    4
    23 TOTAL ITERATIONS

 OUTPUT CONTROL FOR STRESS PERIOD    4   TIME STEP    1
    SAVE BUDGET
    SAVE HEAD FOR ALL LAYERS
    PRINT HEAD FOR ALL LAYERS
 UBDSV2 SAVING "STREAMFLOW OUT  " ON UNIT  50 AT TIME STEP  1, STRESS PERIOD   4



 STREAM LISTING     PERIOD      4   STEP        1

 LAYER ROW COL. STREAM  RCH.  FLOW INTO     FLOW TO   FLOW OUT OF   OVRLND.     DIRECT     STREAM       STREAM     STREAM     STREAM   STREAMBED  STREAMBED
                SEG.NO.  NO.  STRM. RCH.    AQUIFER    STRM. RCH.    RUNOFF     PRECIP       ET          HEAD       DEPTH      WIDTH   CONDCTNC.   GRADIENT

   1   13    1     1     1    1.0000E+05 -2.3881E+03   1.0239E+05  0.000E+00  0.000E+00  0.000E+00  4.84070E+01  1.457E-01  2.000E+01  2.000E+04 -1.194E-01
   1   13    2     1     2    1.0239E+05 -3.4445E+03   1.0583E+05  0.000E+00  0.000E+00  0.000E+00  4.79323E+01  1.482E-01  2.000E+01  2.000E+04 -1.722E-01
   1   14    3     1     3    1.0583E+05 -6.1336E+02   1.0645E+05  0.000E+00  0.000E+00  0.000E+00  4.74567E+01  1.499E-01  2.000E+01  2.000E+04 -3.067E-02
   1   15    4     1     4    1.0645E+05 -5.9101E+02   1.0704E+05  0.000E+00  0.000E+00  0.000E+00  4.69800E+01  1.504E-01  2.000E+01  2.000E+04 -2.955E-02
   1   16    5     1     5    1.0704E+05 -2.1655E+03   1.0920E+05  0.000E+00  0.000E+00  0.000E+00  4.65039E+01  1.516E-01  2.000E+01  2.000E+04 -1.083E-01
   1   16    6     1     6    1.0920E+05 -1.3537E+03   1.1056E+05  0.000E+00  0.000E+00  0.000E+00  4.60281E+01  1.531E-01  2.000E+01  2.000E+04 -6.768E-02
   1   16    7     1     7    1.1056E+05 -1.3236E+03   1.1188E+05  0.000E+00  0.000E+00  0.000E+00  4.55519E+01  1.542E-01  2.000E+01  2.000E+04 -6.618E-02
   1   16    8     1     8    1.1188E+05 -1.3103E+03   1.1319E+05  0.000E+00  0.000E+00  0.000E+00  4.50757E+01  1.553E-01  2.000E+01  2.000E+04 -6.551E-02
   1   16    9     1     9    1.1319E+05 -1.2889E+03   1.1448E+05  0.000E+00  0.000E+00  0.000E+00  4.45995E+01  1.563E-01  2.000E+01  2.000E+04 -6.444E-02
   1   16   10     1    10    1.1448E+05 -1.2596E+03   1.1574E+05  0.000E+00  0.000E+00  0.000E+00  4.41233E+01  1.574E-01  2.000E+01  2.000E+04 -6.298E-02
   1   16   11     1    11    1.1574E+05 -1.2478E+03   1.1699E+05  0.000E+00  0.000E+00  0.000E+00  4.36471E+01  1.584E-01  2.000E+01  2.000E+04 -6.239E-02
   1   16   12     1    12    1.1699E+05 -1.9601E+03   1.1895E+05  0.000E+00  0.000E+00  0.000E+00  4.31711E+01  1.597E-01  2.000E+01  2.000E+04 -9.801E-02
   1   15   13     1    13    1.1895E+05 -1.2493E+03   1.2020E+05  0.000E+00  0.000E+00  0.000E+00  4.26951E+01  1.610E-01  2.000E+01  2.000E+04 -6.246E-02
   1   14   14     1    14    1.2020E+05 -9.0916E+02   1.2110E+05  0.000E+00  0.000E+00  0.000E+00  4.22187E+01  1.619E-01  2.000E+01  2.000E+04 -4.546E-02
   1   13   15     1    15    1.2110E+05 -7.0468E+02   1.2181E+05  0.000E+00  0.000E+00  0.000E+00  4.17421E+01  1.625E-01  2.000E+01  2.000E+04 -3.523E-02
   1   12   16     1    16    1.2181E+05 -8.5389E+02   1.2266E+05  0.000E+00  0.000E+00  0.000E+00  4.12654E+01  1.632E-01  2.000E+01  2.000E+04 -4.269E-02
   1   12   17     1    17    1.2266E+05 -1.0509E+03   1.2371E+05  0.000E+00  0.000E+00  0.000E+00  4.07889E+01  1.639E-01  2.000E+01  2.000E+04 -5.255E-02
   1   12   18     1    18    1.2371E+05 -1.0415E+03   1.2476E+05  0.000E+00  0.000E+00  0.000E+00  4.03125E+01  1.648E-01  2.000E+01  2.000E+04 -5.207E-02
   1   12   19     1    19    1.2476E+05 -1.0918E+03   1.2585E+05  0.000E+00  0.000E+00  0.000E+00  3.98361E+01  1.656E-01  2.000E+01  2.000E+04 -5.459E-02
   1   13   20     1    20    1.2585E+05 -1.3256E+03   1.2717E+05  0.000E+00  0.000E+00  0.000E+00  3.93598E+01  1.666E-01  2.000E+01  2.000E+04 -6.628E-02
   1   14   21     1    21    1.2717E+05 -1.7062E+03   1.2888E+05  0.000E+00  0.000E+00  0.000E+00  3.88837E+01  1.678E-01  2.000E+01  2.000E+04 -8.531E-02
   1   14   22     1    22    1.2888E+05  4.9842E+03   1.2390E+05  0.000E+00  0.000E+00  0.000E+00  3.84051E+01  1.665E-01  2.000E+01  2.000E+04  2.492E-01
   1    9   30     2     1    5.0000E+04 -4.8618E+02   5.0486E+04  0.000E+00  0.000E+00  0.000E+00  4.02412E+01  1.162E-01  2.000E+01  2.000E+04 -2.431E-02
   1    9   29     2     2    5.0486E+04 -7.1909E+02   5.1205E+04  0.000E+00  0.000E+00  0.000E+00  3.99920E+01  1.170E-01  2.000E+01  2.000E+04 -3.595E-02
   1    9   28     2     3    5.1205E+04 -7.6636E+02   5.1972E+04  0.000E+00  0.000E+00  0.000E+00  3.97431E+01  1.181E-01  2.000E+01  2.000E+04 -3.832E-02
   1    9   27     2     4    5.1972E+04 -5.3084E+01   5.2025E+04  0.000E+00  0.000E+00  0.000E+00  3.94936E+01  1.186E-01  2.000E+01  2.000E+04 -2.654E-03
   1   10   26     2     5    5.2025E+04  1.6985E+03   5.0326E+04  0.000E+00  0.000E+00  0.000E+00  3.92425E+01  1.175E-01  2.000E+01  2.000E+04  8.492E-02
   1   11   25     2     6    5.0326E+04  9.3869E+02   4.9388E+04  0.000E+00  0.000E+00  0.000E+00  3.89907E+01  1.157E-01  2.000E+01  2.000E+04  4.693E-02
   1   12   24     2     7    4.9388E+04 -3.0286E+02   4.9690E+04  0.000E+00  0.000E+00  0.000E+00  3.87402E+01  1.152E-01  2.000E+01  2.000E+04 -1.514E-02
   1   13   23     2     8    4.9690E+04 -1.1863E+02   4.9809E+04  0.000E+00  0.000E+00  0.000E+00  3.84905E+01  1.155E-01  2.000E+01  2.000E+04 -5.932E-03
   1   14   22     2     9    4.9809E+04  1.6706E+03   4.8138E+04  0.000E+00  0.000E+00  0.000E+00  3.82394E+01  1.144E-01  2.000E+01  2.000E+04  8.353E-02
   1   14   22     3     1    1.7203E+05 -8.6328E+03   1.8067E+05  0.000E+00  0.000E+00  0.000E+00  3.77243E+01  1.687E-01  2.000E+01  2.000E+04 -4.316E-01
   1   15   23     3     2    1.8067E+05 -5.3441E+02   1.8120E+05  0.000E+00  0.000E+00  0.000E+00  3.68380E+01  1.713E-01  2.000E+01  2.000E+04 -2.672E-02
   1   15   24     3     3    1.8120E+05 -1.3230E+02   1.8133E+05  0.000E+00  0.000E+00  0.000E+00  3.59493E+01  1.715E-01  2.000E+01  2.000E+04 -6.615E-03
   1   15   25     3     4    1.8133E+05 -2.0135E+02   1.8153E+05  0.000E+00  0.000E+00  0.000E+00  3.50605E+01  1.716E-01  2.000E+01  2.000E+04 -1.007E-02
   1   15   26     3     5    1.8153E+05 -3.1859E+02   1.8185E+05  0.000E+00  0.000E+00  0.000E+00  3.41718E+01  1.718E-01  2.000E+01  2.000E+04 -1.593E-02
   1   16   27     3     6    1.8185E+05 -3.4803E+02   1.8220E+05  0.000E+00  0.000E+00  0.000E+00  3.32831E+01  1.719E-01  2.000E+01  2.000E+04 -1.740E-02
   1   17   28     3     7    1.8220E+05 -1.6987E+03   1.8390E+05  0.000E+00  0.000E+00  0.000E+00  3.23947E+01  1.725E-01  2.000E+01  2.000E+04 -8.494E-02
   1   18   29     3     8    1.8390E+05 -3.2568E+03   1.8716E+05  0.000E+00  0.000E+00  0.000E+00  3.15073E+01  1.739E-01  2.000E+01  2.000E+04 -1.628E-01
   1   18   30     3     9    1.8716E+05 -3.4116E+03   1.9057E+05  0.000E+00  0.000E+00  0.000E+00  3.06202E+01  1.758E-01  2.000E+01  2.000E+04 -1.706E-01



1
              HEAD IN LAYER   1 AT END OF TIME STEP   1 IN STRESS PERIOD    4
  ---------------------------------------------------------------------------

          1      2      3      4      5      6      7      8      9     10
         11     12     13     14     15     16     17     18     19     20
         21     22     23     24     25     26     27     28     29     30
 .........................................................................
   1  ****** ****** ****** ****** ****** ****** ****** ****** ****** ******
      ****** ****** ****** ****** ****** ****** ****** ****** ****** ******
      ****** ****** ****** ****** ****** ****** ****** ****** ****** ******
   2  ****** ****** ****** ****** ****** ****** ****** ****** ****** ******
      ****** ****** ****** ****** ****** ****** ****** ****** ****** ******
      ****** ****** ****** ****** ****** ****** ****** ****** ****** ******
   3  ****** ****** ****** ****** ****** ****** ****** ****** ****** ******
      ****** ****** ****** ****** ****** ****** ****** ****** ****** ******
      ****** ****** ****** ****** ****** ****** ****** ****** ****** ******
   4  ****** ****** ****** ****** ****** ****** ****** ****** ****** ******
      ****** ****** ****** ****** ****** ****** ****** ****** ****** ******
      ****** ****** ****** ****** ****** ****** ****** ****** ****** ******
   5  ****** ****** ****** ****** ****** ****** ****** ****** ****** ******
      ****** ****** ****** ****** ****** ****** ****** ****** ****** ******
      ****** ****** ****** ****** ****** ****** ****** ****** ****** ******
   6  ****** ****** ****** ****** ****** ****** ****** ****** ****** ******
      ****** ****** ****** ****** ****** ****** ****** ****** ****** ******
      ****** ****** ****** ****** ****** ****** ****** ****** ****** ******
   7  ****** ****** ****** ****** ****** ****** ****** ****** ****** ******
      ****** ****** ****** ****** ****** ****** ****** ****** ****** ******
      ****** ****** ****** ****** ****** ****** ****** ****** ****** ******
   8  ****** ****** ****** ****** ****** ****** ****** ****** ****** ******
      ****** ****** ****** ****** ****** ****** ****** ****** ****** ******
      ****** ****** ****** ****** ****** ****** ****** ****** ****** ******
   9  ****** ****** ****** ****** ****** ****** ****** ****** ****** ******
      ****** ****** ****** ****** ****** ****** ****** ****** ****** ******
      ****** ****** ****** ****** ****** ****** ****** ****** ****** ******
  10  ****** ****** ****** ****** ****** ****** ****** ****** ****** ******
      ****** ****** ****** ****** ****** ****** ****** ****** ****** ******
      ****** ****** ****** ****** ****** ****** ****** ****** ****** ******
  11  ****** ****** ****** ****** ****** ****** ****** ****** ****** ******
      ****** ****** ****** ****** ****** ****** ****** ****** ****** ******
      ****** ****** ****** ****** ****** ****** ****** ****** ****** ******
  12  ****** ****** ****** ****** ****** ****** ****** ****** ****** ******
      ****** ****** ****** ****** ****** ****** ****** ****** ****** ******
      ****** ****** ****** ****** ****** ****** ****** ****** ****** ******
  13  ****** ****** ****** ****** ****** ****** ****** ****** ****** ******
      ****** ****** ****** ****** ****** ****** ****** ****** ****** ******
      ****** ****** ****** ****** ****** ****** ****** ****** ****** ******
  14  ****** ****** ****** ****** ****** ****** ****** ****** ****** ******
      ****** ****** ****** ****** ****** ****** ****** ****** ****** ******
      ****** ****** ****** ****** ****** ****** ****** ****** ****** ******
  15  ****** ****** ****** ****** ****** ****** ****** ****** ****** ******
      ****** ****** ****** ****** ****** ****** ****** ****** ****** ******
      ****** ****** ****** ****** ****** ****** ****** ****** ****** ******
  16  ****** ****** ****** ****** ****** ****** ****** ****** ****** ******
      ****** ****** ****** ****** ****** ****** ****** ****** ****** ******
      ****** ****** ****** ****** ****** ****** ****** ****** ****** ******
  17  ****** ****** ****** ****** ****** ****** ****** ****** ****** ******
      ****** ****** ****** ****** ****** ****** ****** ****** ****** ******
      ****** ****** ****** ****** ****** ****** ****** ****** ****** ******
  18  ****** ****** ****** ****** ****** ****** ****** ****** ****** ******
      ****** ****** ****** ****** ****** ****** ****** ****** ****** ******
      ****** ****** ****** ****** ****** ****** ****** ****** ****** ******
  19  ****** ****** ****** ****** ****** ****** ****** ****** ****** ******
      ****** ****** ****** ****** ****** ****** ****** ****** ****** ******
      ****** ****** ****** ****** ****** ****** ****** ****** ****** ******
  20  ****** ****** ****** ****** ****** ****** ****** ****** ****** ******
      ****** ****** ****** ****** ****** ****** ****** ****** ****** ******
      ****** ****** ****** ****** ****** ****** ****** ****** ****** ******
  21  ****** ****** ****** ****** ****** ****** ****** ****** ****** ******
      ****** ****** ****** ****** ****** ****** ****** ****** ****** ******
      ****** ****** ****** ****** ****** ****** ****** ****** ****** ******
  22  ****** ****** ****** ****** ****** ****** ****** ****** ****** ******
      ****** ****** ****** ****** ****** ****** ****** ****** ****** ******
      ****** ****** ****** ****** ****** ****** ****** ****** ****** ******
  23  ****** ****** ****** ****** ****** ****** ****** ****** ****** ******
      ****** ****** ****** ****** ****** ****** ****** ****** ****** ******
      ****** ****** ****** ****** ****** ****** ****** ****** ****** ******
  24  ****** ****** ****** ****** ****** ****** ****** ****** ****** ******
      ****** ****** ****** ****** ****** ****** ****** ****** ****** ******
      ****** ****** ****** ****** ****** ****** ****** ****** ****** ******
  25  ****** ****** ****** ****** ****** ****** ****** ****** ****** ******
      ****** ****** ****** ****** ****** ****** ****** ****** ****** ******
      ****** ****** ****** ****** ****** ****** ****** ****** ****** ******

 HEAD WILL BE SAVED ON UNIT   51 AT END OF TIME STEP    1, STRESS PERIOD    4
1
  VOLUMETRIC BUDGET FOR ENTIRE MODEL AT END OF TIME STEP    1, STRESS PERIOD   4
  ------------------------------------------------------------------------------

     CUMULATIVE VOLUMES      L**3       RATES FOR THIS TIME STEP      L**3/T
     ------------------                 ------------------------

           IN:                                      IN:
           ---                                      ---
             STORAGE =    30177562.3708               STORAGE =       20020.2273
       CONSTANT HEAD =     7671558.3856         CONSTANT HEAD =       28615.9390
               WELLS =           0.0000                 WELLS =           0.0000
            RECHARGE =     8804400.0000              RECHARGE =       27600.0000
      STREAM LEAKAGE =     2527929.5899        STREAM LEAKAGE =        9291.9532

            TOTAL IN =    49181450.3463              TOTAL IN =       85528.1195

          OUT:                                     OUT:
          ----                                     ----
             STORAGE =        1132.8968               STORAGE =          12.4494
       CONSTANT HEAD =           0.0000         CONSTANT HEAD =           0.0000
               WELLS =    13014208.1588                 WELLS =       35655.3648
            RECHARGE =           0.0000              RECHARGE =           0.0000
      STREAM LEAKAGE =    36166111.2873        STREAM LEAKAGE =       49860.3061

           TOTAL OUT =    49181452.3429             TOTAL OUT =       85528.1204

            IN - OUT =          -1.9965              IN - OUT =      -8.7925E-04

 PERCENT DISCREPANCY =          -0.00     PERCENT DISCREPANCY =          -0.00






         TIME SUMMARY AT END OF TIME STEP    1 IN STRESS PERIOD    4
                    SECONDS     MINUTES      HOURS       DAYS        YEARS
                    -----------------------------------------------------------
   TIME STEP LENGTH 7.86240E+06 1.31040E+05  2184.0      91.000     0.24914    
 STRESS PERIOD TIME 7.86240E+06 1.31040E+05  2184.0      91.000     0.24914    
         TOTAL TIME 3.15360E+07 5.25600E+05  8760.0      365.00     0.99932    
1
1
                            STRESS PERIOD NO.    5, LENGTH =   92.00000    
                            -----------------------------------------------

                              NUMBER OF TIME STEPS =     1

                               MULTIPLIER FOR DELT =     1.500

                            INITIAL TIME STEP SIZE =   92.00000    

 WELL NO.  LAYER   ROW   COL   STRESS RATE         
 --------------------------------------------------
      1      1     17     24      -1629.    
      2      1      9     25     -0.1155E+05
      3      1      8     20      -8674.    
      4      1     10     13     -0.1380E+05

      4 WELLS

                 RECHARGE =  5.000000E-04

 REUSING STREAM SEGMENT DATA FROM LAST STRESS PERIOD
 
 SOLVING FOR HEAD 


     7 CALLS TO PCG ROUTINE FOR TIME STEP   1 IN STRESS PERIOD    5
    26 TOTAL ITERATIONS

 OUTPUT CONTROL FOR STRESS PERIOD    5   TIME STEP    1
    SAVE BUDGET
    SAVE HEAD FOR ALL LAYERS
    PRINT HEAD FOR ALL LAYERS
 UBDSV2 SAVING "STREAMFLOW OUT  " ON UNIT  50 AT TIME STEP  1, STRESS PERIOD   5



 STREAM LISTING     PERIOD      5   STEP        1

 LAYER ROW COL. STREAM  RCH.  FLOW INTO     FLOW TO   FLOW OUT OF   OVRLND.     DIRECT     STREAM       STREAM     STREAM     STREAM   STREAMBED  STREAMBED
                SEG.NO.  NO.  STRM. RCH.    AQUIFER    STRM. RCH.    RUNOFF     PRECIP       ET          HEAD       DEPTH      WIDTH   CONDCTNC.   GRADIENT

   1   13    1     1     1    1.0000E+05 -1.9428E+03   1.0194E+05  0.000E+00  0.000E+00  0.000E+00  4.84069E+01  1.455E-01  2.000E+01  2.000E+04 -9.714E-02
   1   13    2     1     2    1.0194E+05 -2.9406E+03   1.0488E+05  0.000E+00  0.000E+00  0.000E+00  4.79317E+01  1.476E-01  2.000E+01  2.000E+04 -1.470E-01
   1   14    3     1     3    1.0488E+05 -4.8693E+02   1.0537E+05  0.000E+00  0.000E+00  0.000E+00  4.74559E+01  1.491E-01  2.000E+01  2.000E+04 -2.435E-02
   1   15    4     1     4    1.0537E+05 -4.5915E+02   1.0583E+05  0.000E+00  0.000E+00  0.000E+00  4.69790E+01  1.495E-01  2.000E+01  2.000E+04 -2.296E-02
   1   16    5     1     5    1.0583E+05 -1.7368E+03   1.0757E+05  0.000E+00  0.000E+00  0.000E+00  4.65027E+01  1.504E-01  2.000E+01  2.000E+04 -8.684E-02
   1   16    6     1     6    1.0757E+05 -1.1005E+03   1.0867E+05  0.000E+00  0.000E+00  0.000E+00  4.60266E+01  1.516E-01  2.000E+01  2.000E+04 -5.503E-02
   1   16    7     1     7    1.0867E+05 -1.0800E+03   1.0975E+05  0.000E+00  0.000E+00  0.000E+00  4.55502E+01  1.525E-01  2.000E+01  2.000E+04 -5.400E-02
   1   16    8     1     8    1.0975E+05 -1.0701E+03   1.1082E+05  0.000E+00  0.000E+00  0.000E+00  4.50739E+01  1.534E-01  2.000E+01  2.000E+04 -5.350E-02
   1   16    9     1     9    1.1082E+05 -1.0519E+03   1.1187E+05  0.000E+00  0.000E+00  0.000E+00  4.45975E+01  1.543E-01  2.000E+01  2.000E+04 -5.260E-02
   1   16   10     1    10    1.1187E+05 -1.0272E+03   1.1290E+05  0.000E+00  0.000E+00  0.000E+00  4.41211E+01  1.551E-01  2.000E+01  2.000E+04 -5.136E-02
   1   16   11     1    11    1.1290E+05 -1.0170E+03   1.1391E+05  0.000E+00  0.000E+00  0.000E+00  4.36446E+01  1.560E-01  2.000E+01  2.000E+04 -5.085E-02
   1   16   12     1    12    1.1391E+05 -1.5448E+03   1.1546E+05  0.000E+00  0.000E+00  0.000E+00  4.31684E+01  1.570E-01  2.000E+01  2.000E+04 -7.724E-02
   1   15   13     1    13    1.1546E+05 -7.9585E+02   1.1625E+05  0.000E+00  0.000E+00  0.000E+00  4.26921E+01  1.580E-01  2.000E+01  2.000E+04 -3.979E-02
   1   14   14     1    14    1.1625E+05 -4.1673E+02   1.1667E+05  0.000E+00  0.000E+00  0.000E+00  4.22153E+01  1.585E-01  2.000E+01  2.000E+04 -2.084E-02
   1   13   15     1    15    1.1667E+05 -1.8434E+02   1.1685E+05  0.000E+00  0.000E+00  0.000E+00  4.17383E+01  1.587E-01  2.000E+01  2.000E+04 -9.217E-03
   1   12   16     1    16    1.1685E+05 -2.6728E+02   1.1712E+05  0.000E+00  0.000E+00  0.000E+00  4.12612E+01  1.589E-01  2.000E+01  2.000E+04 -1.336E-02
   1   12   17     1    17    1.1712E+05 -6.6615E+02   1.1779E+05  0.000E+00  0.000E+00  0.000E+00  4.07843E+01  1.593E-01  2.000E+01  2.000E+04 -3.331E-02
   1   12   18     1    18    1.1779E+05 -6.7757E+02   1.1847E+05  0.000E+00  0.000E+00  0.000E+00  4.03076E+01  1.599E-01  2.000E+01  2.000E+04 -3.388E-02
   1   12   19     1    19    1.1847E+05 -6.4737E+02   1.1911E+05  0.000E+00  0.000E+00  0.000E+00  3.98308E+01  1.604E-01  2.000E+01  2.000E+04 -3.237E-02
   1   13   20     1    20    1.1911E+05 -9.5755E+02   1.2007E+05  0.000E+00  0.000E+00  0.000E+00  3.93542E+01  1.610E-01  2.000E+01  2.000E+04 -4.788E-02
   1   14   21     1    21    1.2007E+05 -1.3285E+03   1.2140E+05  0.000E+00  0.000E+00  0.000E+00  3.88779E+01  1.620E-01  2.000E+01  2.000E+04 -6.643E-02
   1   14   22     1    22    1.2140E+05  5.0651E+03   1.1633E+05  0.000E+00  0.000E+00  0.000E+00  3.83991E+01  1.605E-01  2.000E+01  2.000E+04  2.533E-01
   1    9   30     2     1    5.0000E+04 -2.4150E+02   5.0242E+04  0.000E+00  0.000E+00  0.000E+00  4.02410E+01  1.160E-01  2.000E+01  2.000E+04 -1.208E-02
   1    9   29     2     2    5.0242E+04 -4.6999E+02   5.0711E+04  0.000E+00  0.000E+00  0.000E+00  3.99915E+01  1.165E-01  2.000E+01  2.000E+04 -2.350E-02
   1    9   28     2     3    5.0711E+04 -5.0303E+02   5.1215E+04  0.000E+00  0.000E+00  0.000E+00  3.97422E+01  1.172E-01  2.000E+01  2.000E+04 -2.515E-02
   1    9   27     2     4    5.1215E+04  3.6898E+02   5.0846E+04  0.000E+00  0.000E+00  0.000E+00  3.94923E+01  1.173E-01  2.000E+01  2.000E+04  1.845E-02
   1   10   26     2     5    5.0846E+04  2.0641E+03   4.8781E+04  0.000E+00  0.000E+00  0.000E+00  3.92406E+01  1.156E-01  2.000E+01  2.000E+04  1.032E-01
   1   11   25     2     6    4.8781E+04  1.2738E+03   4.7508E+04  0.000E+00  0.000E+00  0.000E+00  3.89883E+01  1.133E-01  2.000E+01  2.000E+04  6.369E-02
   1   12   24     2     7    4.7508E+04  4.3268E+00   4.7503E+04  0.000E+00  0.000E+00  0.000E+00  3.87374E+01  1.124E-01  2.000E+01  2.000E+04  2.163E-04
   1   13   23     2     8    4.7503E+04 -4.6695E+01   4.7550E+04  0.000E+00  0.000E+00  0.000E+00  3.84874E+01  1.124E-01  2.000E+01  2.000E+04 -2.335E-03
   1   14   22     2     9    4.7550E+04  1.8060E+03   4.5744E+04  0.000E+00  0.000E+00  0.000E+00  3.82361E+01  1.111E-01  2.000E+01  2.000E+04  9.030E-02
   1   14   22     3     1    1.6208E+05 -8.5477E+03   1.7063E+05  0.000E+00  0.000E+00  0.000E+00  3.77185E+01  1.629E-01  2.000E+01  2.000E+04 -4.274E-01
   1   15   23     3     2    1.7063E+05 -4.3615E+02   1.7106E+05  0.000E+00  0.000E+00  0.000E+00  3.68322E+01  1.655E-01  2.000E+01  2.000E+04 -2.181E-02
   1   15   24     3     3    1.7106E+05 -5.9076E+01   1.7112E+05  0.000E+00  0.000E+00  0.000E+00  3.59434E+01  1.657E-01  2.000E+01  2.000E+04 -2.954E-03
   1   15   25     3     4    1.7112E+05 -1.2856E+02   1.7125E+05  0.000E+00  0.000E+00  0.000E+00  3.50546E+01  1.657E-01  2.000E+01  2.000E+04 -6.428E-03
   1   15   26     3     5    1.7125E+05 -2.4545E+02   1.7150E+05  0.000E+00  0.000E+00  0.000E+00  3.41658E+01  1.658E-01  2.000E+01  2.000E+04 -1.227E-02
   1   16   27     3     6    1.7150E+05 -2.5591E+02   1.7175E+05  0.000E+00  0.000E+00  0.000E+00  3.32771E+01  1.660E-01  2.000E+01  2.000E+04 -1.280E-02
   1   17   28     3     7    1.7175E+05 -1.4292E+03   1.7318E+05  0.000E+00  0.000E+00  0.000E+00  3.23887E+01  1.665E-01  2.000E+01  2.000E+04 -7.146E-02
   1   18   29     3     8    1.7318E+05 -2.8818E+03   1.7606E+05  0.000E+00  0.000E+00  0.000E+00  3.15010E+01  1.677E-01  2.000E+01  2.000E+04 -1.441E-01
   1   18   30     3     9    1.7606E+05 -3.1538E+03   1.7922E+05  0.000E+00  0.000E+00  0.000E+00  3.06139E+01  1.694E-01  2.000E+01  2.000E+04 -1.577E-01



1
              HEAD IN LAYER   1 AT END OF TIME STEP   1 IN STRESS PERIOD    5
  ---------------------------------------------------------------------------

          1      2      3      4      5      6      7      8      9     10
         11     12     13     14     15     16     17     18     19     20
         21     22     23     24     25     26     27     28     29     30
 .........................................................................
   1  ****** ****** ****** ****** ****** ****** ****** ****** ****** ******
      ****** ****** ****** ****** ****** ****** ****** ****** ****** ******
      ****** ****** ****** ****** ****** ****** ****** ****** ****** ******
   2  ****** ****** ****** ****** ****** ****** ****** ****** ****** ******
      ****** ****** ****** ****** ****** ****** ****** ****** ****** ******
      ****** ****** ****** ****** ****** ****** ****** ****** ****** ******
   3  ****** ****** ****** ****** ****** ****** ****** ****** ****** ******
      ****** ****** ****** ****** ****** ****** ****** ****** ****** ******
      ****** ****** ****** ****** ****** ****** ****** ****** ****** ******
   4  ****** ****** ****** ****** ****** ****** ****** ****** ****** ******
      ****** ****** ****** ****** ****** ****** ****** ****** ****** ******
      ****** ****** ****** ****** ****** ****** ****** ****** ****** ******
   5  ****** ****** ****** ****** ****** ****** ****** ****** ****** ******
      ****** ****** ****** ****** ****** ****** ****** ****** ****** ******
      ****** ****** ****** ****** ****** ****** ****** ****** ****** ******
   6  ****** ****** ****** ****** ****** ****** ****** ****** ****** ******
      ****** ****** ****** ****** ****** ****** ****** ****** ****** ******
      ****** ****** ****** ****** ****** ****** ****** ****** ****** ******
   7  ****** ****** ****** ****** ****** ****** ****** ****** ****** ******
      ****** ****** ****** ****** ****** ****** ****** ****** ****** ******
      ****** ****** ****** ****** ****** ****** ****** ****** ****** ******
   8  ****** ****** ****** ****** ****** ****** ****** ****** ****** ******
      ****** ****** ****** ****** ****** ****** ****** ****** ****** ******
      ****** ****** ****** ****** ****** ****** ****** ****** ****** ******
   9  ****** ****** ****** ****** ****** ****** ****** ****** ****** ******
      ****** ****** ****** ****** ****** ****** ****** ****** ****** ******
      ****** ****** ****** ****** ****** ****** ****** ****** ****** ******
  10  ****** ****** ****** ****** ****** ****** ****** ****** ****** ******
      ****** ****** ****** ****** ****** ****** ****** ****** ****** ******
      ****** ****** ****** ****** ****** ****** ****** ****** ****** ******
  11  ****** ****** ****** ****** ****** ****** ****** ****** ****** ******
      ****** ****** ****** ****** ****** ****** ****** ****** ****** ******
      ****** ****** ****** ****** ****** ****** ****** ****** ****** ******
  12  ****** ****** ****** ****** ****** ****** ****** ****** ****** ******
      ****** ****** ****** ****** ****** ****** ****** ****** ****** ******
      ****** ****** ****** ****** ****** ****** ****** ****** ****** ******
  13  ****** ****** ****** ****** ****** ****** ****** ****** ****** ******
      ****** ****** ****** ****** ****** ****** ****** ****** ****** ******
      ****** ****** ****** ****** ****** ****** ****** ****** ****** ******
  14  ****** ****** ****** ****** ****** ****** ****** ****** ****** ******
      ****** ****** ****** ****** ****** ****** ****** ****** ****** ******
      ****** ****** ****** ****** ****** ****** ****** ****** ****** ******
  15  ****** ****** ****** ****** ****** ****** ****** ****** ****** ******
      ****** ****** ****** ****** ****** ****** ****** ****** ****** ******
      ****** ****** ****** ****** ****** ****** ****** ****** ****** ******
  16  ****** ****** ****** ****** ****** ****** ****** ****** ****** ******
      ****** ****** ****** ****** ****** ****** ****** ****** ****** ******
      ****** ****** ****** ****** ****** ****** ****** ****** ****** ******
  17  ****** ****** ****** ****** ****** ****** ****** ****** ****** ******
      ****** ****** ****** ****** ****** ****** ****** ****** ****** ******
      ****** ****** ****** ****** ****** ****** ****** ****** ****** ******
  18  ****** ****** ****** ****** ****** ****** ****** ****** ****** ******
      ****** ****** ****** ****** ****** ****** ****** ****** ****** ******
      ****** ****** ****** ****** ****** ****** ****** ****** ****** ******
  19  ****** ****** ****** ****** ****** ****** ****** ****** ****** ******
      ****** ****** ****** ****** ****** ****** ****** ****** ****** ******
      ****** ****** ****** ****** ****** ****** ****** ****** ****** ******
  20  ****** ****** ****** ****** ****** ****** ****** ****** ****** ******
      ****** ****** ****** ****** ****** ****** ****** ****** ****** ******
      ****** ****** ****** ****** ****** ****** ****** ****** ****** ******
  21  ****** ****** ****** ****** ****** ****** ****** ****** ****** ******
      ****** ****** ****** ****** ****** ****** ****** ****** ****** ******
      ****** ****** ****** ****** ****** ****** ****** ****** ****** ******
  22  ****** ****** ****** ****** ****** ****** ****** ****** ****** ******
      ****** ****** ****** ****** ****** ****** ****** ****** ****** ******
      ****** ****** ****** ****** ****** ****** ****** ****** ****** ******
  23  ****** ****** ****** ****** ****** ****** ****** ****** ****** ******
      ****** ****** ****** ****** ****** ****** ****** ****** ****** ******
      ****** ****** ****** ****** ****** ****** ****** ****** ****** ******
  24  ****** ****** ****** ****** ****** ****** ****** ****** ****** ******
      ****** ****** ****** ****** ****** ****** ****** ****** ****** ******
      ****** ****** ****** ****** ****** ****** ****** ****** ****** ******
  25  ****** ****** ****** ****** ****** ****** ****** ****** ****** ******
      ****** ****** ****** ****** ****** ****** ****** ****** ****** ******
      ****** ****** ****** ****** ****** ****** ****** ****** ****** ******

 HEAD WILL BE SAVED ON UNIT   51 AT END OF TIME STEP    1, STRESS PERIOD    5
1
  VOLUMETRIC BUDGET FOR ENTIRE MODEL AT END OF TIME STEP    1, STRESS PERIOD   5
  ------------------------------------------------------------------------------

     CUMULATIVE VOLUMES      L**3       RATES FOR THIS TIME STEP      L**3/T
     ------------------                 ------------------------

           IN:                                      IN:
           ---                                      ---
             STORAGE =    31963463.8258               STORAGE =       19411.9723
       CONSTANT HEAD =    10584199.1675         CONSTANT HEAD =       31659.1389
               WELLS =           0.0000                 WELLS =           0.0000
            RECHARGE =    10074000.0000              RECHARGE =       13800.0000
      STREAM LEAKAGE =     3501487.3852        STREAM LEAKAGE =       10582.1499

            TOTAL IN =    56123150.3785              TOTAL IN =       75453.2612

          OUT:                                     OUT:
          ----                                     ----
             STORAGE =        1132.8968               STORAGE =           0.0000
       CONSTANT HEAD =           0.0000         CONSTANT HEAD =           0.0000
               WELLS =    16294501.7221                 WELLS =       35655.3648
            RECHARGE =           0.0000              RECHARGE =           0.0000
      STREAM LEAKAGE =    39827518.0600        STREAM LEAKAGE =       39797.8997

           TOTAL OUT =    56123152.6789             TOTAL OUT =       75453.2645

            IN - OUT =          -2.3003              IN - OUT =      -3.3022E-03

 PERCENT DISCREPANCY =          -0.00     PERCENT DISCREPANCY =          -0.00






         TIME SUMMARY AT END OF TIME STEP    1 IN STRESS PERIOD    5
                    SECONDS     MINUTES      HOURS       DAYS        YEARS
                    -----------------------------------------------------------
   TIME STEP LENGTH 7.94880E+06 1.32480E+05  2208.0      92.000     0.25188    
 STRESS PERIOD TIME 7.94880E+06 1.32480E+05  2208.0      92.000     0.25188    
         TOTAL TIME 3.94848E+07 6.58080E+05  10968.      457.00      1.2512    
1
1
                            STRESS PERIOD NO.    6, LENGTH =   91.00000    
                            -----------------------------------------------

                              NUMBER OF TIME STEPS =     1

                               MULTIPLIER FOR DELT =     1.500

                            INITIAL TIME STEP SIZE =   91.00000    

 WELL NO.  LAYER   ROW   COL   STRESS RATE         
 --------------------------------------------------
      1      1     17     24      -1629.    
      2      1      9     25     -0.1155E+05
      3      1      8     20      -8674.    
      4      1     10     13     -0.1380E+05

      4 WELLS

                 RECHARGE =  2.000000E-03

 REUSING STREAM SEGMENT DATA FROM LAST STRESS PERIOD
 
 SOLVING FOR HEAD 


     7 CALLS TO PCG ROUTINE FOR TIME STEP   1 IN STRESS PERIOD    6
    26 TOTAL ITERATIONS

 OUTPUT CONTROL FOR STRESS PERIOD    6   TIME STEP    1
    SAVE BUDGET
    SAVE HEAD FOR ALL LAYERS
    PRINT HEAD FOR ALL LAYERS
 UBDSV2 SAVING "STREAMFLOW OUT  " ON UNIT  50 AT TIME STEP  1, STRESS PERIOD   6



 STREAM LISTING     PERIOD      6   STEP        1

 LAYER ROW COL. STREAM  RCH.  FLOW INTO     FLOW TO   FLOW OUT OF   OVRLND.     DIRECT     STREAM       STREAM     STREAM     STREAM   STREAMBED  STREAMBED
                SEG.NO.  NO.  STRM. RCH.    AQUIFER    STRM. RCH.    RUNOFF     PRECIP       ET          HEAD       DEPTH      WIDTH   CONDCTNC.   GRADIENT

   1   13    1     1     1    1.0000E+05 -2.2340E+03   1.0223E+05  0.000E+00  0.000E+00  0.000E+00  4.84070E+01  1.456E-01  2.000E+01  2.000E+04 -1.117E-01
   1   13    2     1     2    1.0223E+05 -3.2578E+03   1.0549E+05  0.000E+00  0.000E+00  0.000E+00  4.79321E+01  1.480E-01  2.000E+01  2.000E+04 -1.629E-01
   1   14    3     1     3    1.0549E+05 -6.3823E+02   1.0613E+05  0.000E+00  0.000E+00  0.000E+00  4.74565E+01  1.496E-01  2.000E+01  2.000E+04 -3.191E-02
   1   15    4     1     4    1.0613E+05 -6.2280E+02   1.0675E+05  0.000E+00  0.000E+00  0.000E+00  4.69797E+01  1.502E-01  2.000E+01  2.000E+04 -3.114E-02
   1   16    5     1     5    1.0675E+05 -2.2340E+03   1.0899E+05  0.000E+00  0.000E+00  0.000E+00  4.65037E+01  1.514E-01  2.000E+01  2.000E+04 -1.117E-01
   1   16    6     1     6    1.0899E+05 -1.3904E+03   1.1038E+05  0.000E+00  0.000E+00  0.000E+00  4.60279E+01  1.529E-01  2.000E+01  2.000E+04 -6.952E-02
   1   16    7     1     7    1.1038E+05 -1.3541E+03   1.1173E+05  0.000E+00  0.000E+00  0.000E+00  4.55518E+01  1.540E-01  2.000E+01  2.000E+04 -6.771E-02
   1   16    8     1     8    1.1173E+05 -1.3395E+03   1.1307E+05  0.000E+00  0.000E+00  0.000E+00  4.50756E+01  1.552E-01  2.000E+01  2.000E+04 -6.697E-02
   1   16    9     1     9    1.1307E+05 -1.3212E+03   1.1439E+05  0.000E+00  0.000E+00  0.000E+00  4.45994E+01  1.563E-01  2.000E+01  2.000E+04 -6.606E-02
   1   16   10     1    10    1.1439E+05 -1.2989E+03   1.1569E+05  0.000E+00  0.000E+00  0.000E+00  4.41232E+01  1.573E-01  2.000E+01  2.000E+04 -6.495E-02
   1   16   11     1    11    1.1569E+05 -1.2935E+03   1.1698E+05  0.000E+00  0.000E+00  0.000E+00  4.36470E+01  1.584E-01  2.000E+01  2.000E+04 -6.467E-02
   1   16   12     1    12    1.1698E+05 -1.9900E+03   1.1897E+05  0.000E+00  0.000E+00  0.000E+00  4.31711E+01  1.597E-01  2.000E+01  2.000E+04 -9.950E-02
   1   15   13     1    13    1.1897E+05 -1.2412E+03   1.2022E+05  0.000E+00  0.000E+00  0.000E+00  4.26951E+01  1.610E-01  2.000E+01  2.000E+04 -6.206E-02
   1   14   14     1    14    1.2022E+05 -8.5032E+02   1.2107E+05  0.000E+00  0.000E+00  0.000E+00  4.22187E+01  1.619E-01  2.000E+01  2.000E+04 -4.252E-02
   1   13   15     1    15    1.2107E+05 -5.9228E+02   1.2166E+05  0.000E+00  0.000E+00  0.000E+00  4.17420E+01  1.625E-01  2.000E+01  2.000E+04 -2.961E-02
   1   12   16     1    16    1.2166E+05 -6.1738E+02   1.2228E+05  0.000E+00  0.000E+00  0.000E+00  4.12652E+01  1.630E-01  2.000E+01  2.000E+04 -3.087E-02
   1   12   17     1    17    1.2228E+05 -9.6228E+02   1.2324E+05  0.000E+00  0.000E+00  0.000E+00  4.07886E+01  1.636E-01  2.000E+01  2.000E+04 -4.811E-02
   1   12   18     1    18    1.2324E+05 -9.7993E+02   1.2422E+05  0.000E+00  0.000E+00  0.000E+00  4.03121E+01  1.644E-01  2.000E+01  2.000E+04 -4.900E-02
   1   12   19     1    19    1.2422E+05 -1.0221E+03   1.2524E+05  0.000E+00  0.000E+00  0.000E+00  3.98356E+01  1.652E-01  2.000E+01  2.000E+04 -5.110E-02
   1   13   20     1    20    1.2524E+05 -1.3730E+03   1.2661E+05  0.000E+00  0.000E+00  0.000E+00  3.93593E+01  1.661E-01  2.000E+01  2.000E+04 -6.865E-02
   1   14   21     1    21    1.2661E+05 -1.7418E+03   1.2835E+05  0.000E+00  0.000E+00  0.000E+00  3.88832E+01  1.673E-01  2.000E+01  2.000E+04 -8.709E-02
   1   14   22     1    22    1.2835E+05  4.9560E+03   1.2340E+05  0.000E+00  0.000E+00  0.000E+00  3.84047E+01  1.661E-01  2.000E+01  2.000E+04  2.478E-01
   1    9   30     2     1    5.0000E+04 -5.9842E+02   5.0598E+04  0.000E+00  0.000E+00  0.000E+00  4.02413E+01  1.163E-01  2.000E+01  2.000E+04 -2.992E-02
   1    9   29     2     2    5.0598E+04 -8.2209E+02   5.1421E+04  0.000E+00  0.000E+00  0.000E+00  3.99923E+01  1.173E-01  2.000E+01  2.000E+04 -4.110E-02
   1    9   28     2     3    5.1421E+04 -8.4717E+02   5.2268E+04  0.000E+00  0.000E+00  0.000E+00  3.97434E+01  1.184E-01  2.000E+01  2.000E+04 -4.236E-02
   1    9   27     2     4    5.2268E+04 -5.9851E+01   5.2328E+04  0.000E+00  0.000E+00  0.000E+00  3.94940E+01  1.190E-01  2.000E+01  2.000E+04 -2.993E-03
   1   10   26     2     5    5.2328E+04  1.6076E+03   5.0720E+04  0.000E+00  0.000E+00  0.000E+00  3.92430E+01  1.180E-01  2.000E+01  2.000E+04  8.038E-02
   1   11   25     2     6    5.0720E+04  8.3072E+02   4.9889E+04  0.000E+00  0.000E+00  0.000E+00  3.89913E+01  1.163E-01  2.000E+01  2.000E+04  4.154E-02
   1   12   24     2     7    4.9889E+04 -3.9427E+02   5.0283E+04  0.000E+00  0.000E+00  0.000E+00  3.87410E+01  1.160E-01  2.000E+01  2.000E+04 -1.971E-02
   1   13   23     2     8    5.0283E+04 -1.8280E+02   5.0466E+04  0.000E+00  0.000E+00  0.000E+00  3.84914E+01  1.164E-01  2.000E+01  2.000E+04 -9.140E-03
   1   14   22     2     9    5.0466E+04  1.6689E+03   4.8797E+04  0.000E+00  0.000E+00  0.000E+00  3.82404E+01  1.154E-01  2.000E+01  2.000E+04  8.345E-02
   1   14   22     3     1    1.7220E+05 -8.6510E+03   1.8085E+05  0.000E+00  0.000E+00  0.000E+00  3.77244E+01  1.688E-01  2.000E+01  2.000E+04 -4.325E-01
   1   15   23     3     2    1.8085E+05 -5.7425E+02   1.8142E+05  0.000E+00  0.000E+00  0.000E+00  3.68381E+01  1.714E-01  2.000E+01  2.000E+04 -2.871E-02
   1   15   24     3     3    1.8142E+05 -1.8108E+02   1.8160E+05  0.000E+00  0.000E+00  0.000E+00  3.59494E+01  1.716E-01  2.000E+01  2.000E+04 -9.054E-03
   1   15   25     3     4    1.8160E+05 -2.5491E+02   1.8186E+05  0.000E+00  0.000E+00  0.000E+00  3.50607E+01  1.718E-01  2.000E+01  2.000E+04 -1.275E-02
   1   15   26     3     5    1.8186E+05 -3.9677E+02   1.8225E+05  0.000E+00  0.000E+00  0.000E+00  3.41720E+01  1.720E-01  2.000E+01  2.000E+04 -1.984E-02
   1   16   27     3     6    1.8225E+05 -4.2460E+02   1.8268E+05  0.000E+00  0.000E+00  0.000E+00  3.32833E+01  1.722E-01  2.000E+01  2.000E+04 -2.123E-02
   1   17   28     3     7    1.8268E+05 -1.8934E+03   1.8457E+05  0.000E+00  0.000E+00  0.000E+00  3.23951E+01  1.728E-01  2.000E+01  2.000E+04 -9.467E-02
   1   18   29     3     8    1.8457E+05 -3.3257E+03   1.8790E+05  0.000E+00  0.000E+00  0.000E+00  3.15076E+01  1.743E-01  2.000E+01  2.000E+04 -1.663E-01
   1   18   30     3     9    1.8790E+05 -3.5128E+03   1.9141E+05  0.000E+00  0.000E+00  0.000E+00  3.06207E+01  1.762E-01  2.000E+01  2.000E+04 -1.756E-01



1
              HEAD IN LAYER   1 AT END OF TIME STEP   1 IN STRESS PERIOD    6
  ---------------------------------------------------------------------------

          1      2      3      4      5      6      7      8      9     10
         11     12     13     14     15     16     17     18     19     20
         21     22     23     24     25     26     27     28     29     30
 .........................................................................
   1  ****** ****** ****** ****** ****** ****** ****** ****** ****** ******
      ****** ****** ****** ****** ****** ****** ****** ****** ****** ******
      ****** ****** ****** ****** ****** ****** ****** ****** ****** ******
   2  ****** ****** ****** ****** ****** ****** ****** ****** ****** ******
      ****** ****** ****** ****** ****** ****** ****** ****** ****** ******
      ****** ****** ****** ****** ****** ****** ****** ****** ****** ******
   3  ****** ****** ****** ****** ****** ****** ****** ****** ****** ******
      ****** ****** ****** ****** ****** ****** ****** ****** ****** ******
      ****** ****** ****** ****** ****** ****** ****** ****** ****** ******
   4  ****** ****** ****** ****** ****** ****** ****** ****** ****** ******
      ****** ****** ****** ****** ****** ****** ****** ****** ****** ******
      ****** ****** ****** ****** ****** ****** ****** ****** ****** ******
   5  ****** ****** ****** ****** ****** ****** ****** ****** ****** ******
      ****** ****** ****** ****** ****** ****** ****** ****** ****** ******
      ****** ****** ****** ****** ****** ****** ****** ****** ****** ******
   6  ****** ****** ****** ****** ****** ****** ****** ****** ****** ******
      ****** ****** ****** ****** ****** ****** ****** ****** ****** ******
      ****** ****** ****** ****** ****** ****** ****** ****** ****** ******
   7  ****** ****** ****** ****** ****** ****** ****** ****** ****** ******
      ****** ****** ****** ****** ****** ****** ****** ****** ****** ******
      ****** ****** ****** ****** ****** ****** ****** ****** ****** ******
   8  ****** ****** ****** ****** ****** ****** ****** ****** ****** ******
      ****** ****** ****** ****** ****** ****** ****** ****** ****** ******
      ****** ****** ****** ****** ****** ****** ****** ****** ****** ******
   9  ****** ****** ****** ****** ****** ****** ****** ****** ****** ******
      ****** ****** ****** ****** ****** ****** ****** ****** ****** ******
      ****** ****** ****** ****** ****** ****** ****** ****** ****** ******
  10  ****** ****** ****** ****** ****** ****** ****** ****** ****** ******
      ****** ****** ****** ****** ****** ****** ****** ****** ****** ******
      ****** ****** ****** ****** ****** ****** ****** ****** ****** ******
  11  ****** ****** ****** ****** ****** ****** ****** ****** ****** ******
      ****** ****** ****** ****** ****** ****** ****** ****** ****** ******
      ****** ****** ****** ****** ****** ****** ****** ****** ****** ******
  12  ****** ****** ****** ****** ****** ****** ****** ****** ****** ******
      ****** ****** ****** ****** ****** ****** ****** ****** ****** ******
      ****** ****** ****** ****** ****** ****** ****** ****** ****** ******
  13  ****** ****** ****** ****** ****** ****** ****** ****** ****** ******
      ****** ****** ****** ****** ****** ****** ****** ****** ****** ******
      ****** ****** ****** ****** ****** ****** ****** ****** ****** ******
  14  ****** ****** ****** ****** ****** ****** ****** ****** ****** ******
      ****** ****** ****** ****** ****** ****** ****** ****** ****** ******
      ****** ****** ****** ****** ****** ****** ****** ****** ****** ******
  15  ****** ****** ****** ****** ****** ****** ****** ****** ****** ******
      ****** ****** ****** ****** ****** ****** ****** ****** ****** ******
      ****** ****** ****** ****** ****** ****** ****** ****** ****** ******
  16  ****** ****** ****** ****** ****** ****** ****** ****** ****** ******
      ****** ****** ****** ****** ****** ****** ****** ****** ****** ******
      ****** ****** ****** ****** ****** ****** ****** ****** ****** ******
  17  ****** ****** ****** ****** ****** ****** ****** ****** ****** ******
      ****** ****** ****** ****** ****** ****** ****** ****** ****** ******
      ****** ****** ****** ****** ****** ****** ****** ****** ****** ******
  18  ****** ****** ****** ****** ****** ****** ****** ****** ****** ******
      ****** ****** ****** ****** ****** ****** ****** ****** ****** ******
      ****** ****** ****** ****** ****** ****** ****** ****** ****** ******
  19  ****** ****** ****** ****** ****** ****** ****** ****** ****** ******
      ****** ****** ****** ****** ****** ****** ****** ****** ****** ******
      ****** ****** ****** ****** ****** ****** ****** ****** ****** ******
  20  ****** ****** ****** ****** ****** ****** ****** ****** ****** ******
      ****** ****** ****** ****** ****** ****** ****** ****** ****** ******
      ****** ****** ****** ****** ****** ****** ****** ****** ****** ******
  21  ****** ****** ****** ****** ****** ****** ****** ****** ****** ******
      ****** ****** ****** ****** ****** ****** ****** ****** ****** ******
      ****** ****** ****** ****** ****** ****** ****** ****** ****** ******
  22  ****** ****** ****** ****** ****** ****** ****** ****** ****** ******
      ****** ****** ****** ****** ****** ****** ****** ****** ****** ******
      ****** ****** ****** ****** ****** ****** ****** ****** ****** ******
  23  ****** ****** ****** ****** ****** ****** ****** ****** ****** ******
      ****** ****** ****** ****** ****** ****** ****** ****** ****** ******
      ****** ****** ****** ****** ****** ****** ****** ****** ****** ******
  24  ****** ****** ****** ****** ****** ****** ****** ****** ****** ******
      ****** ****** ****** ****** ****** ****** ****** ****** ****** ******
      ****** ****** ****** ****** ****** ****** ****** ****** ****** ******
  25  ****** ****** ****** ****** ****** ****** ****** ****** ****** ******
      ****** ****** ****** ****** ****** ****** ****** ****** ****** ******
      ****** ****** ****** ****** ****** ****** ****** ****** ****** ******

 HEAD WILL BE SAVED ON UNIT   51 AT END OF TIME STEP    1, STRESS PERIOD    6
1
  VOLUMETRIC BUDGET FOR ENTIRE MODEL AT END OF TIME STEP    1, STRESS PERIOD   6
  ------------------------------------------------------------------------------

     CUMULATIVE VOLUMES      L**3       RATES FOR THIS TIME STEP      L**3/T
     ------------------                 ------------------------

           IN:                                      IN:
           ---                                      ---
             STORAGE =    31966558.7359               STORAGE =          34.0100
       CONSTANT HEAD =    13299724.8367         CONSTANT HEAD =       29840.9414
               WELLS =           0.0000                 WELLS =           0.0000
            RECHARGE =    15097200.0000              RECHARGE =       55200.0000
      STREAM LEAKAGE =     4326241.2848        STREAM LEAKAGE =        9063.2297

            TOTAL IN =    64689724.8575              TOTAL IN =       94138.1811

          OUT:                                     OUT:
          ----                                     ----
             STORAGE =      729941.1665               STORAGE =        8008.8821
       CONSTANT HEAD =           0.0000         CONSTANT HEAD =           0.0000
               WELLS =    19539139.9206                 WELLS =       35655.3648
            RECHARGE =           0.0000              RECHARGE =           0.0000
      STREAM LEAKAGE =    44420645.8091        STREAM LEAKAGE =       50473.9313

           TOTAL OUT =    64689726.8962             TOTAL OUT =       94138.1782

            IN - OUT =          -2.0387              IN - OUT =       2.8747E-03

 PERCENT DISCREPANCY =          -0.00     PERCENT DISCREPANCY =           0.00






         TIME SUMMARY AT END OF TIME STEP    1 IN STRESS PERIOD    6
                    SECONDS     MINUTES      HOURS       DAYS        YEARS
                    -----------------------------------------------------------
   TIME STEP LENGTH 7.86240E+06 1.31040E+05  2184.0      91.000     0.24914    
 STRESS PERIOD TIME 7.86240E+06 1.31040E+05  2184.0      91.000     0.24914    
         TOTAL TIME 4.73472E+07 7.89120E+05  13152.      548.00      1.5003    
1
1
                            STRESS PERIOD NO.    7, LENGTH =   91.00000    
                            -----------------------------------------------

                              NUMBER OF TIME STEPS =     1

                               MULTIPLIER FOR DELT =     1.500

                            INITIAL TIME STEP SIZE =   91.00000    

 WELL NO.  LAYER   ROW   COL   STRESS RATE         
 --------------------------------------------------
      1      1     17     24      -1629.    
      2      1      9     25     -0.1155E+05
      3      1      8     20      -8674.    
      4      1     10     13     -0.1380E+05

      4 WELLS

                 RECHARGE =   0.00000    

 REUSING STREAM SEGMENT DATA FROM LAST STRESS PERIOD
 
 SOLVING FOR HEAD 


     7 CALLS TO PCG ROUTINE FOR TIME STEP   1 IN STRESS PERIOD    7
    26 TOTAL ITERATIONS

 OUTPUT CONTROL FOR STRESS PERIOD    7   TIME STEP    1
    SAVE BUDGET
    SAVE HEAD FOR ALL LAYERS
    PRINT HEAD FOR ALL LAYERS
 UBDSV2 SAVING "STREAMFLOW OUT  " ON UNIT  50 AT TIME STEP  1, STRESS PERIOD   7



 STREAM LISTING     PERIOD      7   STEP        1

 LAYER ROW COL. STREAM  RCH.  FLOW INTO     FLOW TO   FLOW OUT OF   OVRLND.     DIRECT     STREAM       STREAM     STREAM     STREAM   STREAMBED  STREAMBED
                SEG.NO.  NO.  STRM. RCH.    AQUIFER    STRM. RCH.    RUNOFF     PRECIP       ET          HEAD       DEPTH      WIDTH   CONDCTNC.   GRADIENT

   1   13    1     1     1    1.0000E+05 -1.5501E+03   1.0155E+05  0.000E+00  0.000E+00  0.000E+00  4.84067E+01  1.453E-01  2.000E+01  2.000E+04 -7.750E-02
   1   13    2     1     2    1.0155E+05 -2.4917E+03   1.0404E+05  0.000E+00  0.000E+00  0.000E+00  4.79312E+01  1.471E-01  2.000E+01  2.000E+04 -1.246E-01
   1   14    3     1     3    1.0404E+05 -3.8338E+02   1.0443E+05  0.000E+00  0.000E+00  0.000E+00  4.74551E+01  1.483E-01  2.000E+01  2.000E+04 -1.917E-02
   1   15    4     1     4    1.0443E+05 -3.5785E+02   1.0478E+05  0.000E+00  0.000E+00  0.000E+00  4.69782E+01  1.486E-01  2.000E+01  2.000E+04 -1.789E-02
   1   16    5     1     5    1.0478E+05 -1.4808E+03   1.0626E+05  0.000E+00  0.000E+00  0.000E+00  4.65017E+01  1.494E-01  2.000E+01  2.000E+04 -7.404E-02
   1   16    6     1     6    1.0626E+05 -9.3465E+02   1.0720E+05  0.000E+00  0.000E+00  0.000E+00  4.60254E+01  1.504E-01  2.000E+01  2.000E+04 -4.673E-02
   1   16    7     1     7    1.0720E+05 -9.1635E+02   1.0811E+05  0.000E+00  0.000E+00  0.000E+00  4.55489E+01  1.512E-01  2.000E+01  2.000E+04 -4.582E-02
   1   16    8     1     8    1.0811E+05 -9.0760E+02   1.0902E+05  0.000E+00  0.000E+00  0.000E+00  4.50724E+01  1.520E-01  2.000E+01  2.000E+04 -4.538E-02
   1   16    9     1     9    1.0902E+05 -8.9270E+02   1.0992E+05  0.000E+00  0.000E+00  0.000E+00  4.45959E+01  1.527E-01  2.000E+01  2.000E+04 -4.464E-02
   1   16   10     1    10    1.0992E+05 -8.7353E+02   1.1079E+05  0.000E+00  0.000E+00  0.000E+00  4.41194E+01  1.535E-01  2.000E+01  2.000E+04 -4.368E-02
   1   16   11     1    11    1.1079E+05 -8.6780E+02   1.1166E+05  0.000E+00  0.000E+00  0.000E+00  4.36428E+01  1.542E-01  2.000E+01  2.000E+04 -4.339E-02
   1   16   12     1    12    1.1166E+05 -1.2737E+03   1.1293E+05  0.000E+00  0.000E+00  0.000E+00  4.31664E+01  1.551E-01  2.000E+01  2.000E+04 -6.368E-02
   1   15   13     1    13    1.1293E+05 -4.6678E+02   1.1340E+05  0.000E+00  0.000E+00  0.000E+00  4.26899E+01  1.558E-01  2.000E+01  2.000E+04 -2.334E-02
   1   14   14     1    14    1.1340E+05 -4.3885E+01   1.1344E+05  0.000E+00  0.000E+00  0.000E+00  4.22128E+01  1.560E-01  2.000E+01  2.000E+04 -2.194E-03
   1   13   15     1    15    1.1344E+05  2.1987E+02   1.1322E+05  0.000E+00  0.000E+00  0.000E+00  4.17355E+01  1.559E-01  2.000E+01  2.000E+04  1.099E-02
   1   12   16     1    16    1.1322E+05  1.9533E+02   1.1303E+05  0.000E+00  0.000E+00  0.000E+00  4.12580E+01  1.558E-01  2.000E+01  2.000E+04  9.767E-03
   1   12   17     1    17    1.1303E+05 -3.7595E+02   1.1340E+05  0.000E+00  0.000E+00  0.000E+00  4.07808E+01  1.558E-01  2.000E+01  2.000E+04 -1.880E-02
   1   12   18     1    18    1.1340E+05 -4.0919E+02   1.1381E+05  0.000E+00  0.000E+00  0.000E+00  4.03039E+01  1.562E-01  2.000E+01  2.000E+04 -2.046E-02
   1   12   19     1    19    1.1381E+05 -3.2426E+02   1.1414E+05  0.000E+00  0.000E+00  0.000E+00  3.98269E+01  1.565E-01  2.000E+01  2.000E+04 -1.621E-02
   1   13   20     1    20    1.1414E+05 -7.0046E+02   1.1484E+05  0.000E+00  0.000E+00  0.000E+00  3.93501E+01  1.569E-01  2.000E+01  2.000E+04 -3.502E-02
   1   14   21     1    21    1.1484E+05 -1.0825E+03   1.1592E+05  0.000E+00  0.000E+00  0.000E+00  3.88735E+01  1.576E-01  2.000E+01  2.000E+04 -5.413E-02
   1   14   22     1    22    1.1592E+05  5.1160E+03   1.1080E+05  0.000E+00  0.000E+00  0.000E+00  3.83946E+01  1.560E-01  2.000E+01  2.000E+04  2.558E-01
   1    9   30     2     1    5.0000E+04 -8.1129E+01   5.0081E+04  0.000E+00  0.000E+00  0.000E+00  4.02409E+01  1.159E-01  2.000E+01  2.000E+04 -4.056E-03
   1    9   29     2     2    5.0081E+04 -3.0632E+02   5.0387E+04  0.000E+00  0.000E+00  0.000E+00  3.99912E+01  1.162E-01  2.000E+01  2.000E+04 -1.532E-02
   1    9   28     2     3    5.0387E+04 -3.2936E+02   5.0717E+04  0.000E+00  0.000E+00  0.000E+00  3.97416E+01  1.166E-01  2.000E+01  2.000E+04 -1.647E-02
   1    9   27     2     4    5.0717E+04  6.4672E+02   5.0070E+04  0.000E+00  0.000E+00  0.000E+00  3.94914E+01  1.164E-01  2.000E+01  2.000E+04  3.234E-02
   1   10   26     2     5    5.0070E+04  2.3141E+03   4.7756E+04  0.000E+00  0.000E+00  0.000E+00  3.92393E+01  1.143E-01  2.000E+01  2.000E+04  1.157E-01
   1   11   25     2     6    4.7756E+04  1.5079E+03   4.6248E+04  0.000E+00  0.000E+00  0.000E+00  3.89866E+01  1.116E-01  2.000E+01  2.000E+04  7.539E-02
   1   12   24     2     7    4.6248E+04  2.2339E+02   4.6025E+04  0.000E+00  0.000E+00  0.000E+00  3.87354E+01  1.104E-01  2.000E+01  2.000E+04  1.117E-02
   1   13   23     2     8    4.6025E+04  9.9865E+00   4.6015E+04  0.000E+00  0.000E+00  0.000E+00  3.84852E+01  1.102E-01  2.000E+01  2.000E+04  4.993E-04
   1   14   22     2     9    4.6015E+04  1.9013E+03   4.4113E+04  0.000E+00  0.000E+00  0.000E+00  3.82339E+01  1.089E-01  2.000E+01  2.000E+04  9.507E-02
   1   14   22     3     1    1.5492E+05 -8.4920E+03   1.6341E+05  0.000E+00  0.000E+00  0.000E+00  3.77142E+01  1.586E-01  2.000E+01  2.000E+04 -4.246E-01
   1   15   23     3     2    1.6341E+05 -3.6880E+02   1.6378E+05  0.000E+00  0.000E+00  0.000E+00  3.68279E+01  1.613E-01  2.000E+01  2.000E+04 -1.844E-02
   1   15   24     3     3    1.6378E+05 -7.8967E+00   1.6378E+05  0.000E+00  0.000E+00  0.000E+00  3.59392E+01  1.614E-01  2.000E+01  2.000E+04 -3.948E-04
   1   15   25     3     4    1.6378E+05 -7.8561E+01   1.6386E+05  0.000E+00  0.000E+00  0.000E+00  3.50503E+01  1.614E-01  2.000E+01  2.000E+04 -3.928E-03
   1   15   26     3     5    1.6386E+05 -1.9581E+02   1.6406E+05  0.000E+00  0.000E+00  0.000E+00  3.41615E+01  1.615E-01  2.000E+01  2.000E+04 -9.791E-03
   1   16   27     3     6    1.6406E+05 -1.9273E+02   1.6425E+05  0.000E+00  0.000E+00  0.000E+00  3.32727E+01  1.616E-01  2.000E+01  2.000E+04 -9.636E-03
   1   17   28     3     7    1.6425E+05 -1.2540E+03   1.6551E+05  0.000E+00  0.000E+00  0.000E+00  3.23843E+01  1.620E-01  2.000E+01  2.000E+04 -6.270E-02
   1   18   29     3     8    1.6551E+05 -2.6441E+03   1.6815E+05  0.000E+00  0.000E+00  0.000E+00  3.14965E+01  1.632E-01  2.000E+01  2.000E+04 -1.322E-01
   1   18   30     3     9    1.6815E+05 -2.9871E+03   1.7114E+05  0.000E+00  0.000E+00  0.000E+00  3.06093E+01  1.648E-01  2.000E+01  2.000E+04 -1.494E-01



1
              HEAD IN LAYER   1 AT END OF TIME STEP   1 IN STRESS PERIOD    7
  ---------------------------------------------------------------------------

          1      2      3      4      5      6      7      8      9     10
         11     12     13     14     15     16     17     18     19     20
         21     22     23     24     25     26     27     28     29     30
 .........................................................................
   1  ****** ****** ****** ****** ****** ****** ****** ****** ****** ******
      ****** ****** ****** ****** ****** ****** ****** ****** ****** ******
      ****** ****** ****** ****** ****** ****** ****** ****** ****** ******
   2  ****** ****** ****** ****** ****** ****** ****** ****** ****** ******
      ****** ****** ****** ****** ****** ****** ****** ****** ****** ******
      ****** ****** ****** ****** ****** ****** ****** ****** ****** ******
   3  ****** ****** ****** ****** ****** ****** ****** ****** ****** ******
      ****** ****** ****** ****** ****** ****** ****** ****** ****** ******
      ****** ****** ****** ****** ****** ****** ****** ****** ****** ******
   4  ****** ****** ****** ****** ****** ****** ****** ****** ****** ******
      ****** ****** ****** ****** ****** ****** ****** ****** ****** ******
      ****** ****** ****** ****** ****** ****** ****** ****** ****** ******
   5  ****** ****** ****** ****** ****** ****** ****** ****** ****** ******
      ****** ****** ****** ****** ****** ****** ****** ****** ****** ******
      ****** ****** ****** ****** ****** ****** ****** ****** ****** ******
   6  ****** ****** ****** ****** ****** ****** ****** ****** ****** ******
      ****** ****** ****** ****** ****** ****** ****** ****** ****** ******
      ****** ****** ****** ****** ****** ****** ****** ****** ****** ******
   7  ****** ****** ****** ****** ****** ****** ****** ****** ****** ******
      ****** ****** ****** ****** ****** ****** ****** ****** ****** ******
      ****** ****** ****** ****** ****** ****** ****** ****** ****** ******
   8  ****** ****** ****** ****** ****** ****** ****** ****** ****** ******
      ****** ****** ****** ****** ****** ****** ****** ****** ****** ******
      ****** ****** ****** ****** ****** ****** ****** ****** ****** ******
   9  ****** ****** ****** ****** ****** ****** ****** ****** ****** ******
      ****** ****** ****** ****** ****** ****** ****** ****** ****** ******
      ****** ****** ****** ****** ****** ****** ****** ****** ****** ******
  10  ****** ****** ****** ****** ****** ****** ****** ****** ****** ******
      ****** ****** ****** ****** ****** ****** ****** ****** ****** ******
      ****** ****** ****** ****** ****** ****** ****** ****** ****** ******
  11  ****** ****** ****** ****** ****** ****** ****** ****** ****** ******
      ****** ****** ****** ****** ****** ****** ****** ****** ****** ******
      ****** ****** ****** ****** ****** ****** ****** ****** ****** ******
  12  ****** ****** ****** ****** ****** ****** ****** ****** ****** ******
      ****** ****** ****** ****** ****** ****** ****** ****** ****** ******
      ****** ****** ****** ****** ****** ****** ****** ****** ****** ******
  13  ****** ****** ****** ****** ****** ****** ****** ****** ****** ******
      ****** ****** ****** ****** ****** ****** ****** ****** ****** ******
      ****** ****** ****** ****** ****** ****** ****** ****** ****** ******
  14  ****** ****** ****** ****** ****** ****** ****** ****** ****** ******
      ****** ****** ****** ****** ****** ****** ****** ****** ****** ******
      ****** ****** ****** ****** ****** ****** ****** ****** ****** ******
  15  ****** ****** ****** ****** ****** ****** ****** ****** ****** ******
      ****** ****** ****** ****** ****** ****** ****** ****** ****** ******
      ****** ****** ****** ****** ****** ****** ****** ****** ****** ******
  16  ****** ****** ****** ****** ****** ****** ****** ****** ****** ******
      ****** ****** ****** ****** ****** ****** ****** ****** ****** ******
      ****** ****** ****** ****** ****** ****** ****** ****** ****** ******
  17  ****** ****** ****** ****** ****** ****** ****** ****** ****** ******
      ****** ****** ****** ****** ****** ****** ****** ****** ****** ******
      ****** ****** ****** ****** ****** ****** ****** ****** ****** ******
  18  ****** ****** ****** ****** ****** ****** ****** ****** ****** ******
      ****** ****** ****** ****** ****** ****** ****** ****** ****** ******
      ****** ****** ****** ****** ****** ****** ****** ****** ****** ******
  19  ****** ****** ****** ****** ****** ****** ****** ****** ****** ******
      ****** ****** ****** ****** ****** ****** ****** ****** ****** ******
      ****** ****** ****** ****** ****** ****** ****** ****** ****** ******
  20  ****** ****** ****** ****** ****** ****** ****** ****** ****** ******
      ****** ****** ****** ****** ****** ****** ****** ****** ****** ******
      ****** ****** ****** ****** ****** ****** ****** ****** ****** ******
  21  ****** ****** ****** ****** ****** ****** ****** ****** ****** ******
      ****** ****** ****** ****** ****** ****** ****** ****** ****** ******
      ****** ****** ****** ****** ****** ****** ****** ****** ****** ******
  22  ****** ****** ****** ****** ****** ****** ****** ****** ****** ******
      ****** ****** ****** ****** ****** ****** ****** ****** ****** ******
      ****** ****** ****** ****** ****** ****** ****** ****** ****** ******
  23  ****** ****** ****** ****** ****** ****** ****** ****** ****** ******
      ****** ****** ****** ****** ****** ****** ****** ****** ****** ******
      ****** ****** ****** ****** ****** ****** ****** ****** ****** ******
  24  ****** ****** ****** ****** ****** ****** ****** ****** ****** ******
      ****** ****** ****** ****** ****** ****** ****** ****** ****** ******
      ****** ****** ****** ****** ****** ****** ****** ****** ****** ******
  25  ****** ****** ****** ****** ****** ****** ****** ****** ****** ******
      ****** ****** ****** ****** ****** ****** ****** ****** ****** ******
      ****** ****** ****** ****** ****** ****** ****** ****** ****** ******

 HEAD WILL BE SAVED ON UNIT   51 AT END OF TIME STEP    1, STRESS PERIOD    7
1
  VOLUMETRIC BUDGET FOR ENTIRE MODEL AT END OF TIME STEP    1, STRESS PERIOD   7
  ------------------------------------------------------------------------------

     CUMULATIVE VOLUMES      L**3       RATES FOR THIS TIME STEP      L**3/T
     ------------------                 ------------------------

           IN:                                      IN:
           ---                                      ---
             STORAGE =    34055905.8179               STORAGE =       22959.8580
       CONSTANT HEAD =    16378425.5318         CONSTANT HEAD =       33831.8758
               WELLS =           0.0000                 WELLS =           0.0000
            RECHARGE =    15097200.0000              RECHARGE =           0.0000
      STREAM LEAKAGE =     5430490.7101        STREAM LEAKAGE =       12134.6091

            TOTAL IN =    70962022.0599              TOTAL IN =       68926.3429

          OUT:                                     OUT:
          ----                                     ----
             STORAGE =      729941.1665               STORAGE =           0.0000
       CONSTANT HEAD =           0.0000         CONSTANT HEAD =           0.0000
               WELLS =    22783778.1191                 WELLS =       35655.3648
            RECHARGE =           0.0000              RECHARGE =           0.0000
      STREAM LEAKAGE =    47448305.3238        STREAM LEAKAGE =       33270.9837

           TOTAL OUT =    70962024.6094             TOTAL OUT =       68926.3485

            IN - OUT =          -2.5496              IN - OUT =      -5.6132E-03

 PERCENT DISCREPANCY =          -0.00     PERCENT DISCREPANCY =          -0.00






         TIME SUMMARY AT END OF TIME STEP    1 IN STRESS PERIOD    7
                    SECONDS     MINUTES      HOURS       DAYS        YEARS
                    -----------------------------------------------------------
   TIME STEP LENGTH 7.86240E+06 1.31040E+05  2184.0      91.000     0.24914    
 STRESS PERIOD TIME 7.86240E+06 1.31040E+05  2184.0      91.000     0.24914    
         TOTAL TIME 5.52096E+07 9.20160E+05  15336.      639.00      1.7495    
1
1
                            STRESS PERIOD NO.    8, LENGTH =   91.00000    
                            -----------------------------------------------

                              NUMBER OF TIME STEPS =     1

                               MULTIPLIER FOR DELT =     1.500

                            INITIAL TIME STEP SIZE =   91.00000    

 WELL NO.  LAYER   ROW   COL   STRESS RATE         
 --------------------------------------------------
      1      1     17     24      -1629.    
      2      1      9     25     -0.1155E+05
      3      1      8     20      -8674.    
      4      1     10     13     -0.1380E+05

      4 WELLS

                 RECHARGE =  1.000000E-03

 REUSING STREAM SEGMENT DATA FROM LAST STRESS PERIOD
 
 SOLVING FOR HEAD 


     6 CALLS TO PCG ROUTINE FOR TIME STEP   1 IN STRESS PERIOD    8
    22 TOTAL ITERATIONS

 OUTPUT CONTROL FOR STRESS PERIOD    8   TIME STEP    1
    SAVE BUDGET
    SAVE HEAD FOR ALL LAYERS
    PRINT HEAD FOR ALL LAYERS
 UBDSV2 SAVING "STREAMFLOW OUT  " ON UNIT  50 AT TIME STEP  1, STRESS PERIOD   8



 STREAM LISTING     PERIOD      8   STEP        1

 LAYER ROW COL. STREAM  RCH.  FLOW INTO     FLOW TO   FLOW OUT OF   OVRLND.     DIRECT     STREAM       STREAM     STREAM     STREAM   STREAMBED  STREAMBED
                SEG.NO.  NO.  STRM. RCH.    AQUIFER    STRM. RCH.    RUNOFF     PRECIP       ET          HEAD       DEPTH      WIDTH   CONDCTNC.   GRADIENT

   1   13    1     1     1    1.0000E+05 -1.6101E+03   1.0161E+05  0.000E+00  0.000E+00  0.000E+00  4.84067E+01  1.453E-01  2.000E+01  2.000E+04 -8.051E-02
   1   13    2     1     2    1.0161E+05 -2.5489E+03   1.0416E+05  0.000E+00  0.000E+00  0.000E+00  4.79312E+01  1.471E-01  2.000E+01  2.000E+04 -1.274E-01
   1   14    3     1     3    1.0416E+05 -4.4510E+02   1.0460E+05  0.000E+00  0.000E+00  0.000E+00  4.74552E+01  1.484E-01  2.000E+01  2.000E+04 -2.226E-02
   1   15    4     1     4    1.0460E+05 -4.2472E+02   1.0503E+05  0.000E+00  0.000E+00  0.000E+00  4.69783E+01  1.488E-01  2.000E+01  2.000E+04 -2.124E-02
   1   16    5     1     5    1.0503E+05 -1.6544E+03   1.0668E+05  0.000E+00  0.000E+00  0.000E+00  4.65019E+01  1.497E-01  2.000E+01  2.000E+04 -8.272E-02
   1   16    6     1     6    1.0668E+05 -1.0403E+03   1.0772E+05  0.000E+00  0.000E+00  0.000E+00  4.60258E+01  1.508E-01  2.000E+01  2.000E+04 -5.202E-02
   1   16    7     1     7    1.0772E+05 -1.0168E+03   1.0874E+05  0.000E+00  0.000E+00  0.000E+00  4.55494E+01  1.517E-01  2.000E+01  2.000E+04 -5.084E-02
   1   16    8     1     8    1.0874E+05 -1.0072E+03   1.0975E+05  0.000E+00  0.000E+00  0.000E+00  4.50730E+01  1.525E-01  2.000E+01  2.000E+04 -5.036E-02
   1   16    9     1     9    1.0975E+05 -9.9369E+02   1.1074E+05  0.000E+00  0.000E+00  0.000E+00  4.45966E+01  1.534E-01  2.000E+01  2.000E+04 -4.968E-02
   1   16   10     1    10    1.1074E+05 -9.7753E+02   1.1172E+05  0.000E+00  0.000E+00  0.000E+00  4.41201E+01  1.542E-01  2.000E+01  2.000E+04 -4.888E-02
   1   16   11     1    11    1.1172E+05 -9.7556E+02   1.1269E+05  0.000E+00  0.000E+00  0.000E+00  4.36436E+01  1.550E-01  2.000E+01  2.000E+04 -4.878E-02
   1   16   12     1    12    1.1269E+05 -1.4342E+03   1.1413E+05  0.000E+00  0.000E+00  0.000E+00  4.31674E+01  1.560E-01  2.000E+01  2.000E+04 -7.171E-02
   1   15   13     1    13    1.1413E+05 -6.2988E+02   1.1476E+05  0.000E+00  0.000E+00  0.000E+00  4.26909E+01  1.568E-01  2.000E+01  2.000E+04 -3.149E-02
   1   14   14     1    14    1.1476E+05 -1.9697E+02   1.1496E+05  0.000E+00  0.000E+00  0.000E+00  4.22140E+01  1.572E-01  2.000E+01  2.000E+04 -9.848E-03
   1   13   15     1    15    1.1496E+05  8.2326E+01   1.1487E+05  0.000E+00  0.000E+00  0.000E+00  4.17368E+01  1.572E-01  2.000E+01  2.000E+04  4.116E-03
   1   12   16     1    16    1.1487E+05  1.0070E+02   1.1477E+05  0.000E+00  0.000E+00  0.000E+00  4.12594E+01  1.572E-01  2.000E+01  2.000E+04  5.035E-03
   1   12   17     1    17    1.1477E+05 -4.7896E+02   1.1525E+05  0.000E+00  0.000E+00  0.000E+00  4.07823E+01  1.573E-01  2.000E+01  2.000E+04 -2.395E-02
   1   12   18     1    18    1.1525E+05 -5.2025E+02   1.1577E+05  0.000E+00  0.000E+00  0.000E+00  4.03055E+01  1.577E-01  2.000E+01  2.000E+04 -2.601E-02
   1   12   19     1    19    1.1577E+05 -4.6442E+02   1.1624E+05  0.000E+00  0.000E+00  0.000E+00  3.98286E+01  1.581E-01  2.000E+01  2.000E+04 -2.322E-02
   1   13   20     1    20    1.1624E+05 -8.7558E+02   1.1711E+05  0.000E+00  0.000E+00  0.000E+00  3.93519E+01  1.587E-01  2.000E+01  2.000E+04 -4.378E-02
   1   14   21     1    21    1.1711E+05 -1.2415E+03   1.1835E+05  0.000E+00  0.000E+00  0.000E+00  3.88754E+01  1.595E-01  2.000E+01  2.000E+04 -6.207E-02
   1   14   22     1    22    1.1835E+05  5.0671E+03   1.1329E+05  0.000E+00  0.000E+00  0.000E+00  3.83966E+01  1.580E-01  2.000E+01  2.000E+04  2.534E-01
   1    9   30     2     1    5.0000E+04 -2.4177E+02   5.0242E+04  0.000E+00  0.000E+00  0.000E+00  4.02410E+01  1.160E-01  2.000E+01  2.000E+04 -1.209E-02
   1    9   29     2     2    5.0242E+04 -4.6399E+02   5.0706E+04  0.000E+00  0.000E+00  0.000E+00  3.99915E+01  1.165E-01  2.000E+01  2.000E+04 -2.320E-02
   1    9   28     2     3    5.0706E+04 -4.8098E+02   5.1187E+04  0.000E+00  0.000E+00  0.000E+00  3.97422E+01  1.172E-01  2.000E+01  2.000E+04 -2.405E-02
   1    9   27     2     4    5.1187E+04  4.7531E+02   5.0711E+04  0.000E+00  0.000E+00  0.000E+00  3.94922E+01  1.172E-01  2.000E+01  2.000E+04  2.377E-02
   1   10   26     2     5    5.0711E+04  2.1144E+03   4.8597E+04  0.000E+00  0.000E+00  0.000E+00  3.92404E+01  1.154E-01  2.000E+01  2.000E+04  1.057E-01
   1   11   25     2     6    4.8597E+04  1.3093E+03   4.7288E+04  0.000E+00  0.000E+00  0.000E+00  3.89880E+01  1.130E-01  2.000E+01  2.000E+04  6.546E-02
   1   12   24     2     7    4.7288E+04  4.3531E+01   4.7244E+04  0.000E+00  0.000E+00  0.000E+00  3.87370E+01  1.120E-01  2.000E+01  2.000E+04  2.177E-03
   1   13   23     2     8    4.7244E+04 -6.3485E+01   4.7308E+04  0.000E+00  0.000E+00  0.000E+00  3.84870E+01  1.120E-01  2.000E+01  2.000E+04 -3.174E-03
   1   14   22     2     9    4.7308E+04  1.8500E+03   4.5458E+04  0.000E+00  0.000E+00  0.000E+00  3.82358E+01  1.108E-01  2.000E+01  2.000E+04  9.250E-02
   1   14   22     3     1    1.5874E+05 -8.5355E+03   1.6728E+05  0.000E+00  0.000E+00  0.000E+00  3.77165E+01  1.609E-01  2.000E+01  2.000E+04 -4.268E-01
   1   15   23     3     2    1.6728E+05 -4.3338E+02   1.6771E+05  0.000E+00  0.000E+00  0.000E+00  3.68302E+01  1.636E-01  2.000E+01  2.000E+04 -2.167E-02
   1   15   24     3     3    1.6771E+05 -6.8577E+01   1.6778E+05  0.000E+00  0.000E+00  0.000E+00  3.59415E+01  1.637E-01  2.000E+01  2.000E+04 -3.429E-03
   1   15   25     3     4    1.6778E+05 -1.4093E+02   1.6792E+05  0.000E+00  0.000E+00  0.000E+00  3.50527E+01  1.638E-01  2.000E+01  2.000E+04 -7.046E-03
   1   15   26     3     5    1.6792E+05 -2.7054E+02   1.6819E+05  0.000E+00  0.000E+00  0.000E+00  3.41639E+01  1.639E-01  2.000E+01  2.000E+04 -1.353E-02
   1   16   27     3     6    1.6819E+05 -2.7472E+02   1.6847E+05  0.000E+00  0.000E+00  0.000E+00  3.32752E+01  1.641E-01  2.000E+01  2.000E+04 -1.374E-02
   1   17   28     3     7    1.6847E+05 -1.4585E+03   1.6993E+05  0.000E+00  0.000E+00  0.000E+00  3.23868E+01  1.646E-01  2.000E+01  2.000E+04 -7.292E-02
   1   18   29     3     8    1.6993E+05 -2.8113E+03   1.7274E+05  0.000E+00  0.000E+00  0.000E+00  3.14991E+01  1.658E-01  2.000E+01  2.000E+04 -1.406E-01
   1   18   30     3     9    1.7274E+05 -3.1348E+03   1.7587E+05  0.000E+00  0.000E+00  0.000E+00  3.06120E+01  1.675E-01  2.000E+01  2.000E+04 -1.567E-01



1
              HEAD IN LAYER   1 AT END OF TIME STEP   1 IN STRESS PERIOD    8
  ---------------------------------------------------------------------------

          1      2      3      4      5      6      7      8      9     10
         11     12     13     14     15     16     17     18     19     20
         21     22     23     24     25     26     27     28     29     30
 .........................................................................
   1  ****** ****** ****** ****** ****** ****** ****** ****** ****** ******
      ****** ****** ****** ****** ****** ****** ****** ****** ****** ******
      ****** ****** ****** ****** ****** ****** ****** ****** ****** ******
   2  ****** ****** ****** ****** ****** ****** ****** ****** ****** ******
      ****** ****** ****** ****** ****** ****** ****** ****** ****** ******
      ****** ****** ****** ****** ****** ****** ****** ****** ****** ******
   3  ****** ****** ****** ****** ****** ****** ****** ****** ****** ******
      ****** ****** ****** ****** ****** ****** ****** ****** ****** ******
      ****** ****** ****** ****** ****** ****** ****** ****** ****** ******
   4  ****** ****** ****** ****** ****** ****** ****** ****** ****** ******
      ****** ****** ****** ****** ****** ****** ****** ****** ****** ******
      ****** ****** ****** ****** ****** ****** ****** ****** ****** ******
   5  ****** ****** ****** ****** ****** ****** ****** ****** ****** ******
      ****** ****** ****** ****** ****** ****** ****** ****** ****** ******
      ****** ****** ****** ****** ****** ****** ****** ****** ****** ******
   6  ****** ****** ****** ****** ****** ****** ****** ****** ****** ******
      ****** ****** ****** ****** ****** ****** ****** ****** ****** ******
      ****** ****** ****** ****** ****** ****** ****** ****** ****** ******
   7  ****** ****** ****** ****** ****** ****** ****** ****** ****** ******
      ****** ****** ****** ****** ****** ****** ****** ****** ****** ******
      ****** ****** ****** ****** ****** ****** ****** ****** ****** ******
   8  ****** ****** ****** ****** ****** ****** ****** ****** ****** ******
      ****** ****** ****** ****** ****** ****** ****** ****** ****** ******
      ****** ****** ****** ****** ****** ****** ****** ****** ****** ******
   9  ****** ****** ****** ****** ****** ****** ****** ****** ****** ******
      ****** ****** ****** ****** ****** ****** ****** ****** ****** ******
      ****** ****** ****** ****** ****** ****** ****** ****** ****** ******
  10  ****** ****** ****** ****** ****** ****** ****** ****** ****** ******
      ****** ****** ****** ****** ****** ****** ****** ****** ****** ******
      ****** ****** ****** ****** ****** ****** ****** ****** ****** ******
  11  ****** ****** ****** ****** ****** ****** ****** ****** ****** ******
      ****** ****** ****** ****** ****** ****** ****** ****** ****** ******
      ****** ****** ****** ****** ****** ****** ****** ****** ****** ******
  12  ****** ****** ****** ****** ****** ****** ****** ****** ****** ******
      ****** ****** ****** ****** ****** ****** ****** ****** ****** ******
      ****** ****** ****** ****** ****** ****** ****** ****** ****** ******
  13  ****** ****** ****** ****** ****** ****** ****** ****** ****** ******
      ****** ****** ****** ****** ****** ****** ****** ****** ****** ******
      ****** ****** ****** ****** ****** ****** ****** ****** ****** ******
  14  ****** ****** ****** ****** ****** ****** ****** ****** ****** ******
      ****** ****** ****** ****** ****** ****** ****** ****** ****** ******
      ****** ****** ****** ****** ****** ****** ****** ****** ****** ******
  15  ****** ****** ****** ****** ****** ****** ****** ****** ****** ******
      ****** ****** ****** ****** ****** ****** ****** ****** ****** ******
      ****** ****** ****** ****** ****** ****** ****** ****** ****** ******
  16  ****** ****** ****** ****** ****** ****** ****** ****** ****** ******
      ****** ****** ****** ****** ****** ****** ****** ****** ****** ******
      ****** ****** ****** ****** ****** ****** ****** ****** ****** ******
  17  ****** ****** ****** ****** ****** ****** ****** ****** ****** ******
      ****** ****** ****** ****** ****** ****** ****** ****** ****** ******
      ****** ****** ****** ****** ****** ****** ****** ****** ****** ******
  18  ****** ****** ****** ****** ****** ****** ****** ****** ****** ******
      ****** ****** ****** ****** ****** ****** ****** ****** ****** ******
      ****** ****** ****** ****** ****** ****** ****** ****** ****** ******
  19  ****** ****** ****** ****** ****** ****** ****** ****** ****** ******
      ****** ****** ****** ****** ****** ****** ****** ****** ****** ******
      ****** ****** ****** ****** ****** ****** ****** ****** ****** ******
  20  ****** ****** ****** ****** ****** ****** ****** ****** ****** ******
      ****** ****** ****** ****** ****** ****** ****** ****** ****** ******
      ****** ****** ****** ****** ****** ****** ****** ****** ****** ******
  21  ****** ****** ****** ****** ****** ****** ****** ****** ****** ******
      ****** ****** ****** ****** ****** ****** ****** ****** ****** ******
      ****** ****** ****** ****** ****** ****** ****** ****** ****** ******
  22  ****** ****** ****** ****** ****** ****** ****** ****** ****** ******
      ****** ****** ****** ****** ****** ****** ****** ****** ****** ******
      ****** ****** ****** ****** ****** ****** ****** ****** ****** ******
  23  ****** ****** ****** ****** ****** ****** ****** ****** ****** ******
      ****** ****** ****** ****** ****** ****** ****** ****** ****** ******
      ****** ****** ****** ****** ****** ****** ****** ****** ****** ******
  24  ****** ****** ****** ****** ****** ****** ****** ****** ****** ******
      ****** ****** ****** ****** ****** ****** ****** ****** ****** ******
      ****** ****** ****** ****** ****** ****** ****** ****** ****** ******
  25  ****** ****** ****** ****** ****** ****** ****** ****** ****** ******
      ****** ****** ****** ****** ****** ****** ****** ****** ****** ******
      ****** ****** ****** ****** ****** ****** ****** ****** ****** ******

 HEAD WILL BE SAVED ON UNIT   51 AT END OF TIME STEP    1, STRESS PERIOD    8
1
  VOLUMETRIC BUDGET FOR ENTIRE MODEL AT END OF TIME STEP    1, STRESS PERIOD   8
  ------------------------------------------------------------------------------

     CUMULATIVE VOLUMES      L**3       RATES FOR THIS TIME STEP      L**3/T
     ------------------                 ------------------------

           IN:                                      IN:
           ---                                      ---
             STORAGE =    34227358.3304               STORAGE =        1884.0935
       CONSTANT HEAD =    19434546.3981         CONSTANT HEAD =       33583.7458
               WELLS =           0.0000                 WELLS =           0.0000
            RECHARGE =    17608800.0000              RECHARGE =       27600.0000
      STREAM LEAKAGE =     6435373.5569        STREAM LEAKAGE =       11042.6686

            TOTAL IN =    77706078.2854              TOTAL IN =       74110.5080

          OUT:                                     OUT:
          ----                                     ----
             STORAGE =      870125.5310               STORAGE =        1540.4875
       CONSTANT HEAD =           0.0000         CONSTANT HEAD =           0.0000
               WELLS =    26028416.3176                 WELLS =       35655.3648
            RECHARGE =           0.0000              RECHARGE =           0.0000
      STREAM LEAKAGE =    50807538.2748        STREAM LEAKAGE =       36914.6478

           TOTAL OUT =    77706080.1234             TOTAL OUT =       74110.5002

            IN - OUT =          -1.8380              IN - OUT =       7.8187E-03

 PERCENT DISCREPANCY =          -0.00     PERCENT DISCREPANCY =           0.00






         TIME SUMMARY AT END OF TIME STEP    1 IN STRESS PERIOD    8
                    SECONDS     MINUTES      HOURS       DAYS        YEARS
                    -----------------------------------------------------------
   TIME STEP LENGTH 7.86240E+06 1.31040E+05  2184.0      91.000     0.24914    
 STRESS PERIOD TIME 7.86240E+06 1.31040E+05  2184.0      91.000     0.24914    
         TOTAL TIME 6.30720E+07 1.05120E+06  17520.      730.00      1.9986    
1
1
                            STRESS PERIOD NO.    9, LENGTH =   92.00000    
                            -----------------------------------------------

                              NUMBER OF TIME STEPS =     1

                               MULTIPLIER FOR DELT =     1.500

                            INITIAL TIME STEP SIZE =   92.00000    

 WELL NO.  LAYER   ROW   COL   STRESS RATE         
 --------------------------------------------------
      1      1     17     24      -1629.    
      2      1      9     25     -0.1155E+05
      3      1      8     20      -8674.    
      4      1     10     13     -0.1380E+05

      4 WELLS

                 RECHARGE =  5.000000E-04

 REUSING STREAM SEGMENT DATA FROM LAST STRESS PERIOD
 
 SOLVING FOR HEAD 


     6 CALLS TO PCG ROUTINE FOR TIME STEP   1 IN STRESS PERIOD    9
    23 TOTAL ITERATIONS

 OUTPUT CONTROL FOR STRESS PERIOD    9   TIME STEP    1
    SAVE BUDGET
    SAVE HEAD FOR ALL LAYERS
    PRINT HEAD FOR ALL LAYERS
 UBDSV2 SAVING "STREAMFLOW OUT  " ON UNIT  50 AT TIME STEP  1, STRESS PERIOD   9



 STREAM LISTING     PERIOD      9   STEP        1

 LAYER ROW COL. STREAM  RCH.  FLOW INTO     FLOW TO   FLOW OUT OF   OVRLND.     DIRECT     STREAM       STREAM     STREAM     STREAM   STREAMBED  STREAMBED
                SEG.NO.  NO.  STRM. RCH.    AQUIFER    STRM. RCH.    RUNOFF     PRECIP       ET          HEAD       DEPTH      WIDTH   CONDCTNC.   GRADIENT

   1   13    1     1     1    1.0000E+05 -1.3856E+03   1.0139E+05  0.000E+00  0.000E+00  0.000E+00  4.84066E+01  1.453E-01  2.000E+01  2.000E+04 -6.928E-02
   1   13    2     1     2    1.0139E+05 -2.2941E+03   1.0368E+05  0.000E+00  0.000E+00  0.000E+00  4.79309E+01  1.468E-01  2.000E+01  2.000E+04 -1.147E-01
   1   14    3     1     3    1.0368E+05 -3.7248E+02   1.0405E+05  0.000E+00  0.000E+00  0.000E+00  4.74548E+01  1.480E-01  2.000E+01  2.000E+04 -1.862E-02
   1   15    4     1     4    1.0405E+05 -3.5146E+02   1.0440E+05  0.000E+00  0.000E+00  0.000E+00  4.69778E+01  1.483E-01  2.000E+01  2.000E+04 -1.757E-02
   1   16    5     1     5    1.0440E+05 -1.4616E+03   1.0587E+05  0.000E+00  0.000E+00  0.000E+00  4.65013E+01  1.491E-01  2.000E+01  2.000E+04 -7.308E-02
   1   16    6     1     6    1.0587E+05 -9.1935E+02   1.0678E+05  0.000E+00  0.000E+00  0.000E+00  4.60251E+01  1.501E-01  2.000E+01  2.000E+04 -4.597E-02
   1   16    7     1     7    1.0678E+05 -8.9931E+02   1.0768E+05  0.000E+00  0.000E+00  0.000E+00  4.55486E+01  1.508E-01  2.000E+01  2.000E+04 -4.497E-02
   1   16    8     1     8    1.0768E+05 -8.9128E+02   1.0858E+05  0.000E+00  0.000E+00  0.000E+00  4.50721E+01  1.516E-01  2.000E+01  2.000E+04 -4.456E-02
   1   16    9     1     9    1.0858E+05 -8.7959E+02   1.0945E+05  0.000E+00  0.000E+00  0.000E+00  4.45955E+01  1.523E-01  2.000E+01  2.000E+04 -4.398E-02
   1   16   10     1    10    1.0945E+05 -8.6581E+02   1.1032E+05  0.000E+00  0.000E+00  0.000E+00  4.41190E+01  1.531E-01  2.000E+01  2.000E+04 -4.329E-02
   1   16   11     1    11    1.1032E+05 -8.6534E+02   1.1119E+05  0.000E+00  0.000E+00  0.000E+00  4.36424E+01  1.538E-01  2.000E+01  2.000E+04 -4.327E-02
   1   16   12     1    12    1.1119E+05 -1.2452E+03   1.1243E+05  0.000E+00  0.000E+00  0.000E+00  4.31660E+01  1.547E-01  2.000E+01  2.000E+04 -6.226E-02
   1   15   13     1    13    1.1243E+05 -4.1674E+02   1.1285E+05  0.000E+00  0.000E+00  0.000E+00  4.26895E+01  1.554E-01  2.000E+01  2.000E+04 -2.084E-02
   1   14   14     1    14    1.1285E+05  3.1520E+01   1.1282E+05  0.000E+00  0.000E+00  0.000E+00  4.22123E+01  1.555E-01  2.000E+01  2.000E+04  1.576E-03
   1   13   15     1    15    1.1282E+05  3.1828E+02   1.1250E+05  0.000E+00  0.000E+00  0.000E+00  4.17349E+01  1.554E-01  2.000E+01  2.000E+04  1.591E-02
   1   12   16     1    16    1.1250E+05  3.4780E+02   1.1215E+05  0.000E+00  0.000E+00  0.000E+00  4.12574E+01  1.551E-01  2.000E+01  2.000E+04  1.739E-02
   1   12   17     1    17    1.1215E+05 -3.1128E+02   1.1246E+05  0.000E+00  0.000E+00  0.000E+00  4.07801E+01  1.551E-01  2.000E+01  2.000E+04 -1.556E-02
   1   12   18     1    18    1.1246E+05 -3.6090E+02   1.1282E+05  0.000E+00  0.000E+00  0.000E+00  4.03031E+01  1.554E-01  2.000E+01  2.000E+04 -1.804E-02
   1   12   19     1    19    1.1282E+05 -2.7250E+02   1.1310E+05  0.000E+00  0.000E+00  0.000E+00  3.98261E+01  1.556E-01  2.000E+01  2.000E+04 -1.362E-02
   1   13   20     1    20    1.1310E+05 -7.0044E+02   1.1380E+05  0.000E+00  0.000E+00  0.000E+00  3.93492E+01  1.560E-01  2.000E+01  2.000E+04 -3.502E-02
   1   14   21     1    21    1.1380E+05 -1.0703E+03   1.1487E+05  0.000E+00  0.000E+00  0.000E+00  3.88727E+01  1.568E-01  2.000E+01  2.000E+04 -5.351E-02
   1   14   22     1    22    1.1487E+05  5.1057E+03   1.0976E+05  0.000E+00  0.000E+00  0.000E+00  3.83937E+01  1.551E-01  2.000E+01  2.000E+04  2.553E-01
   1    9   30     2     1    5.0000E+04 -1.1707E+02   5.0117E+04  0.000E+00  0.000E+00  0.000E+00  4.02409E+01  1.159E-01  2.000E+01  2.000E+04 -5.854E-03
   1    9   29     2     2    5.0117E+04 -3.3897E+02   5.0456E+04  0.000E+00  0.000E+00  0.000E+00  3.99913E+01  1.163E-01  2.000E+01  2.000E+04 -1.695E-02
   1    9   28     2     3    5.0456E+04 -3.5377E+02   5.0810E+04  0.000E+00  0.000E+00  0.000E+00  3.97417E+01  1.167E-01  2.000E+01  2.000E+04 -1.769E-02
   1    9   27     2     4    5.0810E+04  6.5548E+02   5.0154E+04  0.000E+00  0.000E+00  0.000E+00  3.94915E+01  1.165E-01  2.000E+01  2.000E+04  3.277E-02
   1   10   26     2     5    5.0154E+04  2.2911E+03   4.7863E+04  0.000E+00  0.000E+00  0.000E+00  3.92395E+01  1.145E-01  2.000E+01  2.000E+04  1.146E-01
   1   11   25     2     6    4.7863E+04  1.4782E+03   4.6385E+04  0.000E+00  0.000E+00  0.000E+00  3.89868E+01  1.118E-01  2.000E+01  2.000E+04  7.391E-02
   1   12   24     2     7    4.6385E+04  1.9903E+02   4.6186E+04  0.000E+00  0.000E+00  0.000E+00  3.87356E+01  1.106E-01  2.000E+01  2.000E+04  9.951E-03
   1   13   23     2     8    4.6186E+04 -1.5966E+01   4.6202E+04  0.000E+00  0.000E+00  0.000E+00  3.84855E+01  1.105E-01  2.000E+01  2.000E+04 -7.983E-04
   1   14   22     2     9    4.6202E+04  1.9136E+03   4.4288E+04  0.000E+00  0.000E+00  0.000E+00  3.82341E+01  1.091E-01  2.000E+01  2.000E+04  9.568E-02
   1   14   22     3     1    1.5405E+05 -8.4953E+03   1.6254E+05  0.000E+00  0.000E+00  0.000E+00  3.77137E+01  1.581E-01  2.000E+01  2.000E+04 -4.248E-01
   1   15   23     3     2    1.6254E+05 -3.8112E+02   1.6292E+05  0.000E+00  0.000E+00  0.000E+00  3.68274E+01  1.608E-01  2.000E+01  2.000E+04 -1.906E-02
   1   15   24     3     3    1.6292E+05 -2.5735E+01   1.6295E+05  0.000E+00  0.000E+00  0.000E+00  3.59387E+01  1.609E-01  2.000E+01  2.000E+04 -1.287E-03
   1   15   25     3     4    1.6295E+05 -9.7808E+01   1.6305E+05  0.000E+00  0.000E+00  0.000E+00  3.50498E+01  1.609E-01  2.000E+01  2.000E+04 -4.890E-03
   1   15   26     3     5    1.6305E+05 -2.2305E+02   1.6327E+05  0.000E+00  0.000E+00  0.000E+00  3.41610E+01  1.610E-01  2.000E+01  2.000E+04 -1.115E-02
   1   16   27     3     6    1.6327E+05 -2.1890E+02   1.6349E+05  0.000E+00  0.000E+00  0.000E+00  3.32723E+01  1.611E-01  2.000E+01  2.000E+04 -1.094E-02
   1   17   28     3     7    1.6349E+05 -1.3056E+03   1.6480E+05  0.000E+00  0.000E+00  0.000E+00  3.23838E+01  1.616E-01  2.000E+01  2.000E+04 -6.528E-02
   1   18   29     3     8    1.6480E+05 -2.6369E+03   1.6743E+05  0.000E+00  0.000E+00  0.000E+00  3.14961E+01  1.628E-01  2.000E+01  2.000E+04 -1.318E-01
   1   18   30     3     9    1.6743E+05 -3.0035E+03   1.7044E+05  0.000E+00  0.000E+00  0.000E+00  3.06089E+01  1.644E-01  2.000E+01  2.000E+04 -1.502E-01



1
              HEAD IN LAYER   1 AT END OF TIME STEP   1 IN STRESS PERIOD    9
  ---------------------------------------------------------------------------

          1      2      3      4      5      6      7      8      9     10
         11     12     13     14     15     16     17     18     19     20
         21     22     23     24     25     26     27     28     29     30
 .........................................................................
   1  ****** ****** ****** ****** ****** ****** ****** ****** ****** ******
      ****** ****** ****** ****** ****** ****** ****** ****** ****** ******
      ****** ****** ****** ****** ****** ****** ****** ****** ****** ******
   2  ****** ****** ****** ****** ****** ****** ****** ****** ****** ******
      ****** ****** ****** ****** ****** ****** ****** ****** ****** ******
      ****** ****** ****** ****** ****** ****** ****** ****** ****** ******
   3  ****** ****** ****** ****** ****** ****** ****** ****** ****** ******
      ****** ****** ****** ****** ****** ****** ****** ****** ****** ******
      ****** ****** ****** ****** ****** ****** ****** ****** ****** ******
   4  ****** ****** ****** ****** ****** ****** ****** ****** ****** ******
      ****** ****** ****** ****** ****** ****** ****** ****** ****** ******
      ****** ****** ****** ****** ****** ****** ****** ****** ****** ******
   5  ****** ****** ****** ****** ****** ****** ****** ****** ****** ******
      ****** ****** ****** ****** ****** ****** ****** ****** ****** ******
      ****** ****** ****** ****** ****** ****** ****** ****** ****** ******
   6  ****** ****** ****** ****** ****** ****** ****** ****** ****** ******
      ****** ****** ****** ****** ****** ****** ****** ****** ****** ******
      ****** ****** ****** ****** ****** ****** ****** ****** ****** ******
   7  ****** ****** ****** ****** ****** ****** ****** ****** ****** ******
      ****** ****** ****** ****** ****** ****** ****** ****** ****** ******
      ****** ****** ****** ****** ****** ****** ****** ****** ****** ******
   8  ****** ****** ****** ****** ****** ****** ****** ****** ****** ******
      ****** ****** ****** ****** ****** ****** ****** ****** ****** ******
      ****** ****** ****** ****** ****** ****** ****** ****** ****** ******
   9  ****** ****** ****** ****** ****** ****** ****** ****** ****** ******
      ****** ****** ****** ****** ****** ****** ****** ****** ****** ******
      ****** ****** ****** ****** ****** ****** ****** ****** ****** ******
  10  ****** ****** ****** ****** ****** ****** ****** ****** ****** ******
      ****** ****** ****** ****** ****** ****** ****** ****** ****** ******
      ****** ****** ****** ****** ****** ****** ****** ****** ****** ******
  11  ****** ****** ****** ****** ****** ****** ****** ****** ****** ******
      ****** ****** ****** ****** ****** ****** ****** ****** ****** ******
      ****** ****** ****** ****** ****** ****** ****** ****** ****** ******
  12  ****** ****** ****** ****** ****** ****** ****** ****** ****** ******
      ****** ****** ****** ****** ****** ****** ****** ****** ****** ******
      ****** ****** ****** ****** ****** ****** ****** ****** ****** ******
  13  ****** ****** ****** ****** ****** ****** ****** ****** ****** ******
      ****** ****** ****** ****** ****** ****** ****** ****** ****** ******
      ****** ****** ****** ****** ****** ****** ****** ****** ****** ******
  14  ****** ****** ****** ****** ****** ****** ****** ****** ****** ******
      ****** ****** ****** ****** ****** ****** ****** ****** ****** ******
      ****** ****** ****** ****** ****** ****** ****** ****** ****** ******
  15  ****** ****** ****** ****** ****** ****** ****** ****** ****** ******
      ****** ****** ****** ****** ****** ****** ****** ****** ****** ******
      ****** ****** ****** ****** ****** ****** ****** ****** ****** ******
  16  ****** ****** ****** ****** ****** ****** ****** ****** ****** ******
      ****** ****** ****** ****** ****** ****** ****** ****** ****** ******
      ****** ****** ****** ****** ****** ****** ****** ****** ****** ******
  17  ****** ****** ****** ****** ****** ****** ****** ****** ****** ******
      ****** ****** ****** ****** ****** ****** ****** ****** ****** ******
      ****** ****** ****** ****** ****** ****** ****** ****** ****** ******
  18  ****** ****** ****** ****** ****** ****** ****** ****** ****** ******
      ****** ****** ****** ****** ****** ****** ****** ****** ****** ******
      ****** ****** ****** ****** ****** ****** ****** ****** ****** ******
  19  ****** ****** ****** ****** ****** ****** ****** ****** ****** ******
      ****** ****** ****** ****** ****** ****** ****** ****** ****** ******
      ****** ****** ****** ****** ****** ****** ****** ****** ****** ******
  20  ****** ****** ****** ****** ****** ****** ****** ****** ****** ******
      ****** ****** ****** ****** ****** ****** ****** ****** ****** ******
      ****** ****** ****** ****** ****** ****** ****** ****** ****** ******
  21  ****** ****** ****** ****** ****** ****** ****** ****** ****** ******
      ****** ****** ****** ****** ****** ****** ****** ****** ****** ******
      ****** ****** ****** ****** ****** ****** ****** ****** ****** ******
  22  ****** ****** ****** ****** ****** ****** ****** ****** ****** ******
      ****** ****** ****** ****** ****** ****** ****** ****** ****** ******
      ****** ****** ****** ****** ****** ****** ****** ****** ****** ******
  23  ****** ****** ****** ****** ****** ****** ****** ****** ****** ******
      ****** ****** ****** ****** ****** ****** ****** ****** ****** ******
      ****** ****** ****** ****** ****** ****** ****** ****** ****** ******
  24  ****** ****** ****** ****** ****** ****** ****** ****** ****** ******
      ****** ****** ****** ****** ****** ****** ****** ****** ****** ******
      ****** ****** ****** ****** ****** ****** ****** ****** ****** ******
  25  ****** ****** ****** ****** ****** ****** ****** ****** ****** ******
      ****** ****** ****** ****** ****** ****** ****** ****** ****** ******
      ****** ****** ****** ****** ****** ****** ****** ****** ****** ******

 HEAD WILL BE SAVED ON UNIT   51 AT END OF TIME STEP    1, STRESS PERIOD    9
1
  VOLUMETRIC BUDGET FOR ENTIRE MODEL AT END OF TIME STEP    1, STRESS PERIOD   9
  ------------------------------------------------------------------------------

     CUMULATIVE VOLUMES      L**3       RATES FOR THIS TIME STEP      L**3/T
     ------------------                 ------------------------

           IN:                                      IN:
           ---                                      ---
             STORAGE =    34918106.6366               STORAGE =        7508.1338
       CONSTANT HEAD =    22634633.5460         CONSTANT HEAD =       34783.5560
               WELLS =           0.0000                 WELLS =           0.0000
            RECHARGE =    18878400.0000              RECHARGE =       13800.0000
      STREAM LEAKAGE =     7570723.7050        STREAM LEAKAGE =       12340.7625

            TOTAL IN =    84001863.8876              TOTAL IN =       68432.4522

          OUT:                                     OUT:
          ----                                     ----
             STORAGE =      870125.5310               STORAGE =           0.0000
       CONSTANT HEAD =           0.0000         CONSTANT HEAD =           0.0000
               WELLS =    29308709.8809                 WELLS =       35655.3648
            RECHARGE =           0.0000              RECHARGE =           0.0000
      STREAM LEAKAGE =    53823030.3881        STREAM LEAKAGE =       32777.0882

           TOTAL OUT =    84001865.8001             TOTAL OUT =       68432.4530

            IN - OUT =          -1.9125              IN - OUT =      -8.0921E-04

 PERCENT DISCREPANCY =          -0.00     PERCENT DISCREPANCY =          -0.00






         TIME SUMMARY AT END OF TIME STEP    1 IN STRESS PERIOD    9
                    SECONDS     MINUTES      HOURS       DAYS        YEARS
                    -----------------------------------------------------------
   TIME STEP LENGTH 7.94880E+06 1.32480E+05  2208.0      92.000     0.25188    
 STRESS PERIOD TIME 7.94880E+06 1.32480E+05  2208.0      92.000     0.25188    
         TOTAL TIME 7.10208E+07 1.18368E+06  19728.      822.00      2.2505    
1
1
                            STRESS PERIOD NO.   10, LENGTH =   91.00000    
                            -----------------------------------------------

                              NUMBER OF TIME STEPS =     1

                               MULTIPLIER FOR DELT =     1.500

                            INITIAL TIME STEP SIZE =   91.00000    

 WELL NO.  LAYER   ROW   COL   STRESS RATE         
 --------------------------------------------------
      1      1     17     24      -1629.    
      2      1      9     25     -0.1155E+05
      3      1      8     20      -8674.    
      4      1     10     13     -0.1380E+05

      4 WELLS

                 RECHARGE =  2.000000E-03

 REUSING STREAM SEGMENT DATA FROM LAST STRESS PERIOD
 
 SOLVING FOR HEAD 


     7 CALLS TO PCG ROUTINE FOR TIME STEP   1 IN STRESS PERIOD   10
    26 TOTAL ITERATIONS

 OUTPUT CONTROL FOR STRESS PERIOD   10   TIME STEP    1
    SAVE BUDGET
    SAVE HEAD FOR ALL LAYERS
    PRINT HEAD FOR ALL LAYERS
 UBDSV2 SAVING "STREAMFLOW OUT  " ON UNIT  50 AT TIME STEP  1, STRESS PERIOD  10



 STREAM LISTING     PERIOD     10   STEP        1

 LAYER ROW COL. STREAM  RCH.  FLOW INTO     FLOW TO   FLOW OUT OF   OVRLND.     DIRECT     STREAM       STREAM     STREAM     STREAM   STREAMBED  STREAMBED
                SEG.NO.  NO.  STRM. RCH.    AQUIFER    STRM. RCH.    RUNOFF     PRECIP       ET          HEAD       DEPTH      WIDTH   CONDCTNC.   GRADIENT

   1   13    1     1     1    1.0000E+05 -1.8307E+03   1.0183E+05  0.000E+00  0.000E+00  0.000E+00  4.84068E+01  1.454E-01  2.000E+01  2.000E+04 -9.153E-02
   1   13    2     1     2    1.0183E+05 -2.7868E+03   1.0462E+05  0.000E+00  0.000E+00  0.000E+00  4.79315E+01  1.474E-01  2.000E+01  2.000E+04 -1.393E-01
   1   14    3     1     3    1.0462E+05 -5.5765E+02   1.0518E+05  0.000E+00  0.000E+00  0.000E+00  4.74557E+01  1.489E-01  2.000E+01  2.000E+04 -2.788E-02
   1   15    4     1     4    1.0518E+05 -5.4981E+02   1.0572E+05  0.000E+00  0.000E+00  0.000E+00  4.69789E+01  1.493E-01  2.000E+01  2.000E+04 -2.749E-02
   1   16    5     1     5    1.0572E+05 -2.0802E+03   1.0781E+05  0.000E+00  0.000E+00  0.000E+00  4.65027E+01  1.504E-01  2.000E+01  2.000E+04 -1.040E-01
   1   16    6     1     6    1.0781E+05 -1.2808E+03   1.0909E+05  0.000E+00  0.000E+00  0.000E+00  4.60269E+01  1.519E-01  2.000E+01  2.000E+04 -6.404E-02
   1   16    7     1     7    1.0909E+05 -1.2428E+03   1.1033E+05  0.000E+00  0.000E+00  0.000E+00  4.55506E+01  1.529E-01  2.000E+01  2.000E+04 -6.214E-02
   1   16    8     1     8    1.1033E+05 -1.2293E+03   1.1156E+05  0.000E+00  0.000E+00  0.000E+00  4.50744E+01  1.540E-01  2.000E+01  2.000E+04 -6.147E-02
   1   16    9     1     9    1.1156E+05 -1.2163E+03   1.1277E+05  0.000E+00  0.000E+00  0.000E+00  4.45981E+01  1.550E-01  2.000E+01  2.000E+04 -6.081E-02
   1   16   10     1    10    1.1277E+05 -1.2029E+03   1.1398E+05  0.000E+00  0.000E+00  0.000E+00  4.41219E+01  1.560E-01  2.000E+01  2.000E+04 -6.015E-02
   1   16   11     1    11    1.1398E+05 -1.2063E+03   1.1518E+05  0.000E+00  0.000E+00  0.000E+00  4.36456E+01  1.570E-01  2.000E+01  2.000E+04 -6.031E-02
   1   16   12     1    12    1.1518E+05 -1.8140E+03   1.1700E+05  0.000E+00  0.000E+00  0.000E+00  4.31696E+01  1.582E-01  2.000E+01  2.000E+04 -9.070E-02
   1   15   13     1    13    1.1700E+05 -1.0007E+03   1.1800E+05  0.000E+00  0.000E+00  0.000E+00  4.26934E+01  1.593E-01  2.000E+01  2.000E+04 -5.003E-02
   1   14   14     1    14    1.1800E+05 -5.5835E+02   1.1856E+05  0.000E+00  0.000E+00  0.000E+00  4.22168E+01  1.600E-01  2.000E+01  2.000E+04 -2.792E-02
   1   13   15     1    15    1.1856E+05 -2.6053E+02   1.1882E+05  0.000E+00  0.000E+00  0.000E+00  4.17399E+01  1.603E-01  2.000E+01  2.000E+04 -1.303E-02
   1   12   16     1    16    1.1882E+05 -2.0766E+02   1.1902E+05  0.000E+00  0.000E+00  0.000E+00  4.12628E+01  1.605E-01  2.000E+01  2.000E+04 -1.038E-02
   1   12   17     1    17    1.1902E+05 -7.3364E+02   1.1976E+05  0.000E+00  0.000E+00  0.000E+00  4.07859E+01  1.609E-01  2.000E+01  2.000E+04 -3.668E-02
   1   12   18     1    18    1.1976E+05 -7.7968E+02   1.2054E+05  0.000E+00  0.000E+00  0.000E+00  4.03092E+01  1.615E-01  2.000E+01  2.000E+04 -3.898E-02
   1   12   19     1    19    1.2054E+05 -7.8792E+02   1.2133E+05  0.000E+00  0.000E+00  0.000E+00  3.98326E+01  1.621E-01  2.000E+01  2.000E+04 -3.940E-02
   1   13   20     1    20    1.2133E+05 -1.2207E+03   1.2255E+05  0.000E+00  0.000E+00  0.000E+00  3.93561E+01  1.629E-01  2.000E+01  2.000E+04 -6.103E-02
   1   14   21     1    21    1.2255E+05 -1.5956E+03   1.2414E+05  0.000E+00  0.000E+00  0.000E+00  3.88800E+01  1.641E-01  2.000E+01  2.000E+04 -7.978E-02
   1   14   22     1    22    1.2414E+05  4.9765E+03   1.1917E+05  0.000E+00  0.000E+00  0.000E+00  3.84013E+01  1.627E-01  2.000E+01  2.000E+04  2.488E-01
   1    9   30     2     1    5.0000E+04 -5.3051E+02   5.0531E+04  0.000E+00  0.000E+00  0.000E+00  4.02412E+01  1.162E-01  2.000E+01  2.000E+04 -2.653E-02
   1    9   29     2     2    5.0531E+04 -7.5006E+02   5.1281E+04  0.000E+00  0.000E+00  0.000E+00  3.99921E+01  1.171E-01  2.000E+01  2.000E+04 -3.750E-02
   1    9   28     2     3    5.1281E+04 -7.6389E+02   5.2044E+04  0.000E+00  0.000E+00  0.000E+00  3.97432E+01  1.182E-01  2.000E+01  2.000E+04 -3.819E-02
   1    9   27     2     4    5.2044E+04  1.0469E+02   5.1940E+04  0.000E+00  0.000E+00  0.000E+00  3.94936E+01  1.186E-01  2.000E+01  2.000E+04  5.235E-03
   1   10   26     2     5    5.1940E+04  1.7400E+03   5.0200E+04  0.000E+00  0.000E+00  0.000E+00  3.92423E+01  1.173E-01  2.000E+01  2.000E+04  8.700E-02
   1   11   25     2     6    5.0200E+04  9.5157E+02   4.9248E+04  0.000E+00  0.000E+00  0.000E+00  3.89905E+01  1.155E-01  2.000E+01  2.000E+04  4.758E-02
   1   12   24     2     7    4.9248E+04 -2.7742E+02   4.9526E+04  0.000E+00  0.000E+00  0.000E+00  3.87400E+01  1.150E-01  2.000E+01  2.000E+04 -1.387E-02
   1   13   23     2     8    4.9526E+04 -1.6436E+02   4.9690E+04  0.000E+00  0.000E+00  0.000E+00  3.84903E+01  1.153E-01  2.000E+01  2.000E+04 -8.218E-03
   1   14   22     2     9    4.9690E+04  1.7342E+03   4.7956E+04  0.000E+00  0.000E+00  0.000E+00  3.82392E+01  1.142E-01  2.000E+01  2.000E+04  8.671E-02
   1   14   22     3     1    1.6712E+05 -8.6219E+03   1.7574E+05  0.000E+00  0.000E+00  0.000E+00  3.77214E+01  1.659E-01  2.000E+01  2.000E+04 -4.311E-01
   1   15   23     3     2    1.7574E+05 -5.4381E+02   1.7629E+05  0.000E+00  0.000E+00  0.000E+00  3.68352E+01  1.685E-01  2.000E+01  2.000E+04 -2.719E-02
   1   15   24     3     3    1.7629E+05 -1.6299E+02   1.7645E+05  0.000E+00  0.000E+00  0.000E+00  3.59465E+01  1.687E-01  2.000E+01  2.000E+04 -8.150E-03
   1   15   25     3     4    1.7645E+05 -2.3846E+02   1.7669E+05  0.000E+00  0.000E+00  0.000E+00  3.50577E+01  1.688E-01  2.000E+01  2.000E+04 -1.192E-02
   1   15   26     3     5    1.7669E+05 -3.8533E+02   1.7707E+05  0.000E+00  0.000E+00  0.000E+00  3.41690E+01  1.690E-01  2.000E+01  2.000E+04 -1.927E-02
   1   16   27     3     6    1.7707E+05 -4.0484E+02   1.7748E+05  0.000E+00  0.000E+00  0.000E+00  3.32803E+01  1.692E-01  2.000E+01  2.000E+04 -2.024E-02
   1   17   28     3     7    1.7748E+05 -1.8266E+03   1.7931E+05  0.000E+00  0.000E+00  0.000E+00  3.23921E+01  1.699E-01  2.000E+01  2.000E+04 -9.133E-02
   1   18   29     3     8    1.7931E+05 -3.1890E+03   1.8249E+05  0.000E+00  0.000E+00  0.000E+00  3.15046E+01  1.713E-01  2.000E+01  2.000E+04 -1.595E-01
   1   18   30     3     9    1.8249E+05 -3.4293E+03   1.8592E+05  0.000E+00  0.000E+00  0.000E+00  3.06176E+01  1.732E-01  2.000E+01  2.000E+04 -1.715E-01



1
              HEAD IN LAYER   1 AT END OF TIME STEP   1 IN STRESS PERIOD   10
  ---------------------------------------------------------------------------

          1      2      3      4      5      6      7      8      9     10
         11     12     13     14     15     16     17     18     19     20
         21     22     23     24     25     26     27     28     29     30
 .........................................................................
   1  ****** ****** ****** ****** ****** ****** ****** ****** ****** ******
      ****** ****** ****** ****** ****** ****** ****** ****** ****** ******
      ****** ****** ****** ****** ****** ****** ****** ****** ****** ******
   2  ****** ****** ****** ****** ****** ****** ****** ****** ****** ******
      ****** ****** ****** ****** ****** ****** ****** ****** ****** ******
      ****** ****** ****** ****** ****** ****** ****** ****** ****** ******
   3  ****** ****** ****** ****** ****** ****** ****** ****** ****** ******
      ****** ****** ****** ****** ****** ****** ****** ****** ****** ******
      ****** ****** ****** ****** ****** ****** ****** ****** ****** ******
   4  ****** ****** ****** ****** ****** ****** ****** ****** ****** ******
      ****** ****** ****** ****** ****** ****** ****** ****** ****** ******
      ****** ****** ****** ****** ****** ****** ****** ****** ****** ******
   5  ****** ****** ****** ****** ****** ****** ****** ****** ****** ******
      ****** ****** ****** ****** ****** ****** ****** ****** ****** ******
      ****** ****** ****** ****** ****** ****** ****** ****** ****** ******
   6  ****** ****** ****** ****** ****** ****** ****** ****** ****** ******
      ****** ****** ****** ****** ****** ****** ****** ****** ****** ******
      ****** ****** ****** ****** ****** ****** ****** ****** ****** ******
   7  ****** ****** ****** ****** ****** ****** ****** ****** ****** ******
      ****** ****** ****** ****** ****** ****** ****** ****** ****** ******
      ****** ****** ****** ****** ****** ****** ****** ****** ****** ******
   8  ****** ****** ****** ****** ****** ****** ****** ****** ****** ******
      ****** ****** ****** ****** ****** ****** ****** ****** ****** ******
      ****** ****** ****** ****** ****** ****** ****** ****** ****** ******
   9  ****** ****** ****** ****** ****** ****** ****** ****** ****** ******
      ****** ****** ****** ****** ****** ****** ****** ****** ****** ******
      ****** ****** ****** ****** ****** ****** ****** ****** ****** ******
  10  ****** ****** ****** ****** ****** ****** ****** ****** ****** ******
      ****** ****** ****** ****** ****** ****** ****** ****** ****** ******
      ****** ****** ****** ****** ****** ****** ****** ****** ****** ******
  11  ****** ****** ****** ****** ****** ****** ****** ****** ****** ******
      ****** ****** ****** ****** ****** ****** ****** ****** ****** ******
      ****** ****** ****** ****** ****** ****** ****** ****** ****** ******
  12  ****** ****** ****** ****** ****** ****** ****** ****** ****** ******
      ****** ****** ****** ****** ****** ****** ****** ****** ****** ******
      ****** ****** ****** ****** ****** ****** ****** ****** ****** ******
  13  ****** ****** ****** ****** ****** ****** ****** ****** ****** ******
      ****** ****** ****** ****** ****** ****** ****** ****** ****** ******
      ****** ****** ****** ****** ****** ****** ****** ****** ****** ******
  14  ****** ****** ****** ****** ****** ****** ****** ****** ****** ******
      ****** ****** ****** ****** ****** ****** ****** ****** ****** ******
      ****** ****** ****** ****** ****** ****** ****** ****** ****** ******
  15  ****** ****** ****** ****** ****** ****** ****** ****** ****** ******
      ****** ****** ****** ****** ****** ****** ****** ****** ****** ******
      ****** ****** ****** ****** ****** ****** ****** ****** ****** ******
  16  ****** ****** ****** ****** ****** ****** ****** ****** ****** ******
      ****** ****** ****** ****** ****** ****** ****** ****** ****** ******
      ****** ****** ****** ****** ****** ****** ****** ****** ****** ******
  17  ****** ****** ****** ****** ****** ****** ****** ****** ****** ******
      ****** ****** ****** ****** ****** ****** ****** ****** ****** ******
      ****** ****** ****** ****** ****** ****** ****** ****** ****** ******
  18  ****** ****** ****** ****** ****** ****** ****** ****** ****** ******
      ****** ****** ****** ****** ****** ****** ****** ****** ****** ******
      ****** ****** ****** ****** ****** ****** ****** ****** ****** ******
  19  ****** ****** ****** ****** ****** ****** ****** ****** ****** ******
      ****** ****** ****** ****** ****** ****** ****** ****** ****** ******
      ****** ****** ****** ****** ****** ****** ****** ****** ****** ******
  20  ****** ****** ****** ****** ****** ****** ****** ****** ****** ******
      ****** ****** ****** ****** ****** ****** ****** ****** ****** ******
      ****** ****** ****** ****** ****** ****** ****** ****** ****** ******
  21  ****** ****** ****** ****** ****** ****** ****** ****** ****** ******
      ****** ****** ****** ****** ****** ****** ****** ****** ****** ******
      ****** ****** ****** ****** ****** ****** ****** ****** ****** ******
  22  ****** ****** ****** ****** ****** ****** ****** ****** ****** ******
      ****** ****** ****** ****** ****** ****** ****** ****** ****** ******
      ****** ****** ****** ****** ****** ****** ****** ****** ****** ******
  23  ****** ****** ****** ****** ****** ****** ****** ****** ****** ******
      ****** ****** ****** ****** ****** ****** ****** ****** ****** ******
      ****** ****** ****** ****** ****** ****** ****** ****** ****** ******
  24  ****** ****** ****** ****** ****** ****** ****** ****** ****** ******
      ****** ****** ****** ****** ****** ****** ****** ****** ****** ******
      ****** ****** ****** ****** ****** ****** ****** ****** ****** ******
  25  ****** ****** ****** ****** ****** ****** ****** ****** ****** ******
      ****** ****** ****** ****** ****** ****** ****** ****** ****** ******
      ****** ****** ****** ****** ****** ****** ****** ****** ****** ******

 HEAD WILL BE SAVED ON UNIT   51 AT END OF TIME STEP    1, STRESS PERIOD   10
1
  VOLUMETRIC BUDGET FOR ENTIRE MODEL AT END OF TIME STEP    1, STRESS PERIOD  10
  ------------------------------------------------------------------------------

     CUMULATIVE VOLUMES      L**3       RATES FOR THIS TIME STEP      L**3/T
     ------------------                 ------------------------

           IN:                                      IN:
           ---                                      ---
             STORAGE =    34918106.6366               STORAGE =           0.0000
       CONSTANT HEAD =    25533325.5350         CONSTANT HEAD =       31853.7581
               WELLS =           0.0000                 WELLS =           0.0000
            RECHARGE =    23901600.0000              RECHARGE =       55200.0000
      STREAM LEAKAGE =     8435852.6468        STREAM LEAKAGE =        9506.9114

            TOTAL IN =    92788884.8184              TOTAL IN =       96560.6696

          OUT:                                     OUT:
          ----                                     ----
             STORAGE =     2278312.0304               STORAGE =       15474.5769
       CONSTANT HEAD =           0.0000         CONSTANT HEAD =           0.0000
               WELLS =    32553348.0794                 WELLS =       35655.3648
            RECHARGE =           0.0000              RECHARGE =           0.0000
      STREAM LEAKAGE =    57957226.2684        STREAM LEAKAGE =       45430.7240

           TOTAL OUT =    92788886.3782             TOTAL OUT =       96560.6657

            IN - OUT =          -1.5598              IN - OUT =       3.8762E-03

 PERCENT DISCREPANCY =          -0.00     PERCENT DISCREPANCY =           0.00






         TIME SUMMARY AT END OF TIME STEP    1 IN STRESS PERIOD   10
                    SECONDS     MINUTES      HOURS       DAYS        YEARS
                    -----------------------------------------------------------
   TIME STEP LENGTH 7.86240E+06 1.31040E+05  2184.0      91.000     0.24914    
 STRESS PERIOD TIME 7.86240E+06 1.31040E+05  2184.0      91.000     0.24914    
         TOTAL TIME 7.88832E+07 1.31472E+06  21912.      913.00      2.4997    
1
1
                            STRESS PERIOD NO.   11, LENGTH =   91.00000    
                            -----------------------------------------------

                              NUMBER OF TIME STEPS =     1

                               MULTIPLIER FOR DELT =     1.500

                            INITIAL TIME STEP SIZE =   91.00000    

 WELL NO.  LAYER   ROW   COL   STRESS RATE         
 --------------------------------------------------
      1      1     17     24      -1629.    
      2      1      9     25     -0.1155E+05
      3      1      8     20      -8674.    
      4      1     10     13     -0.1380E+05

      4 WELLS

                 RECHARGE =   0.00000    

 REUSING STREAM SEGMENT DATA FROM LAST STRESS PERIOD
 
 SOLVING FOR HEAD 


     7 CALLS TO PCG ROUTINE FOR TIME STEP   1 IN STRESS PERIOD   11
    26 TOTAL ITERATIONS

 OUTPUT CONTROL FOR STRESS PERIOD   11   TIME STEP    1
    SAVE BUDGET
    SAVE HEAD FOR ALL LAYERS
    PRINT HEAD FOR ALL LAYERS
 UBDSV2 SAVING "STREAMFLOW OUT  " ON UNIT  50 AT TIME STEP  1, STRESS PERIOD  11



 STREAM LISTING     PERIOD     11   STEP        1

 LAYER ROW COL. STREAM  RCH.  FLOW INTO     FLOW TO   FLOW OUT OF   OVRLND.     DIRECT     STREAM       STREAM     STREAM     STREAM   STREAMBED  STREAMBED
                SEG.NO.  NO.  STRM. RCH.    AQUIFER    STRM. RCH.    RUNOFF     PRECIP       ET          HEAD       DEPTH      WIDTH   CONDCTNC.   GRADIENT

   1   13    1     1     1    1.0000E+05 -1.2575E+03   1.0126E+05  0.000E+00  0.000E+00  0.000E+00  4.84066E+01  1.452E-01  2.000E+01  2.000E+04 -6.288E-02
   1   13    2     1     2    1.0126E+05 -2.1482E+03   1.0341E+05  0.000E+00  0.000E+00  0.000E+00  4.79308E+01  1.467E-01  2.000E+01  2.000E+04 -1.074E-01
   1   14    3     1     3    1.0341E+05 -3.2575E+02   1.0373E+05  0.000E+00  0.000E+00  0.000E+00  4.74545E+01  1.477E-01  2.000E+01  2.000E+04 -1.629E-02
   1   15    4     1     4    1.0373E+05 -3.0711E+02   1.0404E+05  0.000E+00  0.000E+00  0.000E+00  4.69775E+01  1.480E-01  2.000E+01  2.000E+04 -1.536E-02
   1   16    5     1     5    1.0404E+05 -1.3921E+03   1.0543E+05  0.000E+00  0.000E+00  0.000E+00  4.65010E+01  1.487E-01  2.000E+01  2.000E+04 -6.961E-02
   1   16    6     1     6    1.0543E+05 -8.6584E+02   1.0630E+05  0.000E+00  0.000E+00  0.000E+00  4.60247E+01  1.497E-01  2.000E+01  2.000E+04 -4.329E-02
   1   16    7     1     7    1.0630E+05 -8.4540E+02   1.0714E+05  0.000E+00  0.000E+00  0.000E+00  4.55481E+01  1.504E-01  2.000E+01  2.000E+04 -4.227E-02
   1   16    8     1     8    1.0714E+05 -8.3747E+02   1.0798E+05  0.000E+00  0.000E+00  0.000E+00  4.50716E+01  1.511E-01  2.000E+01  2.000E+04 -4.187E-02
   1   16    9     1     9    1.0798E+05 -8.2673E+02   1.0881E+05  0.000E+00  0.000E+00  0.000E+00  4.45950E+01  1.518E-01  2.000E+01  2.000E+04 -4.134E-02
   1   16   10     1    10    1.0881E+05 -8.1464E+02   1.0962E+05  0.000E+00  0.000E+00  0.000E+00  4.41184E+01  1.525E-01  2.000E+01  2.000E+04 -4.073E-02
   1   16   11     1    11    1.0962E+05 -8.1642E+02   1.1044E+05  0.000E+00  0.000E+00  0.000E+00  4.36418E+01  1.532E-01  2.000E+01  2.000E+04 -4.082E-02
   1   16   12     1    12    1.1044E+05 -1.1678E+03   1.1161E+05  0.000E+00  0.000E+00  0.000E+00  4.31654E+01  1.540E-01  2.000E+01  2.000E+04 -5.839E-02
   1   15   13     1    13    1.1161E+05 -3.1029E+02   1.1192E+05  0.000E+00  0.000E+00  0.000E+00  4.26887E+01  1.546E-01  2.000E+01  2.000E+04 -1.551E-02
   1   14   14     1    14    1.1192E+05  1.5065E+02   1.1176E+05  0.000E+00  0.000E+00  0.000E+00  4.22115E+01  1.547E-01  2.000E+01  2.000E+04  7.532E-03
   1   13   15     1    15    1.1176E+05  4.4360E+02   1.1132E+05  0.000E+00  0.000E+00  0.000E+00  4.17340E+01  1.545E-01  2.000E+01  2.000E+04  2.218E-02
   1   12   16     1    16    1.1132E+05  4.7424E+02   1.1085E+05  0.000E+00  0.000E+00  0.000E+00  4.12563E+01  1.541E-01  2.000E+01  2.000E+04  2.371E-02
   1   12   17     1    17    1.1085E+05 -2.2471E+02   1.1107E+05  0.000E+00  0.000E+00  0.000E+00  4.07790E+01  1.540E-01  2.000E+01  2.000E+04 -1.124E-02
   1   12   18     1    18    1.1107E+05 -2.7884E+02   1.1135E+05  0.000E+00  0.000E+00  0.000E+00  4.03019E+01  1.542E-01  2.000E+01  2.000E+04 -1.394E-02
   1   12   19     1    19    1.1135E+05 -1.7316E+02   1.1152E+05  0.000E+00  0.000E+00  0.000E+00  3.98248E+01  1.544E-01  2.000E+01  2.000E+04 -8.658E-03
   1   13   20     1    20    1.1152E+05 -6.0767E+02   1.1213E+05  0.000E+00  0.000E+00  0.000E+00  3.93479E+01  1.547E-01  2.000E+01  2.000E+04 -3.038E-02
   1   14   21     1    21    1.1213E+05 -9.9872E+02   1.1313E+05  0.000E+00  0.000E+00  0.000E+00  3.88713E+01  1.554E-01  2.000E+01  2.000E+04 -4.994E-02
   1   14   22     1    22    1.1313E+05  5.1254E+03   1.0800E+05  0.000E+00  0.000E+00  0.000E+00  3.83923E+01  1.536E-01  2.000E+01  2.000E+04  2.563E-01
   1    9   30     2     1    5.0000E+04 -4.1974E+01   5.0042E+04  0.000E+00  0.000E+00  0.000E+00  4.02409E+01  1.159E-01  2.000E+01  2.000E+04 -2.099E-03
   1    9   29     2     2    5.0042E+04 -2.6452E+02   5.0306E+04  0.000E+00  0.000E+00  0.000E+00  3.99911E+01  1.161E-01  2.000E+01  2.000E+04 -1.323E-02
   1    9   28     2     3    5.0306E+04 -2.8042E+02   5.0587E+04  0.000E+00  0.000E+00  0.000E+00  3.97415E+01  1.165E-01  2.000E+01  2.000E+04 -1.402E-02
   1    9   27     2     4    5.0587E+04  7.4578E+02   4.9841E+04  0.000E+00  0.000E+00  0.000E+00  3.94912E+01  1.162E-01  2.000E+01  2.000E+04  3.729E-02
   1   10   26     2     5    4.9841E+04  2.3952E+03   4.7446E+04  0.000E+00  0.000E+00  0.000E+00  3.92390E+01  1.140E-01  2.000E+01  2.000E+04  1.198E-01
   1   11   25     2     6    4.7446E+04  1.5829E+03   4.5863E+04  0.000E+00  0.000E+00  0.000E+00  3.89861E+01  1.111E-01  2.000E+01  2.000E+04  7.914E-02
   1   12   24     2     7    4.5863E+04  2.9684E+02   4.5566E+04  0.000E+00  0.000E+00  0.000E+00  3.87348E+01  1.098E-01  2.000E+01  2.000E+04  1.484E-02
   1   13   23     2     8    4.5566E+04  2.1610E+01   4.5545E+04  0.000E+00  0.000E+00  0.000E+00  3.84846E+01  1.096E-01  2.000E+01  2.000E+04  1.081E-03
   1   14   22     2     9    4.5545E+04  1.9429E+03   4.3602E+04  0.000E+00  0.000E+00  0.000E+00  3.82331E+01  1.081E-01  2.000E+01  2.000E+04  9.714E-02
   1   14   22     3     1    1.5161E+05 -8.4761E+03   1.6008E+05  0.000E+00  0.000E+00  0.000E+00  3.77122E+01  1.566E-01  2.000E+01  2.000E+04 -4.238E-01
   1   15   23     3     2    1.6008E+05 -3.5189E+02   1.6043E+05  0.000E+00  0.000E+00  0.000E+00  3.68260E+01  1.593E-01  2.000E+01  2.000E+04 -1.759E-02
   1   15   24     3     3    1.6043E+05  2.0536E+00   1.6043E+05  0.000E+00  0.000E+00  0.000E+00  3.59372E+01  1.594E-01  2.000E+01  2.000E+04  1.027E-04
   1   15   25     3     4    1.6043E+05 -6.9580E+01   1.6050E+05  0.000E+00  0.000E+00  0.000E+00  3.50483E+01  1.594E-01  2.000E+01  2.000E+04 -3.479E-03
   1   15   26     3     5    1.6050E+05 -1.8970E+02   1.6069E+05  0.000E+00  0.000E+00  0.000E+00  3.41595E+01  1.595E-01  2.000E+01  2.000E+04 -9.485E-03
   1   16   27     3     6    1.6069E+05 -1.8193E+02   1.6087E+05  0.000E+00  0.000E+00  0.000E+00  3.32707E+01  1.596E-01  2.000E+01  2.000E+04 -9.096E-03
   1   17   28     3     7    1.6087E+05 -1.2172E+03   1.6209E+05  0.000E+00  0.000E+00  0.000E+00  3.23822E+01  1.600E-01  2.000E+01  2.000E+04 -6.086E-02
   1   18   29     3     8    1.6209E+05 -2.5677E+03   1.6466E+05  0.000E+00  0.000E+00  0.000E+00  3.14945E+01  1.611E-01  2.000E+01  2.000E+04 -1.284E-01
   1   18   30     3     9    1.6466E+05 -2.9405E+03   1.6760E+05  0.000E+00  0.000E+00  0.000E+00  3.06072E+01  1.628E-01  2.000E+01  2.000E+04 -1.470E-01



1
              HEAD IN LAYER   1 AT END OF TIME STEP   1 IN STRESS PERIOD   11
  ---------------------------------------------------------------------------

          1      2      3      4      5      6      7      8      9     10
         11     12     13     14     15     16     17     18     19     20
         21     22     23     24     25     26     27     28     29     30
 .........................................................................
   1  ****** ****** ****** ****** ****** ****** ****** ****** ****** ******
      ****** ****** ****** ****** ****** ****** ****** ****** ****** ******
      ****** ****** ****** ****** ****** ****** ****** ****** ****** ******
   2  ****** ****** ****** ****** ****** ****** ****** ****** ****** ******
      ****** ****** ****** ****** ****** ****** ****** ****** ****** ******
      ****** ****** ****** ****** ****** ****** ****** ****** ****** ******
   3  ****** ****** ****** ****** ****** ****** ****** ****** ****** ******
      ****** ****** ****** ****** ****** ****** ****** ****** ****** ******
      ****** ****** ****** ****** ****** ****** ****** ****** ****** ******
   4  ****** ****** ****** ****** ****** ****** ****** ****** ****** ******
      ****** ****** ****** ****** ****** ****** ****** ****** ****** ******
      ****** ****** ****** ****** ****** ****** ****** ****** ****** ******
   5  ****** ****** ****** ****** ****** ****** ****** ****** ****** ******
      ****** ****** ****** ****** ****** ****** ****** ****** ****** ******
      ****** ****** ****** ****** ****** ****** ****** ****** ****** ******
   6  ****** ****** ****** ****** ****** ****** ****** ****** ****** ******
      ****** ****** ****** ****** ****** ****** ****** ****** ****** ******
      ****** ****** ****** ****** ****** ****** ****** ****** ****** ******
   7  ****** ****** ****** ****** ****** ****** ****** ****** ****** ******
      ****** ****** ****** ****** ****** ****** ****** ****** ****** ******
      ****** ****** ****** ****** ****** ****** ****** ****** ****** ******
   8  ****** ****** ****** ****** ****** ****** ****** ****** ****** ******
      ****** ****** ****** ****** ****** ****** ****** ****** ****** ******
      ****** ****** ****** ****** ****** ****** ****** ****** ****** ******
   9  ****** ****** ****** ****** ****** ****** ****** ****** ****** ******
      ****** ****** ****** ****** ****** ****** ****** ****** ****** ******
      ****** ****** ****** ****** ****** ****** ****** ****** ****** ******
  10  ****** ****** ****** ****** ****** ****** ****** ****** ****** ******
      ****** ****** ****** ****** ****** ****** ****** ****** ****** ******
      ****** ****** ****** ****** ****** ****** ****** ****** ****** ******
  11  ****** ****** ****** ****** ****** ****** ****** ****** ****** ******
      ****** ****** ****** ****** ****** ****** ****** ****** ****** ******
      ****** ****** ****** ****** ****** ****** ****** ****** ****** ******
  12  ****** ****** ****** ****** ****** ****** ****** ****** ****** ******
      ****** ****** ****** ****** ****** ****** ****** ****** ****** ******
      ****** ****** ****** ****** ****** ****** ****** ****** ****** ******
  13  ****** ****** ****** ****** ****** ****** ****** ****** ****** ******
      ****** ****** ****** ****** ****** ****** ****** ****** ****** ******
      ****** ****** ****** ****** ****** ****** ****** ****** ****** ******
  14  ****** ****** ****** ****** ****** ****** ****** ****** ****** ******
      ****** ****** ****** ****** ****** ****** ****** ****** ****** ******
      ****** ****** ****** ****** ****** ****** ****** ****** ****** ******
  15  ****** ****** ****** ****** ****** ****** ****** ****** ****** ******
      ****** ****** ****** ****** ****** ****** ****** ****** ****** ******
      ****** ****** ****** ****** ****** ****** ****** ****** ****** ******
  16  ****** ****** ****** ****** ****** ****** ****** ****** ****** ******
      ****** ****** ****** ****** ****** ****** ****** ****** ****** ******
      ****** ****** ****** ****** ****** ****** ****** ****** ****** ******
  17  ****** ****** ****** ****** ****** ****** ****** ****** ****** ******
      ****** ****** ****** ****** ****** ****** ****** ****** ****** ******
      ****** ****** ****** ****** ****** ****** ****** ****** ****** ******
  18  ****** ****** ****** ****** ****** ****** ****** ****** ****** ******
      ****** ****** ****** ****** ****** ****** ****** ****** ****** ******
      ****** ****** ****** ****** ****** ****** ****** ****** ****** ******
  19  ****** ****** ****** ****** ****** ****** ****** ****** ****** ******
      ****** ****** ****** ****** ****** ****** ****** ****** ****** ******
      ****** ****** ****** ****** ****** ****** ****** ****** ****** ******
  20  ****** ****** ****** ****** ****** ****** ****** ****** ****** ******
      ****** ****** ****** ****** ****** ****** ****** ****** ****** ******
      ****** ****** ****** ****** ****** ****** ****** ****** ****** ******
  21  ****** ****** ****** ****** ****** ****** ****** ****** ****** ******
      ****** ****** ****** ****** ****** ****** ****** ****** ****** ******
      ****** ****** ****** ****** ****** ****** ****** ****** ****** ******
  22  ****** ****** ****** ****** ****** ****** ****** ****** ****** ******
      ****** ****** ****** ****** ****** ****** ****** ****** ****** ******
      ****** ****** ****** ****** ****** ****** ****** ****** ****** ******
  23  ****** ****** ****** ****** ****** ****** ****** ****** ****** ******
      ****** ****** ****** ****** ****** ****** ****** ****** ****** ******
      ****** ****** ****** ****** ****** ****** ****** ****** ****** ******
  24  ****** ****** ****** ****** ****** ****** ****** ****** ****** ******
      ****** ****** ****** ****** ****** ****** ****** ****** ****** ******
      ****** ****** ****** ****** ****** ****** ****** ****** ****** ******
  25  ****** ****** ****** ****** ****** ****** ****** ****** ****** ******
      ****** ****** ****** ****** ****** ****** ****** ****** ****** ******
      ****** ****** ****** ****** ****** ****** ****** ****** ****** ******

 HEAD WILL BE SAVED ON UNIT   51 AT END OF TIME STEP    1, STRESS PERIOD   11
1
  VOLUMETRIC BUDGET FOR ENTIRE MODEL AT END OF TIME STEP    1, STRESS PERIOD  11
  ------------------------------------------------------------------------------

     CUMULATIVE VOLUMES      L**3       RATES FOR THIS TIME STEP      L**3/T
     ------------------                 ------------------------

           IN:                                      IN:
           ---                                      ---
             STORAGE =    36565006.9478               STORAGE =       18097.8056
       CONSTANT HEAD =    28732555.4030         CONSTANT HEAD =       35156.3722
               WELLS =           0.0000                 WELLS =           0.0000
            RECHARGE =    23901600.0000              RECHARGE =           0.0000
      STREAM LEAKAGE =     9635338.8650        STREAM LEAKAGE =       13181.1672

            TOTAL IN =    98834501.2158              TOTAL IN =       66435.3450

          OUT:                                     OUT:
          ----                                     ----
             STORAGE =     2278312.0304               STORAGE =           0.0000
       CONSTANT HEAD =           0.0000         CONSTANT HEAD =           0.0000
               WELLS =    35797986.2779                 WELLS =       35655.3648
            RECHARGE =           0.0000              RECHARGE =           0.0000
      STREAM LEAKAGE =    60758204.9214        STREAM LEAKAGE =       30779.9852

           TOTAL OUT =    98834503.2296             TOTAL OUT =       66435.3500

            IN - OUT =          -2.0138              IN - OUT =      -4.9898E-03

 PERCENT DISCREPANCY =          -0.00     PERCENT DISCREPANCY =          -0.00






         TIME SUMMARY AT END OF TIME STEP    1 IN STRESS PERIOD   11
                    SECONDS     MINUTES      HOURS       DAYS        YEARS
                    -----------------------------------------------------------
   TIME STEP LENGTH 7.86240E+06 1.31040E+05  2184.0      91.000     0.24914    
 STRESS PERIOD TIME 7.86240E+06 1.31040E+05  2184.0      91.000     0.24914    
         TOTAL TIME 8.67456E+07 1.44576E+06  24096.      1004.0      2.7488    
1
1
                            STRESS PERIOD NO.   12, LENGTH =   91.00000    
                            -----------------------------------------------

                              NUMBER OF TIME STEPS =     1

                               MULTIPLIER FOR DELT =     1.500

                            INITIAL TIME STEP SIZE =   91.00000    

 WELL NO.  LAYER   ROW   COL   STRESS RATE         
 --------------------------------------------------
      1      1     17     24      -1629.    
      2      1      9     25     -0.1155E+05
      3      1      8     20      -8674.    
      4      1     10     13     -0.1380E+05

      4 WELLS

                 RECHARGE =  1.000000E-03

 REUSING STREAM SEGMENT DATA FROM LAST STRESS PERIOD
 
 SOLVING FOR HEAD 


     7 CALLS TO PCG ROUTINE FOR TIME STEP   1 IN STRESS PERIOD   12
    24 TOTAL ITERATIONS

 OUTPUT CONTROL FOR STRESS PERIOD   12   TIME STEP    1
    SAVE BUDGET
    SAVE HEAD FOR ALL LAYERS
    PRINT HEAD FOR ALL LAYERS
 UBDSV2 SAVING "STREAMFLOW OUT  " ON UNIT  50 AT TIME STEP  1, STRESS PERIOD  12



 STREAM LISTING     PERIOD     12   STEP        1

 LAYER ROW COL. STREAM  RCH.  FLOW INTO     FLOW TO   FLOW OUT OF   OVRLND.     DIRECT     STREAM       STREAM     STREAM     STREAM   STREAMBED  STREAMBED
                SEG.NO.  NO.  STRM. RCH.    AQUIFER    STRM. RCH.    RUNOFF     PRECIP       ET          HEAD       DEPTH      WIDTH   CONDCTNC.   GRADIENT

   1   13    1     1     1    1.0000E+05 -1.3978E+03   1.0140E+05  0.000E+00  0.000E+00  0.000E+00  4.84066E+01  1.453E-01  2.000E+01  2.000E+04 -6.989E-02
   1   13    2     1     2    1.0140E+05 -2.2985E+03   1.0370E+05  0.000E+00  0.000E+00  0.000E+00  4.79309E+01  1.469E-01  2.000E+01  2.000E+04 -1.149E-01
   1   14    3     1     3    1.0370E+05 -4.0355E+02   1.0410E+05  0.000E+00  0.000E+00  0.000E+00  4.74548E+01  1.480E-01  2.000E+01  2.000E+04 -2.018E-02
   1   15    4     1     4    1.0410E+05 -3.8886E+02   1.0449E+05  0.000E+00  0.000E+00  0.000E+00  4.69779E+01  1.483E-01  2.000E+01  2.000E+04 -1.944E-02
   1   16    5     1     5    1.0449E+05 -1.6016E+03   1.0609E+05  0.000E+00  0.000E+00  0.000E+00  4.65015E+01  1.492E-01  2.000E+01  2.000E+04 -8.008E-02
   1   16    6     1     6    1.0609E+05 -9.9580E+02   1.0709E+05  0.000E+00  0.000E+00  0.000E+00  4.60253E+01  1.503E-01  2.000E+01  2.000E+04 -4.979E-02
   1   16    7     1     7    1.0709E+05 -9.7022E+02   1.0806E+05  0.000E+00  0.000E+00  0.000E+00  4.55489E+01  1.511E-01  2.000E+01  2.000E+04 -4.851E-02
   1   16    8     1     8    1.0806E+05 -9.6126E+02   1.0902E+05  0.000E+00  0.000E+00  0.000E+00  4.50724E+01  1.519E-01  2.000E+01  2.000E+04 -4.806E-02
   1   16    9     1     9    1.0902E+05 -9.5103E+02   1.0997E+05  0.000E+00  0.000E+00  0.000E+00  4.45959E+01  1.527E-01  2.000E+01  2.000E+04 -4.755E-02
   1   16   10     1    10    1.0997E+05 -9.4040E+02   1.1091E+05  0.000E+00  0.000E+00  0.000E+00  4.41194E+01  1.535E-01  2.000E+01  2.000E+04 -4.702E-02
   1   16   11     1    11    1.1091E+05 -9.4456E+02   1.1185E+05  0.000E+00  0.000E+00  0.000E+00  4.36430E+01  1.543E-01  2.000E+01  2.000E+04 -4.723E-02
   1   16   12     1    12    1.1185E+05 -1.3691E+03   1.1322E+05  0.000E+00  0.000E+00  0.000E+00  4.31666E+01  1.553E-01  2.000E+01  2.000E+04 -6.846E-02
   1   15   13     1    13    1.1322E+05 -5.2590E+02   1.1375E+05  0.000E+00  0.000E+00  0.000E+00  4.26901E+01  1.561E-01  2.000E+01  2.000E+04 -2.630E-02
   1   14   14     1    14    1.1375E+05 -6.4944E+01   1.1381E+05  0.000E+00  0.000E+00  0.000E+00  4.22131E+01  1.563E-01  2.000E+01  2.000E+04 -3.247E-03
   1   13   15     1    15    1.1381E+05  2.3579E+02   1.1358E+05  0.000E+00  0.000E+00  0.000E+00  4.17358E+01  1.562E-01  2.000E+01  2.000E+04  1.179E-02
   1   12   16     1    16    1.1358E+05  2.9376E+02   1.1328E+05  0.000E+00  0.000E+00  0.000E+00  4.12583E+01  1.560E-01  2.000E+01  2.000E+04  1.469E-02
   1   12   17     1    17    1.1328E+05 -3.7673E+02   1.1366E+05  0.000E+00  0.000E+00  0.000E+00  4.07810E+01  1.560E-01  2.000E+01  2.000E+04 -1.884E-02
   1   12   18     1    18    1.1366E+05 -4.3331E+02   1.1409E+05  0.000E+00  0.000E+00  0.000E+00  4.03041E+01  1.564E-01  2.000E+01  2.000E+04 -2.167E-02
   1   12   19     1    19    1.1409E+05 -3.6422E+02   1.1446E+05  0.000E+00  0.000E+00  0.000E+00  3.98272E+01  1.567E-01  2.000E+01  2.000E+04 -1.821E-02
   1   13   20     1    20    1.1446E+05 -8.1756E+02   1.1528E+05  0.000E+00  0.000E+00  0.000E+00  3.93504E+01  1.572E-01  2.000E+01  2.000E+04 -4.088E-02
   1   14   21     1    21    1.1528E+05 -1.1928E+03   1.1647E+05  0.000E+00  0.000E+00  0.000E+00  3.88739E+01  1.580E-01  2.000E+01  2.000E+04 -5.964E-02
   1   14   22     1    22    1.1647E+05  5.0714E+03   1.1140E+05  0.000E+00  0.000E+00  0.000E+00  3.83951E+01  1.564E-01  2.000E+01  2.000E+04  2.536E-01
   1    9   30     2     1    5.0000E+04 -2.1808E+02   5.0218E+04  0.000E+00  0.000E+00  0.000E+00  4.02410E+01  1.160E-01  2.000E+01  2.000E+04 -1.090E-02
   1    9   29     2     2    5.0218E+04 -4.3856E+02   5.0657E+04  0.000E+00  0.000E+00  0.000E+00  3.99915E+01  1.165E-01  2.000E+01  2.000E+04 -2.193E-02
   1    9   28     2     3    5.0657E+04 -4.5087E+02   5.1108E+04  0.000E+00  0.000E+00  0.000E+00  3.97421E+01  1.171E-01  2.000E+01  2.000E+04 -2.254E-02
   1    9   27     2     4    5.1108E+04  5.3750E+02   5.0570E+04  0.000E+00  0.000E+00  0.000E+00  3.94920E+01  1.170E-01  2.000E+01  2.000E+04  2.688E-02
   1   10   26     2     5    5.0570E+04  2.1662E+03   4.8404E+04  0.000E+00  0.000E+00  0.000E+00  3.92402E+01  1.152E-01  2.000E+01  2.000E+04  1.083E-01
   1   11   25     2     6    4.8404E+04  1.3577E+03   4.7046E+04  0.000E+00  0.000E+00  0.000E+00  3.89877E+01  1.127E-01  2.000E+01  2.000E+04  6.789E-02
   1   12   24     2     7    4.7046E+04  9.1425E+01   4.6955E+04  0.000E+00  0.000E+00  0.000E+00  3.87366E+01  1.116E-01  2.000E+01  2.000E+04  4.571E-03
   1   13   23     2     8    4.6955E+04 -5.5883E+01   4.7011E+04  0.000E+00  0.000E+00  0.000E+00  3.84866E+01  1.116E-01  2.000E+01  2.000E+04 -2.794E-03
   1   14   22     2     9    4.7011E+04  1.8764E+03   4.5134E+04  0.000E+00  0.000E+00  0.000E+00  3.82353E+01  1.103E-01  2.000E+01  2.000E+04  9.382E-02
   1   14   22     3     1    1.5653E+05 -8.5266E+03   1.6506E+05  0.000E+00  0.000E+00  0.000E+00  3.77152E+01  1.596E-01  2.000E+01  2.000E+04 -4.263E-01
   1   15   23     3     2    1.6506E+05 -4.2397E+02   1.6548E+05  0.000E+00  0.000E+00  0.000E+00  3.68289E+01  1.623E-01  2.000E+01  2.000E+04 -2.120E-02
   1   15   24     3     3    1.6548E+05 -6.3056E+01   1.6555E+05  0.000E+00  0.000E+00  0.000E+00  3.59402E+01  1.624E-01  2.000E+01  2.000E+04 -3.153E-03
   1   15   25     3     4    1.6555E+05 -1.3596E+02   1.6568E+05  0.000E+00  0.000E+00  0.000E+00  3.50514E+01  1.625E-01  2.000E+01  2.000E+04 -6.798E-03
   1   15   26     3     5    1.6568E+05 -2.6719E+02   1.6595E+05  0.000E+00  0.000E+00  0.000E+00  3.41626E+01  1.626E-01  2.000E+01  2.000E+04 -1.336E-02
   1   16   27     3     6    1.6595E+05 -2.6874E+02   1.6622E+05  0.000E+00  0.000E+00  0.000E+00  3.32739E+01  1.627E-01  2.000E+01  2.000E+04 -1.344E-02
   1   17   28     3     7    1.6622E+05 -1.4380E+03   1.6765E+05  0.000E+00  0.000E+00  0.000E+00  3.23855E+01  1.632E-01  2.000E+01  2.000E+04 -7.190E-02
   1   18   29     3     8    1.6765E+05 -2.7686E+03   1.7042E+05  0.000E+00  0.000E+00  0.000E+00  3.14978E+01  1.645E-01  2.000E+01  2.000E+04 -1.384E-01
   1   18   30     3     9    1.7042E+05 -3.1088E+03   1.7353E+05  0.000E+00  0.000E+00  0.000E+00  3.06106E+01  1.662E-01  2.000E+01  2.000E+04 -1.554E-01



1
              HEAD IN LAYER   1 AT END OF TIME STEP   1 IN STRESS PERIOD   12
  ---------------------------------------------------------------------------

          1      2      3      4      5      6      7      8      9     10
         11     12     13     14     15     16     17     18     19     20
         21     22     23     24     25     26     27     28     29     30
 .........................................................................
   1  ****** ****** ****** ****** ****** ****** ****** ****** ****** ******
      ****** ****** ****** ****** ****** ****** ****** ****** ****** ******
      ****** ****** ****** ****** ****** ****** ****** ****** ****** ******
   2  ****** ****** ****** ****** ****** ****** ****** ****** ****** ******
      ****** ****** ****** ****** ****** ****** ****** ****** ****** ******
      ****** ****** ****** ****** ****** ****** ****** ****** ****** ******
   3  ****** ****** ****** ****** ****** ****** ****** ****** ****** ******
      ****** ****** ****** ****** ****** ****** ****** ****** ****** ******
      ****** ****** ****** ****** ****** ****** ****** ****** ****** ******
   4  ****** ****** ****** ****** ****** ****** ****** ****** ****** ******
      ****** ****** ****** ****** ****** ****** ****** ****** ****** ******
      ****** ****** ****** ****** ****** ****** ****** ****** ****** ******
   5  ****** ****** ****** ****** ****** ****** ****** ****** ****** ******
      ****** ****** ****** ****** ****** ****** ****** ****** ****** ******
      ****** ****** ****** ****** ****** ****** ****** ****** ****** ******
   6  ****** ****** ****** ****** ****** ****** ****** ****** ****** ******
      ****** ****** ****** ****** ****** ****** ****** ****** ****** ******
      ****** ****** ****** ****** ****** ****** ****** ****** ****** ******
   7  ****** ****** ****** ****** ****** ****** ****** ****** ****** ******
      ****** ****** ****** ****** ****** ****** ****** ****** ****** ******
      ****** ****** ****** ****** ****** ****** ****** ****** ****** ******
   8  ****** ****** ****** ****** ****** ****** ****** ****** ****** ******
      ****** ****** ****** ****** ****** ****** ****** ****** ****** ******
      ****** ****** ****** ****** ****** ****** ****** ****** ****** ******
   9  ****** ****** ****** ****** ****** ****** ****** ****** ****** ******
      ****** ****** ****** ****** ****** ****** ****** ****** ****** ******
      ****** ****** ****** ****** ****** ****** ****** ****** ****** ******
  10  ****** ****** ****** ****** ****** ****** ****** ****** ****** ******
      ****** ****** ****** ****** ****** ****** ****** ****** ****** ******
      ****** ****** ****** ****** ****** ****** ****** ****** ****** ******
  11  ****** ****** ****** ****** ****** ****** ****** ****** ****** ******
      ****** ****** ****** ****** ****** ****** ****** ****** ****** ******
      ****** ****** ****** ****** ****** ****** ****** ****** ****** ******
  12  ****** ****** ****** ****** ****** ****** ****** ****** ****** ******
      ****** ****** ****** ****** ****** ****** ****** ****** ****** ******
      ****** ****** ****** ****** ****** ****** ****** ****** ****** ******
  13  ****** ****** ****** ****** ****** ****** ****** ****** ****** ******
      ****** ****** ****** ****** ****** ****** ****** ****** ****** ******
      ****** ****** ****** ****** ****** ****** ****** ****** ****** ******
  14  ****** ****** ****** ****** ****** ****** ****** ****** ****** ******
      ****** ****** ****** ****** ****** ****** ****** ****** ****** ******
      ****** ****** ****** ****** ****** ****** ****** ****** ****** ******
  15  ****** ****** ****** ****** ****** ****** ****** ****** ****** ******
      ****** ****** ****** ****** ****** ****** ****** ****** ****** ******
      ****** ****** ****** ****** ****** ****** ****** ****** ****** ******
  16  ****** ****** ****** ****** ****** ****** ****** ****** ****** ******
      ****** ****** ****** ****** ****** ****** ****** ****** ****** ******
      ****** ****** ****** ****** ****** ****** ****** ****** ****** ******
  17  ****** ****** ****** ****** ****** ****** ****** ****** ****** ******
      ****** ****** ****** ****** ****** ****** ****** ****** ****** ******
      ****** ****** ****** ****** ****** ****** ****** ****** ****** ******
  18  ****** ****** ****** ****** ****** ****** ****** ****** ****** ******
      ****** ****** ****** ****** ****** ****** ****** ****** ****** ******
      ****** ****** ****** ****** ****** ****** ****** ****** ****** ******
  19  ****** ****** ****** ****** ****** ****** ****** ****** ****** ******
      ****** ****** ****** ****** ****** ****** ****** ****** ****** ******
      ****** ****** ****** ****** ****** ****** ****** ****** ****** ******
  20  ****** ****** ****** ****** ****** ****** ****** ****** ****** ******
      ****** ****** ****** ****** ****** ****** ****** ****** ****** ******
      ****** ****** ****** ****** ****** ****** ****** ****** ****** ******
  21  ****** ****** ****** ****** ****** ****** ****** ****** ****** ******
      ****** ****** ****** ****** ****** ****** ****** ****** ****** ******
      ****** ****** ****** ****** ****** ****** ****** ****** ****** ******
  22  ****** ****** ****** ****** ****** ****** ****** ****** ****** ******
      ****** ****** ****** ****** ****** ****** ****** ****** ****** ******
      ****** ****** ****** ****** ****** ****** ****** ****** ****** ******
  23  ****** ****** ****** ****** ****** ****** ****** ****** ****** ******
      ****** ****** ****** ****** ****** ****** ****** ****** ****** ******
      ****** ****** ****** ****** ****** ****** ****** ****** ****** ******
  24  ****** ****** ****** ****** ****** ****** ****** ****** ****** ******
      ****** ****** ****** ****** ****** ****** ****** ****** ****** ******
      ****** ****** ****** ****** ****** ****** ****** ****** ****** ******
  25  ****** ****** ****** ****** ****** ****** ****** ****** ****** ******
      ****** ****** ****** ****** ****** ****** ****** ****** ****** ******
      ****** ****** ****** ****** ****** ****** ****** ****** ****** ******

 HEAD WILL BE SAVED ON UNIT   51 AT END OF TIME STEP    1, STRESS PERIOD   12
1
  VOLUMETRIC BUDGET FOR ENTIRE MODEL AT END OF TIME STEP    1, STRESS PERIOD  12
  ------------------------------------------------------------------------------

     CUMULATIVE VOLUMES      L**3       RATES FOR THIS TIME STEP      L**3/T
     ------------------                 ------------------------

           IN:                                      IN:
           ---                                      ---
             STORAGE =    36568677.8233               STORAGE =          40.3393
       CONSTANT HEAD =    31869558.0739         CONSTANT HEAD =       34472.5568
               WELLS =           0.0000                 WELLS =           0.0000
            RECHARGE =    26413200.0000              RECHARGE =       27600.0000
      STREAM LEAKAGE =    10693683.6906        STREAM LEAKAGE =       11630.1629

            TOTAL IN =   105545119.5878              TOTAL IN =       73743.0590

          OUT:                                     OUT:
          ----                                     ----
             STORAGE =     2544499.3043               STORAGE =        2925.1349
       CONSTANT HEAD =           0.0000         CONSTANT HEAD =           0.0000
               WELLS =    39042624.4764                 WELLS =       35655.3648
            RECHARGE =           0.0000              RECHARGE =           0.0000
      STREAM LEAKAGE =    63957997.7396        STREAM LEAKAGE =       35162.5584

           TOTAL OUT =   105545121.5203             TOTAL OUT =       73743.0581

            IN - OUT =          -1.9325              IN - OUT =       8.9409E-04

 PERCENT DISCREPANCY =          -0.00     PERCENT DISCREPANCY =           0.00






         TIME SUMMARY AT END OF TIME STEP    1 IN STRESS PERIOD   12
                    SECONDS     MINUTES      HOURS       DAYS        YEARS
                    -----------------------------------------------------------
   TIME STEP LENGTH 7.86240E+06 1.31040E+05  2184.0      91.000     0.24914    
 STRESS PERIOD TIME 7.86240E+06 1.31040E+05  2184.0      91.000     0.24914    
         TOTAL TIME 9.46080E+07 1.57680E+06  26280.      1095.0      2.9979    
1

 Run end date and time (yyyy/mm/dd hh:mm:ss): 2018/10/10 18:14:52
 Elapsed run time:  0.063 Seconds

