                                  MODFLOW-2005     
      U.S. GEOLOGICAL SURVEY MODULAR FINITE-DIFFERENCE GROUND-WATER FLOW MODEL
                            VERSION 1.11.00 8/8/2013

 LIST FILE: supply2.lst
                         UNIT   10

 OPENING ..\data\supply.dis
 FILE TYPE:DIS   UNIT   11   STATUS:OLD    
 FORMAT:FORMATTED              ACCESS:SEQUENTIAL          

 OPENING ..\data\supply.ba6
 FILE TYPE:BAS6   UNIT   12   STATUS:OLD    
 FORMAT:FORMATTED              ACCESS:SEQUENTIAL          

 OPENING ..\data\supply.bc6
 FILE TYPE:BCF6   UNIT   13   STATUS:OLD    
 FORMAT:FORMATTED              ACCESS:SEQUENTIAL          

 OPENING ..\data\supply.rch
 FILE TYPE:RCH   UNIT   15   STATUS:OLD    
 FORMAT:FORMATTED              ACCESS:SEQUENTIAL          

 OPENING ..\data\supply2.sfr
 FILE TYPE:SFR   UNIT   16   STATUS:OLD    
 FORMAT:FORMATTED              ACCESS:SEQUENTIAL          

 OPENING ..\data\supply.oc
 FILE TYPE:OC   UNIT   17   STATUS:OLD    
 FORMAT:FORMATTED              ACCESS:SEQUENTIAL          

 OPENING ..\data\supply.pcg
 FILE TYPE:PCG   UNIT   18   STATUS:OLD    
 FORMAT:FORMATTED              ACCESS:SEQUENTIAL          

 OPENING supply2.wel
 FILE TYPE:WEL   UNIT   19   STATUS:OLD    
 FORMAT:FORMATTED              ACCESS:SEQUENTIAL          

 OPENING supply2sf.cbc
 FILE TYPE:DATA(BINARY)   UNIT   50   STATUS:UNKNOWN
 FORMAT:BINARY                 ACCESS:SEQUENTIAL          

 OPENING supply2hd.bhd
 FILE TYPE:DATA(BINARY)   UNIT   51   STATUS:UNKNOWN
 FORMAT:BINARY                 ACCESS:SEQUENTIAL          

 BAS -- BASIC PACKAGE, VERSION 7, 5/2/2005 INPUT READ FROM UNIT   12
 
 MODFLOW was compiled using uniform precision
 Precision of REAL and DOUBLE PRECISION variables:          15

 DISCRETIZATION INPUT DATA READ FROM UNIT   11
    1 LAYERS        25 ROWS        30 COLUMNS
   12 STRESS PERIOD(S) IN SIMULATION
 MODEL TIME UNIT IS DAYS
 MODEL LENGTH UNIT IS UNDEFINED
  Confining bed flag for each layer:
   0

                     DELR =   200.000    

                     DELC =   200.000    

 TOP ELEVATION OF LAYER 1 =  100.0000    

   MODEL LAYER BOTTOM EL. =   0.00000     FOR LAYER   1


 STRESS PERIOD     LENGTH       TIME STEPS     MULTIPLIER FOR DELT    SS FLAG
 ----------------------------------------------------------------------------
        1         92.00000          1                    1.500         TR
        2         91.00000          1                    1.500         TR
        3         91.00000          1                    1.500         TR
        4         91.00000          1                    1.500         TR
        5         92.00000          1                    1.500         TR
        6         91.00000          1                    1.500         TR
        7         91.00000          1                    1.500         TR
        8         91.00000          1                    1.500         TR
        9         92.00000          1                    1.500         TR
       10         91.00000          1                    1.500         TR
       11         91.00000          1                    1.500         TR
       12         91.00000          1                    1.500         TR

 TRANSIENT SIMULATION



 
 #MODOFC transient water supply sample problem                                   
 #                                                                               
 THE FREE FORMAT OPTION HAS BEEN SELECTED



                     BOUNDARY ARRAY FOR LAYER   1
 READING ON UNIT   12 WITH FORMAT: (20I4)              

 AQUIFER HEAD WILL BE SET TO   0.0000     AT ALL NO-FLOW NODES (IBOUND=0).



                       INITIAL HEAD FOR LAYER   1
 READING ON UNIT   12 WITH FORMAT: (10F13.0)           

 OUTPUT CONTROL IS SPECIFIED ONLY AT TIME STEPS FOR WHICH OUTPUT IS DESIRED
 COMPACT CELL-BY-CELL BUDGET FILES WILL BE WRITTEN
 HEAD PRINT FORMAT CODE IS  18    DRAWDOWN PRINT FORMAT CODE IS   0
 HEADS WILL BE SAVED ON UNIT   51    DRAWDOWNS WILL BE SAVED ON UNIT    0

 BCF -- BLOCK-CENTERED FLOW PACKAGE, VERSION 7, 5/2/2005
         INPUT READ FROM UNIT 13
 TRANSIENT SIMULATION
 HEAD AT CELLS THAT CONVERT TO DRY=   0.0000    
 WETTING CAPABILITY IS NOT ACTIVE
      LAYER  LAYER-TYPE CODE     INTERBLOCK T
      --------------------------------------------
         1            0          0 -- HARMONIC    

 COLUMN TO ROW ANISOTROPY =  1.000000    

     PRIMARY STORAGE COEF =  5.000000E-02 FOR LAYER   1

     TRANSMIS. ALONG ROWS =   500.000     FOR LAYER   1

 WEL -- WELL PACKAGE, VERSION 7, 5/2/2005 INPUT READ FROM UNIT   19
 # Well package input file written by MMProc
 No named parameters
 MAXIMUM OF      6 ACTIVE WELLS AT ONE TIME


     0 Well parameters

 RCH -- RECHARGE PACKAGE, VERSION 7, 5/2/2005 INPUT READ FROM UNIT   15
 No named parameters
 OPTION 1 -- RECHARGE TO TOP LAYER


     0 Recharge parameters

 SFR7 -- STREAMFLOW ROUTING PACKAGE, VERSION 1.0.7, 2013-01-15
         INPUT READ FROM UNIT  16
 #  Supply2 test problem for GWM-VI
 #  The eighth entry in the first data line is ISTCB2 -
 #    Setting this to a negative number indicates that
 #    streamflows out of the reach will be saved to a
 #    binary file.  The absolute value of ISTCB2 is the
 #    unit to which unformatted flows will be written.
 #
 No named parameters
 Segment information will not be 
 read by reach
 No named parameters
 No specifed inflow files


 NUMBER OF STREAM REACHES IS   40

 NUMBER OF STREAM SEGMENTS IS    3

 NUMBER OF STREAM PARAMETERS IS    0

 NUMBER OF STREAM SEGMENTS DEFINED USING PARAMETERS IS              0

 MAXIMUM ERROR FOR STREAM LEAKAGE RATES IS  1.00E-04

 CONSTANT FOR MANNINGS EQUATION IS  1.2839E+05





   STREAM NETWORK DESCRIPTION: 

   LAYER    ROW    COL   SEGMENT   REACH     LENGTH
                          NUMBER   NUMBER    IN CELL        
   --------------------------------------------------
      1     13      1       1        1    2.0000E+02
      1     13      2       1        2    2.0000E+02
      1     14      3       1        3    2.0000E+02
      1     15      4       1        4    2.0000E+02
      1     16      5       1        5    2.0000E+02
      1     16      6       1        6    2.0000E+02
      1     16      7       1        7    2.0000E+02
      1     16      8       1        8    2.0000E+02
      1     16      9       1        9    2.0000E+02
      1     16     10       1       10    2.0000E+02
      1     16     11       1       11    2.0000E+02
      1     16     12       1       12    2.0000E+02
      1     15     13       1       13    2.0000E+02
      1     14     14       1       14    2.0000E+02
      1     13     15       1       15    2.0000E+02
      1     12     16       1       16    2.0000E+02
      1     12     17       1       17    2.0000E+02
      1     12     18       1       18    2.0000E+02
      1     12     19       1       19    2.0000E+02
      1     13     20       1       20    2.0000E+02
      1     14     21       1       21    2.0000E+02
      1     14     22       1       22    2.0000E+02
      1      9     30       2        1    2.0000E+02
      1      9     29       2        2    2.0000E+02
      1      9     28       2        3    2.0000E+02
      1      9     27       2        4    2.0000E+02
      1     10     26       2        5    2.0000E+02
      1     11     25       2        6    2.0000E+02
      1     12     24       2        7    2.0000E+02
      1     13     23       2        8    2.0000E+02
      1     14     22       2        9    2.0000E+02
      1     14     22       3        1    2.0000E+02
      1     15     23       3        2    2.0000E+02
      1     15     24       3        3    2.0000E+02
      1     15     25       3        4    2.0000E+02
      1     15     26       3        5    2.0000E+02
      1     16     27       3        6    2.0000E+02
      1     17     28       3        7    2.0000E+02
      1     18     29       3        8    2.0000E+02
      1     18     30       3        9    2.0000E+02




 PCG -- CONJUGATE-GRADIENT SOLUTION PACKAGE, VERSION 7, 5/2/2005
 MAXIMUM OF    500 CALLS OF SOLUTION ROUTINE
 MAXIMUM OF      5 INTERNAL ITERATIONS PER CALL TO SOLUTION ROUTINE
 MATRIX PRECONDITIONING TYPE :    1



                                    SOLUTION BY THE CONJUGATE-GRADIENT METHOD
                                   -------------------------------------------
                    MAXIMUM NUMBER OF CALLS TO PCG ROUTINE =      500
                        MAXIMUM ITERATIONS PER CALL TO PCG =        5
                               MATRIX PRECONDITIONING TYPE =        1
        RELAXATION FACTOR (ONLY USED WITH PRECOND. TYPE 1) =    0.10000E+01
 PARAMETER OF POLYNOMIAL PRECOND. = 2 (2) OR IS CALCULATED :        0
                         HEAD CHANGE CRITERION FOR CLOSURE =    0.10000E-05
                     RESIDUAL CHANGE CRITERION FOR CLOSURE =    0.10000E+01
            PCG HEAD AND RESIDUAL CHANGE PRINTOUT INTERVAL =        1
     PRINTING FROM SOLVER IS LIMITED(1) OR SUPPRESSED (>1) =        1
                            STEADY-STATE DAMPING PARAMETER =    0.10000E+01
                               TRANSIENT DAMPING PARAMETER =    0.10000E+01
1
                            STRESS PERIOD NO.    1, LENGTH =   92.00000    
                            -----------------------------------------------

                              NUMBER OF TIME STEPS =     1

                               MULTIPLIER FOR DELT =     1.500

                            INITIAL TIME STEP SIZE =   92.00000    

 WELL NO.  LAYER   ROW   COL   STRESS RATE         
 --------------------------------------------------
      1      1     23     10     -0.1134E+05
      2      1     17      3     -0.1036E+05
      3      1     23     22     -0.1145E+05

      3 WELLS

                 RECHARGE =  5.000000E-04



 CLASSIFICATION & COUNT OF STREAM SEGMENTS BASED ON SOURCE OF INFLOW:

                HEADWATER     DIVERSION     RECEIVES TRIBUTARY FLOW
                ---------     ---------     -----------------------
                     2              0               1



                    INPUT DATA FOR EACH STREAM SEGMENT
 ---------------------------------------------------------------------------------------------

 SEGMENT    SEG.     INFLOW   OVERLAND   STREAM    STREAM   ICALC  OUTFLOW  DIVERSION PRIORITY
    NO.    LENGTH     RATE     RUNOFF      ET       PPT.    METH.  TO SEG.  FROM SEG.    NO.

      1  4.400E+03 1.000E+05 0.000E+00 0.000E+00 0.000E+00    1        3        0        0
      2  1.800E+03 5.000E+04 0.000E+00 0.000E+00 0.000E+00    1        3        0        0
      3  1.800E+03 0.000E+00 0.000E+00 0.000E+00 0.000E+00    1        0        0        0


         STREAMBED PROPERTIES AND STREAM DIMENSIONS

 SEGMENT     BED HYD. COND.      BED THICKNESS     ELEV.-TOP OF BED     WIDTH OF STREAM     DEPTH OF STREAM    STREAM ROUGHNESS
    No.     UPPER     LOWER     UPPER     LOWER     UPPER     LOWER     UPPER     LOWER     UPPER     LOWER   CHANNEL      BANK

     1  5.000E+00 5.000E+00 1.000E+00 1.000E+00 4.850E+01 3.800E+01 2.000E+01 2.000E+01                     5.000E-02
     2  5.000E+00 5.000E+00 1.000E+00 1.000E+00 4.025E+01 3.800E+01 2.000E+01 2.000E+01                     5.000E-02
     3  5.000E+00 5.000E+00 1.000E+00 1.000E+00 3.800E+01 3.000E+01 2.000E+01 2.000E+01                     5.000E-02



 
 SOLVING FOR HEAD 


     8 CALLS TO PCG ROUTINE FOR TIME STEP   1 IN STRESS PERIOD    1
    34 TOTAL ITERATIONS

 OUTPUT CONTROL FOR STRESS PERIOD    1   TIME STEP    1
    SAVE BUDGET
    SAVE HEAD FOR ALL LAYERS
    PRINT HEAD FOR ALL LAYERS
 UBDSV2 SAVING "STREAMFLOW OUT  " ON UNIT  50 AT TIME STEP  1, STRESS PERIOD   1



 STREAM LISTING     PERIOD      1   STEP        1

 LAYER ROW COL. STREAM  RCH.  FLOW INTO     FLOW TO   FLOW OUT OF   OVRLND.     DIRECT     STREAM       STREAM     STREAM     STREAM   STREAMBED  STREAMBED
                SEG.NO.  NO.  STRM. RCH.    AQUIFER    STRM. RCH.    RUNOFF     PRECIP       ET          HEAD       DEPTH      WIDTH   CONDCTNC.   GRADIENT

   1   13    1     1     1    1.0000E+05 -5.3094E+03   1.0531E+05  0.000E+00  0.000E+00  0.000E+00  4.84083E+01  1.469E-01  2.000E+01  2.000E+04 -2.655E-01
   1   13    2     1     2    1.0531E+05 -8.2324E+03   1.1354E+05  0.000E+00  0.000E+00  0.000E+00  4.79368E+01  1.527E-01  2.000E+01  2.000E+04 -4.116E-01
   1   14    3     1     3    1.1354E+05 -6.7722E+03   1.2031E+05  0.000E+00  0.000E+00  0.000E+00  4.74657E+01  1.589E-01  2.000E+01  2.000E+04 -3.386E-01
   1   15    4     1     4    1.2031E+05 -5.9223E+03   1.2624E+05  0.000E+00  0.000E+00  0.000E+00  4.69935E+01  1.640E-01  2.000E+01  2.000E+04 -2.961E-01
   1   16    5     1     5    1.2624E+05 -5.5773E+03   1.3181E+05  0.000E+00  0.000E+00  0.000E+00  4.65208E+01  1.685E-01  2.000E+01  2.000E+04 -2.789E-01
   1   16    6     1     6    1.3181E+05 -5.4766E+03   1.3729E+05  0.000E+00  0.000E+00  0.000E+00  4.60478E+01  1.728E-01  2.000E+01  2.000E+04 -2.738E-01
   1   16    7     1     7    1.3729E+05 -5.8189E+03   1.4311E+05  0.000E+00  0.000E+00  0.000E+00  4.55749E+01  1.772E-01  2.000E+01  2.000E+04 -2.909E-01
   1   16    8     1     8    1.4311E+05 -5.9810E+03   1.4909E+05  0.000E+00  0.000E+00  0.000E+00  4.51021E+01  1.816E-01  2.000E+01  2.000E+04 -2.991E-01
   1   16    9     1     9    1.4909E+05 -6.0312E+03   1.5512E+05  0.000E+00  0.000E+00  0.000E+00  4.46292E+01  1.860E-01  2.000E+01  2.000E+04 -3.016E-01
   1   16   10     1    10    1.5512E+05 -6.0035E+03   1.6112E+05  0.000E+00  0.000E+00  0.000E+00  4.41563E+01  1.904E-01  2.000E+01  2.000E+04 -3.002E-01
   1   16   11     1    11    1.6112E+05 -5.9426E+03   1.6707E+05  0.000E+00  0.000E+00  0.000E+00  4.36833E+01  1.947E-01  2.000E+01  2.000E+04 -2.971E-01
   1   16   12     1    12    1.6707E+05 -7.7121E+03   1.7478E+05  0.000E+00  0.000E+00  0.000E+00  4.32109E+01  1.995E-01  2.000E+01  2.000E+04 -3.856E-01
   1   15   13     1    13    1.7478E+05 -8.1333E+03   1.8291E+05  0.000E+00  0.000E+00  0.000E+00  4.27391E+01  2.050E-01  2.000E+01  2.000E+04 -4.067E-01
   1   14   14     1    14    1.8291E+05 -8.4098E+03   1.9132E+05  0.000E+00  0.000E+00  0.000E+00  4.22675E+01  2.107E-01  2.000E+01  2.000E+04 -4.205E-01
   1   13   15     1    15    1.9132E+05 -8.6553E+03   1.9998E+05  0.000E+00  0.000E+00  0.000E+00  4.17959E+01  2.164E-01  2.000E+01  2.000E+04 -4.328E-01
   1   12   16     1    16    1.9998E+05 -9.4511E+03   2.0943E+05  0.000E+00  0.000E+00  0.000E+00  4.13246E+01  2.223E-01  2.000E+01  2.000E+04 -4.726E-01
   1   12   17     1    17    2.0943E+05 -6.6590E+03   2.1609E+05  0.000E+00  0.000E+00  0.000E+00  4.08525E+01  2.275E-01  2.000E+01  2.000E+04 -3.329E-01
   1   12   18     1    18    2.1609E+05 -6.4838E+03   2.2257E+05  0.000E+00  0.000E+00  0.000E+00  4.03795E+01  2.317E-01  2.000E+01  2.000E+04 -3.242E-01
   1   12   19     1    19    2.2257E+05 -8.1660E+03   2.3074E+05  0.000E+00  0.000E+00  0.000E+00  3.99068E+01  2.363E-01  2.000E+01  2.000E+04 -4.083E-01
   1   13   20     1    20    2.3074E+05 -6.7225E+03   2.3746E+05  0.000E+00  0.000E+00  0.000E+00  3.94342E+01  2.410E-01  2.000E+01  2.000E+04 -3.361E-01
   1   14   21     1    21    2.3746E+05 -5.5701E+03   2.4303E+05  0.000E+00  0.000E+00  0.000E+00  3.89607E+01  2.447E-01  2.000E+01  2.000E+04 -2.785E-01
   1   14   22     1    22    2.4303E+05  4.3289E+03   2.3870E+05  0.000E+00  0.000E+00  0.000E+00  3.84838E+01  2.451E-01  2.000E+01  2.000E+04  2.164E-01
   1    9   30     2     1    5.0000E+04 -5.5715E+03   5.5572E+04  0.000E+00  0.000E+00  0.000E+00  4.02447E+01  1.197E-01  2.000E+01  2.000E+04 -2.786E-01
   1    9   29     2     2    5.5572E+04 -5.8705E+03   6.1442E+04  0.000E+00  0.000E+00  0.000E+00  4.00023E+01  1.273E-01  2.000E+01  2.000E+04 -2.935E-01
   1    9   28     2     3    6.1442E+04 -6.1947E+03   6.7637E+04  0.000E+00  0.000E+00  0.000E+00  3.97600E+01  1.350E-01  2.000E+01  2.000E+04 -3.097E-01
   1    9   27     2     4    6.7637E+04 -9.5879E+03   7.7225E+04  0.000E+00  0.000E+00  0.000E+00  3.95197E+01  1.447E-01  2.000E+01  2.000E+04 -4.794E-01
   1   10   26     2     5    7.7225E+04 -7.7189E+03   8.4944E+04  0.000E+00  0.000E+00  0.000E+00  3.92799E+01  1.549E-01  2.000E+01  2.000E+04 -3.859E-01
   1   11   25     2     6    8.4944E+04 -6.5937E+03   9.1537E+04  0.000E+00  0.000E+00  0.000E+00  3.90379E+01  1.629E-01  2.000E+01  2.000E+04 -3.297E-01
   1   12   24     2     7    9.1537E+04 -5.3356E+03   9.6873E+04  0.000E+00  0.000E+00  0.000E+00  3.87944E+01  1.694E-01  2.000E+01  2.000E+04 -2.668E-01
   1   13   23     2     8    9.6873E+04 -3.7934E+03   1.0067E+05  0.000E+00  0.000E+00  0.000E+00  3.85493E+01  1.743E-01  2.000E+01  2.000E+04 -1.897E-01
   1   14   22     2     9    1.0067E+05  6.7297E+02   9.9993E+04  0.000E+00  0.000E+00  0.000E+00  3.83010E+01  1.760E-01  2.000E+01  2.000E+04  3.365E-02
   1   14   22     3     1    3.3869E+05 -9.2034E+03   3.4790E+05  0.000E+00  0.000E+00  0.000E+00  3.78072E+01  2.516E-01  2.000E+01  2.000E+04 -4.602E-01
   1   15   23     3     2    3.4790E+05 -5.8734E+03   3.5377E+05  0.000E+00  0.000E+00  0.000E+00  3.69216E+01  2.549E-01  2.000E+01  2.000E+04 -2.937E-01
   1   15   24     3     3    3.5377E+05 -4.2722E+03   3.5804E+05  0.000E+00  0.000E+00  0.000E+00  3.60349E+01  2.571E-01  2.000E+01  2.000E+04 -2.136E-01
   1   15   25     3     4    3.5804E+05 -4.2856E+03   3.6233E+05  0.000E+00  0.000E+00  0.000E+00  3.51478E+01  2.590E-01  2.000E+01  2.000E+04 -2.143E-01
   1   15   26     3     5    3.6233E+05 -5.6286E+03   3.6796E+05  0.000E+00  0.000E+00  0.000E+00  3.42611E+01  2.611E-01  2.000E+01  2.000E+04 -2.814E-01
   1   16   27     3     6    3.6796E+05 -7.1907E+03   3.7515E+05  0.000E+00  0.000E+00  0.000E+00  3.33749E+01  2.638E-01  2.000E+01  2.000E+04 -3.595E-01
   1   17   28     3     7    3.7515E+05 -7.9591E+03   3.8311E+05  0.000E+00  0.000E+00  0.000E+00  3.24893E+01  2.670E-01  2.000E+01  2.000E+04 -3.980E-01
   1   18   29     3     8    3.8311E+05 -8.9979E+03   3.9211E+05  0.000E+00  0.000E+00  0.000E+00  3.16039E+01  2.706E-01  2.000E+01  2.000E+04 -4.499E-01
   1   18   30     3     9    3.9211E+05 -7.4852E+03   3.9959E+05  0.000E+00  0.000E+00  0.000E+00  3.07185E+01  2.740E-01  2.000E+01  2.000E+04 -3.743E-01



1
              HEAD IN LAYER   1 AT END OF TIME STEP   1 IN STRESS PERIOD    1
  ---------------------------------------------------------------------------

          1      2      3      4      5      6      7      8      9     10
         11     12     13     14     15     16     17     18     19     20
         21     22     23     24     25     26     27     28     29     30
 .........................................................................
   1  ****** ****** ****** ****** ****** ****** ****** ****** ****** ******
      ****** ****** ****** ****** ****** ****** ****** ****** ****** ******
      ****** ****** ****** ****** ****** ****** ****** ****** ****** ******
   2  ****** ****** ****** ****** ****** ****** ****** ****** ****** ******
      ****** ****** ****** ****** ****** ****** ****** ****** ****** ******
      ****** ****** ****** ****** ****** ****** ****** ****** ****** ******
   3  ****** ****** ****** ****** ****** ****** ****** ****** ****** ******
      ****** ****** ****** ****** ****** ****** ****** ****** ****** ******
      ****** ****** ****** ****** ****** ****** ****** ****** ****** ******
   4  ****** ****** ****** ****** ****** ****** ****** ****** ****** ******
      ****** ****** ****** ****** ****** ****** ****** ****** ****** ******
      ****** ****** ****** ****** ****** ****** ****** ****** ****** ******
   5  ****** ****** ****** ****** ****** ****** ****** ****** ****** ******
      ****** ****** ****** ****** ****** ****** ****** ****** ****** ******
      ****** ****** ****** ****** ****** ****** ****** ****** ****** ******
   6  ****** ****** ****** ****** ****** ****** ****** ****** ****** ******
      ****** ****** ****** ****** ****** ****** ****** ****** ****** ******
      ****** ****** ****** ****** ****** ****** ****** ****** ****** ******
   7  ****** ****** ****** ****** ****** ****** ****** ****** ****** ******
      ****** ****** ****** ****** ****** ****** ****** ****** ****** ******
      ****** ****** ****** ****** ****** ****** ****** ****** ****** ******
   8  ****** ****** ****** ****** ****** ****** ****** ****** ****** ******
      ****** ****** ****** ****** ****** ****** ****** ****** ****** ******
      ****** ****** ****** ****** ****** ****** ****** ****** ****** ******
   9  ****** ****** ****** ****** ****** ****** ****** ****** ****** ******
      ****** ****** ****** ****** ****** ****** ****** ****** ****** ******
      ****** ****** ****** ****** ****** ****** ****** ****** ****** ******
  10  ****** ****** ****** ****** ****** ****** ****** ****** ****** ******
      ****** ****** ****** ****** ****** ****** ****** ****** ****** ******
      ****** ****** ****** ****** ****** ****** ****** ****** ****** ******
  11  ****** ****** ****** ****** ****** ****** ****** ****** ****** ******
      ****** ****** ****** ****** ****** ****** ****** ****** ****** ******
      ****** ****** ****** ****** ****** ****** ****** ****** ****** ******
  12  ****** ****** ****** ****** ****** ****** ****** ****** ****** ******
      ****** ****** ****** ****** ****** ****** ****** ****** ****** ******
      ****** ****** ****** ****** ****** ****** ****** ****** ****** ******
  13  ****** ****** ****** ****** ****** ****** ****** ****** ****** ******
      ****** ****** ****** ****** ****** ****** ****** ****** ****** ******
      ****** ****** ****** ****** ****** ****** ****** ****** ****** ******
  14  ****** ****** ****** ****** ****** ****** ****** ****** ****** ******
      ****** ****** ****** ****** ****** ****** ****** ****** ****** ******
      ****** ****** ****** ****** ****** ****** ****** ****** ****** ******
  15  ****** ****** ****** ****** ****** ****** ****** ****** ****** ******
      ****** ****** ****** ****** ****** ****** ****** ****** ****** ******
      ****** ****** ****** ****** ****** ****** ****** ****** ****** ******
  16  ****** ****** ****** ****** ****** ****** ****** ****** ****** ******
      ****** ****** ****** ****** ****** ****** ****** ****** ****** ******
      ****** ****** ****** ****** ****** ****** ****** ****** ****** ******
  17  ****** ****** ****** ****** ****** ****** ****** ****** ****** ******
      ****** ****** ****** ****** ****** ****** ****** ****** ****** ******
      ****** ****** ****** ****** ****** ****** ****** ****** ****** ******
  18  ****** ****** ****** ****** ****** ****** ****** ****** ****** ******
      ****** ****** ****** ****** ****** ****** ****** ****** ****** ******
      ****** ****** ****** ****** ****** ****** ****** ****** ****** ******
  19  ****** ****** ****** ****** ****** ****** ****** ****** ****** ******
      ****** ****** ****** ****** ****** ****** ****** ****** ****** ******
      ****** ****** ****** ****** ****** ****** ****** ****** ****** ******
  20  ****** ****** ****** ****** ****** ****** ****** ****** ****** ******
      ****** ****** ****** ****** ****** ****** ****** ****** ****** ******
      ****** ****** ****** ****** ****** ****** ****** ****** ****** ******
  21  ****** ****** ****** ****** ****** ****** ****** ****** ****** ******
      ****** ****** ****** ****** ****** ****** ****** ****** ****** ******
      ****** ****** ****** ****** ****** ****** ****** ****** ****** ******
  22  ****** ****** ****** ****** ****** ****** ****** ****** ****** ******
      ****** ****** ****** ****** ****** ****** ****** ****** ****** ******
      ****** ****** ****** ****** ****** ****** ****** ****** ****** ******
  23  ****** ****** ****** ****** ****** ****** ****** ****** ****** ******
      ****** ****** ****** ****** ****** ****** ****** ****** ****** ******
      ****** ****** ****** ****** ****** ****** ****** ****** ****** ******
  24  ****** ****** ****** ****** ****** ****** ****** ****** ****** ******
      ****** ****** ****** ****** ****** ****** ****** ****** ****** ******
      ****** ****** ****** ****** ****** ****** ****** ****** ****** ******
  25  ****** ****** ****** ****** ****** ****** ****** ****** ****** ******
      ****** ****** ****** ****** ****** ****** ****** ****** ****** ******
      ****** ****** ****** ****** ****** ****** ****** ****** ****** ******

 HEAD WILL BE SAVED ON UNIT   51 AT END OF TIME STEP    1, STRESS PERIOD    1
1
  VOLUMETRIC BUDGET FOR ENTIRE MODEL AT END OF TIME STEP    1, STRESS PERIOD   1
  ------------------------------------------------------------------------------

     CUMULATIVE VOLUMES      L**3       RATES FOR THIS TIME STEP      L**3/T
     ------------------                 ------------------------

           IN:                                      IN:
           ---                                      ---
             STORAGE =    16024217.9456               STORAGE =      174176.2820
       CONSTANT HEAD =     8717837.2996         CONSTANT HEAD =       94759.1011
               WELLS =           0.0000                 WELLS =           0.0000
            RECHARGE =     1269600.0000              RECHARGE =       13800.0000
      STREAM LEAKAGE =      460171.3863        STREAM LEAKAGE =        5001.8629

            TOTAL IN =    26471826.6315              TOTAL IN =      287737.2460

          OUT:                                     OUT:
          ----                                     ----
             STORAGE =           0.0000               STORAGE =           0.0000
       CONSTANT HEAD =           0.0000         CONSTANT HEAD =           0.0000
               WELLS =     3049306.7913                 WELLS =       33144.6390
            RECHARGE =           0.0000              RECHARGE =           0.0000
      STREAM LEAKAGE =    23422519.9785        STREAM LEAKAGE =      254592.6085

           TOTAL OUT =    26471826.7698             TOTAL OUT =      287737.2475

            IN - OUT =          -0.1383              IN - OUT =      -1.5035E-03

 PERCENT DISCREPANCY =          -0.00     PERCENT DISCREPANCY =          -0.00






         TIME SUMMARY AT END OF TIME STEP    1 IN STRESS PERIOD    1
                    SECONDS     MINUTES      HOURS       DAYS        YEARS
                    -----------------------------------------------------------
   TIME STEP LENGTH 7.94880E+06 1.32480E+05  2208.0      92.000     0.25188    
 STRESS PERIOD TIME 7.94880E+06 1.32480E+05  2208.0      92.000     0.25188    
         TOTAL TIME 7.94880E+06 1.32480E+05  2208.0      92.000     0.25188    
1
1
                            STRESS PERIOD NO.    2, LENGTH =   91.00000    
                            -----------------------------------------------

                              NUMBER OF TIME STEPS =     1

                               MULTIPLIER FOR DELT =     1.500

                            INITIAL TIME STEP SIZE =   91.00000    

 WELL NO.  LAYER   ROW   COL   STRESS RATE         
 --------------------------------------------------
      1      1     23     10     -0.1134E+05
      2      1     17      3     -0.1036E+05
      3      1     23     22     -0.1145E+05

      3 WELLS

                 RECHARGE =  2.000000E-03

 REUSING STREAM SEGMENT DATA FROM LAST STRESS PERIOD
 
 SOLVING FOR HEAD 


     7 CALLS TO PCG ROUTINE FOR TIME STEP   1 IN STRESS PERIOD    2
    27 TOTAL ITERATIONS

 OUTPUT CONTROL FOR STRESS PERIOD    2   TIME STEP    1
    SAVE BUDGET
    SAVE HEAD FOR ALL LAYERS
    PRINT HEAD FOR ALL LAYERS
 UBDSV2 SAVING "STREAMFLOW OUT  " ON UNIT  50 AT TIME STEP  1, STRESS PERIOD   2



 STREAM LISTING     PERIOD      2   STEP        1

 LAYER ROW COL. STREAM  RCH.  FLOW INTO     FLOW TO   FLOW OUT OF   OVRLND.     DIRECT     STREAM       STREAM     STREAM     STREAM   STREAMBED  STREAMBED
                SEG.NO.  NO.  STRM. RCH.    AQUIFER    STRM. RCH.    RUNOFF     PRECIP       ET          HEAD       DEPTH      WIDTH   CONDCTNC.   GRADIENT

   1   13    1     1     1    1.0000E+05 -3.2841E+03   1.0328E+05  0.000E+00  0.000E+00  0.000E+00  4.84074E+01  1.461E-01  2.000E+01  2.000E+04 -1.642E-01
   1   13    2     1     2    1.0328E+05 -5.7360E+03   1.0902E+05  0.000E+00  0.000E+00  0.000E+00  4.79340E+01  1.499E-01  2.000E+01  2.000E+04 -2.868E-01
   1   14    3     1     3    1.0902E+05 -3.8357E+03   1.1286E+05  0.000E+00  0.000E+00  0.000E+00  4.74608E+01  1.539E-01  2.000E+01  2.000E+04 -1.918E-01
   1   15    4     1     4    1.1286E+05 -2.9265E+03   1.1578E+05  0.000E+00  0.000E+00  0.000E+00  4.69863E+01  1.567E-01  2.000E+01  2.000E+04 -1.463E-01
   1   16    5     1     5    1.1578E+05 -2.9105E+03   1.1869E+05  0.000E+00  0.000E+00  0.000E+00  4.65114E+01  1.591E-01  2.000E+01  2.000E+04 -1.455E-01
   1   16    6     1     6    1.1869E+05 -3.4381E+03   1.2213E+05  0.000E+00  0.000E+00  0.000E+00  4.60367E+01  1.617E-01  2.000E+01  2.000E+04 -1.719E-01
   1   16    7     1     7    1.2213E+05 -3.7763E+03   1.2591E+05  0.000E+00  0.000E+00  0.000E+00  4.55623E+01  1.646E-01  2.000E+01  2.000E+04 -1.888E-01
   1   16    8     1     8    1.2591E+05 -3.9306E+03   1.2984E+05  0.000E+00  0.000E+00  0.000E+00  4.50881E+01  1.676E-01  2.000E+01  2.000E+04 -1.965E-01
   1   16    9     1     9    1.2984E+05 -3.9812E+03   1.3382E+05  0.000E+00  0.000E+00  0.000E+00  4.46139E+01  1.707E-01  2.000E+01  2.000E+04 -1.991E-01
   1   16   10     1    10    1.3382E+05 -3.9663E+03   1.3779E+05  0.000E+00  0.000E+00  0.000E+00  4.41397E+01  1.738E-01  2.000E+01  2.000E+04 -1.983E-01
   1   16   11     1    11    1.3779E+05 -3.9301E+03   1.4172E+05  0.000E+00  0.000E+00  0.000E+00  4.36655E+01  1.768E-01  2.000E+01  2.000E+04 -1.965E-01
   1   16   12     1    12    1.4172E+05 -5.2036E+03   1.4692E+05  0.000E+00  0.000E+00  0.000E+00  4.31916E+01  1.803E-01  2.000E+01  2.000E+04 -2.602E-01
   1   15   13     1    13    1.4692E+05 -5.2217E+03   1.5214E+05  0.000E+00  0.000E+00  0.000E+00  4.27182E+01  1.841E-01  2.000E+01  2.000E+04 -2.611E-01
   1   14   14     1    14    1.5214E+05 -5.3979E+03   1.5754E+05  0.000E+00  0.000E+00  0.000E+00  4.22449E+01  1.880E-01  2.000E+01  2.000E+04 -2.699E-01
   1   13   15     1    15    1.5754E+05 -5.6970E+03   1.6324E+05  0.000E+00  0.000E+00  0.000E+00  4.17716E+01  1.921E-01  2.000E+01  2.000E+04 -2.849E-01
   1   12   16     1    16    1.6324E+05 -6.8597E+03   1.7010E+05  0.000E+00  0.000E+00  0.000E+00  4.12988E+01  1.965E-01  2.000E+01  2.000E+04 -3.430E-01
   1   12   17     1    17    1.7010E+05 -4.5679E+03   1.7466E+05  0.000E+00  0.000E+00  0.000E+00  4.08255E+01  2.005E-01  2.000E+01  2.000E+04 -2.284E-01
   1   12   18     1    18    1.7466E+05 -4.3982E+03   1.7906E+05  0.000E+00  0.000E+00  0.000E+00  4.03514E+01  2.037E-01  2.000E+01  2.000E+04 -2.199E-01
   1   12   19     1    19    1.7906E+05 -5.6507E+03   1.8471E+05  0.000E+00  0.000E+00  0.000E+00  3.98776E+01  2.071E-01  2.000E+01  2.000E+04 -2.825E-01
   1   13   20     1    20    1.8471E+05 -4.0387E+03   1.8875E+05  0.000E+00  0.000E+00  0.000E+00  3.94036E+01  2.104E-01  2.000E+01  2.000E+04 -2.019E-01
   1   14   21     1    21    1.8875E+05 -3.2059E+03   1.9196E+05  0.000E+00  0.000E+00  0.000E+00  3.89288E+01  2.128E-01  2.000E+01  2.000E+04 -1.603E-01
   1   14   22     1    22    1.9196E+05  4.8697E+03   1.8709E+05  0.000E+00  0.000E+00  0.000E+00  3.84509E+01  2.123E-01  2.000E+01  2.000E+04  2.435E-01
   1    9   30     2     1    5.0000E+04 -3.4583E+03   5.3458E+04  0.000E+00  0.000E+00  0.000E+00  4.02433E+01  1.183E-01  2.000E+01  2.000E+04 -1.729E-01
   1    9   29     2     2    5.3458E+04 -3.7824E+03   5.7241E+04  0.000E+00  0.000E+00  0.000E+00  3.99982E+01  1.232E-01  2.000E+01  2.000E+04 -1.891E-01
   1    9   28     2     3    5.7241E+04 -4.1582E+03   6.1399E+04  0.000E+00  0.000E+00  0.000E+00  3.97534E+01  1.284E-01  2.000E+01  2.000E+04 -2.079E-01
   1    9   27     2     4    6.1399E+04 -7.1649E+03   6.8564E+04  0.000E+00  0.000E+00  0.000E+00  3.95106E+01  1.356E-01  2.000E+01  2.000E+04 -3.582E-01
   1   10   26     2     5    6.8564E+04 -4.8356E+03   7.3399E+04  0.000E+00  0.000E+00  0.000E+00  3.92680E+01  1.430E-01  2.000E+01  2.000E+04 -2.418E-01
   1   11   25     2     6    7.3399E+04 -3.7400E+03   7.7139E+04  0.000E+00  0.000E+00  0.000E+00  3.90231E+01  1.481E-01  2.000E+01  2.000E+04 -1.870E-01
   1   12   24     2     7    7.7139E+04 -2.7500E+03   7.9889E+04  0.000E+00  0.000E+00  0.000E+00  3.87769E+01  1.519E-01  2.000E+01  2.000E+04 -1.375E-01
   1   13   23     2     8    7.9889E+04 -1.7108E+03   8.1600E+04  0.000E+00  0.000E+00  0.000E+00  3.85295E+01  1.545E-01  2.000E+01  2.000E+04 -8.554E-02
   1   14   22     2     9    8.1600E+04  1.4437E+03   8.0157E+04  0.000E+00  0.000E+00  0.000E+00  3.82796E+01  1.546E-01  2.000E+01  2.000E+04  7.218E-02
   1   14   22     3     1    2.6724E+05 -8.6658E+03   2.7591E+05  0.000E+00  0.000E+00  0.000E+00  3.77741E+01  2.186E-01  2.000E+01  2.000E+04 -4.333E-01
   1   15   23     3     2    2.7591E+05 -3.7118E+03   2.7962E+05  0.000E+00  0.000E+00  0.000E+00  3.68882E+01  2.216E-01  2.000E+01  2.000E+04 -1.856E-01
   1   15   24     3     3    2.7962E+05 -2.5327E+03   2.8215E+05  0.000E+00  0.000E+00  0.000E+00  3.60008E+01  2.231E-01  2.000E+01  2.000E+04 -1.266E-01
   1   15   25     3     4    2.8215E+05 -2.4210E+03   2.8457E+05  0.000E+00  0.000E+00  0.000E+00  3.51131E+01  2.242E-01  2.000E+01  2.000E+04 -1.210E-01
   1   15   26     3     5    2.8457E+05 -3.0016E+03   2.8758E+05  0.000E+00  0.000E+00  0.000E+00  3.42255E+01  2.255E-01  2.000E+01  2.000E+04 -1.501E-01
   1   16   27     3     6    2.8758E+05 -4.1136E+03   2.9169E+05  0.000E+00  0.000E+00  0.000E+00  3.33383E+01  2.272E-01  2.000E+01  2.000E+04 -2.057E-01
   1   17   28     3     7    2.9169E+05 -4.9287E+03   2.9662E+05  0.000E+00  0.000E+00  0.000E+00  3.24515E+01  2.293E-01  2.000E+01  2.000E+04 -2.464E-01
   1   18   29     3     8    2.9662E+05 -6.5017E+03   3.0312E+05  0.000E+00  0.000E+00  0.000E+00  3.15653E+01  2.320E-01  2.000E+01  2.000E+04 -3.251E-01
   1   18   30     3     9    3.0312E+05 -5.3888E+03   3.0851E+05  0.000E+00  0.000E+00  0.000E+00  3.06792E+01  2.347E-01  2.000E+01  2.000E+04 -2.694E-01



1
              HEAD IN LAYER   1 AT END OF TIME STEP   1 IN STRESS PERIOD    2
  ---------------------------------------------------------------------------

          1      2      3      4      5      6      7      8      9     10
         11     12     13     14     15     16     17     18     19     20
         21     22     23     24     25     26     27     28     29     30
 .........................................................................
   1  ****** ****** ****** ****** ****** ****** ****** ****** ****** ******
      ****** ****** ****** ****** ****** ****** ****** ****** ****** ******
      ****** ****** ****** ****** ****** ****** ****** ****** ****** ******
   2  ****** ****** ****** ****** ****** ****** ****** ****** ****** ******
      ****** ****** ****** ****** ****** ****** ****** ****** ****** ******
      ****** ****** ****** ****** ****** ****** ****** ****** ****** ******
   3  ****** ****** ****** ****** ****** ****** ****** ****** ****** ******
      ****** ****** ****** ****** ****** ****** ****** ****** ****** ******
      ****** ****** ****** ****** ****** ****** ****** ****** ****** ******
   4  ****** ****** ****** ****** ****** ****** ****** ****** ****** ******
      ****** ****** ****** ****** ****** ****** ****** ****** ****** ******
      ****** ****** ****** ****** ****** ****** ****** ****** ****** ******
   5  ****** ****** ****** ****** ****** ****** ****** ****** ****** ******
      ****** ****** ****** ****** ****** ****** ****** ****** ****** ******
      ****** ****** ****** ****** ****** ****** ****** ****** ****** ******
   6  ****** ****** ****** ****** ****** ****** ****** ****** ****** ******
      ****** ****** ****** ****** ****** ****** ****** ****** ****** ******
      ****** ****** ****** ****** ****** ****** ****** ****** ****** ******
   7  ****** ****** ****** ****** ****** ****** ****** ****** ****** ******
      ****** ****** ****** ****** ****** ****** ****** ****** ****** ******
      ****** ****** ****** ****** ****** ****** ****** ****** ****** ******
   8  ****** ****** ****** ****** ****** ****** ****** ****** ****** ******
      ****** ****** ****** ****** ****** ****** ****** ****** ****** ******
      ****** ****** ****** ****** ****** ****** ****** ****** ****** ******
   9  ****** ****** ****** ****** ****** ****** ****** ****** ****** ******
      ****** ****** ****** ****** ****** ****** ****** ****** ****** ******
      ****** ****** ****** ****** ****** ****** ****** ****** ****** ******
  10  ****** ****** ****** ****** ****** ****** ****** ****** ****** ******
      ****** ****** ****** ****** ****** ****** ****** ****** ****** ******
      ****** ****** ****** ****** ****** ****** ****** ****** ****** ******
  11  ****** ****** ****** ****** ****** ****** ****** ****** ****** ******
      ****** ****** ****** ****** ****** ****** ****** ****** ****** ******
      ****** ****** ****** ****** ****** ****** ****** ****** ****** ******
  12  ****** ****** ****** ****** ****** ****** ****** ****** ****** ******
      ****** ****** ****** ****** ****** ****** ****** ****** ****** ******
      ****** ****** ****** ****** ****** ****** ****** ****** ****** ******
  13  ****** ****** ****** ****** ****** ****** ****** ****** ****** ******
      ****** ****** ****** ****** ****** ****** ****** ****** ****** ******
      ****** ****** ****** ****** ****** ****** ****** ****** ****** ******
  14  ****** ****** ****** ****** ****** ****** ****** ****** ****** ******
      ****** ****** ****** ****** ****** ****** ****** ****** ****** ******
      ****** ****** ****** ****** ****** ****** ****** ****** ****** ******
  15  ****** ****** ****** ****** ****** ****** ****** ****** ****** ******
      ****** ****** ****** ****** ****** ****** ****** ****** ****** ******
      ****** ****** ****** ****** ****** ****** ****** ****** ****** ******
  16  ****** ****** ****** ****** ****** ****** ****** ****** ****** ******
      ****** ****** ****** ****** ****** ****** ****** ****** ****** ******
      ****** ****** ****** ****** ****** ****** ****** ****** ****** ******
  17  ****** ****** ****** ****** ****** ****** ****** ****** ****** ******
      ****** ****** ****** ****** ****** ****** ****** ****** ****** ******
      ****** ****** ****** ****** ****** ****** ****** ****** ****** ******
  18  ****** ****** ****** ****** ****** ****** ****** ****** ****** ******
      ****** ****** ****** ****** ****** ****** ****** ****** ****** ******
      ****** ****** ****** ****** ****** ****** ****** ****** ****** ******
  19  ****** ****** ****** ****** ****** ****** ****** ****** ****** ******
      ****** ****** ****** ****** ****** ****** ****** ****** ****** ******
      ****** ****** ****** ****** ****** ****** ****** ****** ****** ******
  20  ****** ****** ****** ****** ****** ****** ****** ****** ****** ******
      ****** ****** ****** ****** ****** ****** ****** ****** ****** ******
      ****** ****** ****** ****** ****** ****** ****** ****** ****** ******
  21  ****** ****** ****** ****** ****** ****** ****** ****** ****** ******
      ****** ****** ****** ****** ****** ****** ****** ****** ****** ******
      ****** ****** ****** ****** ****** ****** ****** ****** ****** ******
  22  ****** ****** ****** ****** ****** ****** ****** ****** ****** ******
      ****** ****** ****** ****** ****** ****** ****** ****** ****** ******
      ****** ****** ****** ****** ****** ****** ****** ****** ****** ******
  23  ****** ****** ****** ****** ****** ****** ****** ****** ****** ******
      ****** ****** ****** ****** ****** ****** ****** ****** ****** ******
      ****** ****** ****** ****** ****** ****** ****** ****** ****** ******
  24  ****** ****** ****** ****** ****** ****** ****** ****** ****** ******
      ****** ****** ****** ****** ****** ****** ****** ****** ****** ******
      ****** ****** ****** ****** ****** ****** ****** ****** ****** ******
  25  ****** ****** ****** ****** ****** ****** ****** ****** ****** ******
      ****** ****** ****** ****** ****** ****** ****** ****** ****** ******
      ****** ****** ****** ****** ****** ****** ****** ****** ****** ******

 HEAD WILL BE SAVED ON UNIT   51 AT END OF TIME STEP    1, STRESS PERIOD    2
1
  VOLUMETRIC BUDGET FOR ENTIRE MODEL AT END OF TIME STEP    1, STRESS PERIOD   2
  ------------------------------------------------------------------------------

     CUMULATIVE VOLUMES      L**3       RATES FOR THIS TIME STEP      L**3/T
     ------------------                 ------------------------

           IN:                                      IN:
           ---                                      ---
             STORAGE =    18648084.1436               STORAGE =       28833.6945
       CONSTANT HEAD =    18511268.5658         CONSTANT HEAD =      107620.1238
               WELLS =           0.0000                 WELLS =           0.0000
            RECHARGE =     6292800.0000              RECHARGE =       55200.0000
      STREAM LEAKAGE =     1034689.2223        STREAM LEAKAGE =        6313.3828

            TOTAL IN =    44486841.9316              TOTAL IN =      197967.2011

          OUT:                                     OUT:
          ----                                     ----
             STORAGE =           0.0000               STORAGE =           0.0000
       CONSTANT HEAD =           0.0000         CONSTANT HEAD =           0.0000
               WELLS =     6065468.9437                 WELLS =       33144.6390
            RECHARGE =           0.0000              RECHARGE =           0.0000
      STREAM LEAKAGE =    38421373.5917        STREAM LEAKAGE =      164822.5672

           TOTAL OUT =    44486842.5354             TOTAL OUT =      197967.2062

            IN - OUT =          -0.6038              IN - OUT =      -5.1151E-03

 PERCENT DISCREPANCY =          -0.00     PERCENT DISCREPANCY =          -0.00






         TIME SUMMARY AT END OF TIME STEP    1 IN STRESS PERIOD    2
                    SECONDS     MINUTES      HOURS       DAYS        YEARS
                    -----------------------------------------------------------
   TIME STEP LENGTH 7.86240E+06 1.31040E+05  2184.0      91.000     0.24914    
 STRESS PERIOD TIME 7.86240E+06 1.31040E+05  2184.0      91.000     0.24914    
         TOTAL TIME 1.58112E+07 2.63520E+05  4392.0      183.00     0.50103    
1
1
                            STRESS PERIOD NO.    3, LENGTH =   91.00000    
                            -----------------------------------------------

                              NUMBER OF TIME STEPS =     1

                               MULTIPLIER FOR DELT =     1.500

                            INITIAL TIME STEP SIZE =   91.00000    

 WELL NO.  LAYER   ROW   COL   STRESS RATE         
 --------------------------------------------------
      1      1     23     10     -0.1134E+05
      2      1     17      3     -0.1036E+05
      3      1     23     22     -0.1145E+05

      3 WELLS

                 RECHARGE =   0.00000    

 REUSING STREAM SEGMENT DATA FROM LAST STRESS PERIOD
 
 SOLVING FOR HEAD 


     7 CALLS TO PCG ROUTINE FOR TIME STEP   1 IN STRESS PERIOD    3
    27 TOTAL ITERATIONS

 OUTPUT CONTROL FOR STRESS PERIOD    3   TIME STEP    1
    SAVE BUDGET
    SAVE HEAD FOR ALL LAYERS
    PRINT HEAD FOR ALL LAYERS
 UBDSV2 SAVING "STREAMFLOW OUT  " ON UNIT  50 AT TIME STEP  1, STRESS PERIOD   3



 STREAM LISTING     PERIOD      3   STEP        1

 LAYER ROW COL. STREAM  RCH.  FLOW INTO     FLOW TO   FLOW OUT OF   OVRLND.     DIRECT     STREAM       STREAM     STREAM     STREAM   STREAMBED  STREAMBED
                SEG.NO.  NO.  STRM. RCH.    AQUIFER    STRM. RCH.    RUNOFF     PRECIP       ET          HEAD       DEPTH      WIDTH   CONDCTNC.   GRADIENT

   1   13    1     1     1    1.0000E+05 -2.3475E+03   1.0235E+05  0.000E+00  0.000E+00  0.000E+00  4.84070E+01  1.457E-01  2.000E+01  2.000E+04 -1.174E-01
   1   13    2     1     2    1.0235E+05 -4.4699E+03   1.0682E+05  0.000E+00  0.000E+00  0.000E+00  4.79327E+01  1.486E-01  2.000E+01  2.000E+04 -2.235E-01
   1   14    3     1     3    1.0682E+05 -2.5498E+03   1.0937E+05  0.000E+00  0.000E+00  0.000E+00  4.74584E+01  1.516E-01  2.000E+01  2.000E+04 -1.275E-01
   1   15    4     1     4    1.0937E+05 -1.6481E+03   1.1102E+05  0.000E+00  0.000E+00  0.000E+00  4.69829E+01  1.533E-01  2.000E+01  2.000E+04 -8.241E-02
   1   16    5     1     5    1.1102E+05 -1.7296E+03   1.1274E+05  0.000E+00  0.000E+00  0.000E+00  4.65070E+01  1.547E-01  2.000E+01  2.000E+04 -8.648E-02
   1   16    6     1     6    1.1274E+05 -2.5308E+03   1.1528E+05  0.000E+00  0.000E+00  0.000E+00  4.60315E+01  1.565E-01  2.000E+01  2.000E+04 -1.265E-01
   1   16    7     1     7    1.1528E+05 -2.8550E+03   1.1813E+05  0.000E+00  0.000E+00  0.000E+00  4.55564E+01  1.587E-01  2.000E+01  2.000E+04 -1.428E-01
   1   16    8     1     8    1.1813E+05 -3.0004E+03   1.2113E+05  0.000E+00  0.000E+00  0.000E+00  4.50815E+01  1.611E-01  2.000E+01  2.000E+04 -1.500E-01
   1   16    9     1     9    1.2113E+05 -3.0520E+03   1.2418E+05  0.000E+00  0.000E+00  0.000E+00  4.46067E+01  1.635E-01  2.000E+01  2.000E+04 -1.526E-01
   1   16   10     1    10    1.2418E+05 -3.0477E+03   1.2723E+05  0.000E+00  0.000E+00  0.000E+00  4.41318E+01  1.659E-01  2.000E+01  2.000E+04 -1.524E-01
   1   16   11     1    11    1.2723E+05 -3.0268E+03   1.3026E+05  0.000E+00  0.000E+00  0.000E+00  4.36570E+01  1.683E-01  2.000E+01  2.000E+04 -1.513E-01
   1   16   12     1    12    1.3026E+05 -4.0197E+03   1.3428E+05  0.000E+00  0.000E+00  0.000E+00  4.31824E+01  1.711E-01  2.000E+01  2.000E+04 -2.010E-01
   1   15   13     1    13    1.3428E+05 -3.9216E+03   1.3820E+05  0.000E+00  0.000E+00  0.000E+00  4.27082E+01  1.741E-01  2.000E+01  2.000E+04 -1.961E-01
   1   14   14     1    14    1.3820E+05 -4.0653E+03   1.4226E+05  0.000E+00  0.000E+00  0.000E+00  4.22340E+01  1.772E-01  2.000E+01  2.000E+04 -2.033E-01
   1   13   15     1    15    1.4226E+05 -4.3936E+03   1.4666E+05  0.000E+00  0.000E+00  0.000E+00  4.17599E+01  1.804E-01  2.000E+01  2.000E+04 -2.197E-01
   1   12   16     1    16    1.4666E+05 -5.6116E+03   1.5227E+05  0.000E+00  0.000E+00  0.000E+00  4.12864E+01  1.841E-01  2.000E+01  2.000E+04 -2.806E-01
   1   12   17     1    17    1.5227E+05 -3.6659E+03   1.5594E+05  0.000E+00  0.000E+00  0.000E+00  4.08125E+01  1.875E-01  2.000E+01  2.000E+04 -1.833E-01
   1   12   18     1    18    1.5594E+05 -3.5170E+03   1.5945E+05  0.000E+00  0.000E+00  0.000E+00  4.03378E+01  1.901E-01  2.000E+01  2.000E+04 -1.759E-01
   1   12   19     1    19    1.5945E+05 -4.5779E+03   1.6403E+05  0.000E+00  0.000E+00  0.000E+00  3.98635E+01  1.930E-01  2.000E+01  2.000E+04 -2.289E-01
   1   13   20     1    20    1.6403E+05 -3.0079E+03   1.6704E+05  0.000E+00  0.000E+00  0.000E+00  3.93889E+01  1.957E-01  2.000E+01  2.000E+04 -1.504E-01
   1   14   21     1    21    1.6704E+05 -2.2313E+03   1.6927E+05  0.000E+00  0.000E+00  0.000E+00  3.89135E+01  1.976E-01  2.000E+01  2.000E+04 -1.116E-01
   1   14   22     1    22    1.6927E+05  5.0270E+03   1.6424E+05  0.000E+00  0.000E+00  0.000E+00  3.84352E+01  1.966E-01  2.000E+01  2.000E+04  2.514E-01
   1    9   30     2     1    5.0000E+04 -2.6915E+03   5.2692E+04  0.000E+00  0.000E+00  0.000E+00  4.02427E+01  1.177E-01  2.000E+01  2.000E+04 -1.346E-01
   1    9   29     2     2    5.2692E+04 -3.0257E+03   5.5717E+04  0.000E+00  0.000E+00  0.000E+00  3.99966E+01  1.216E-01  2.000E+01  2.000E+04 -1.513E-01
   1    9   28     2     3    5.5717E+04 -3.4126E+03   5.9130E+04  0.000E+00  0.000E+00  0.000E+00  3.97509E+01  1.259E-01  2.000E+01  2.000E+04 -1.706E-01
   1    9   27     2     4    5.9130E+04 -6.1578E+03   6.5288E+04  0.000E+00  0.000E+00  0.000E+00  3.95071E+01  1.321E-01  2.000E+01  2.000E+04 -3.079E-01
   1   10   26     2     5    6.5288E+04 -3.7704E+03   6.9058E+04  0.000E+00  0.000E+00  0.000E+00  3.92633E+01  1.383E-01  2.000E+01  2.000E+04 -1.885E-01
   1   11   25     2     6    6.9058E+04 -2.7246E+03   7.1783E+04  0.000E+00  0.000E+00  0.000E+00  3.90173E+01  1.423E-01  2.000E+01  2.000E+04 -1.362E-01
   1   12   24     2     7    7.1783E+04 -1.8787E+03   7.3661E+04  0.000E+00  0.000E+00  0.000E+00  3.87701E+01  1.451E-01  2.000E+01  2.000E+04 -9.394E-02
   1   13   23     2     8    7.3661E+04 -1.0672E+03   7.4728E+04  0.000E+00  0.000E+00  0.000E+00  3.85218E+01  1.468E-01  2.000E+01  2.000E+04 -5.336E-02
   1   14   22     2     9    7.4728E+04  1.7507E+03   7.2978E+04  0.000E+00  0.000E+00  0.000E+00  3.82714E+01  1.464E-01  2.000E+01  2.000E+04  8.754E-02
   1   14   22     3     1    2.3722E+05 -8.4923E+03   2.4571E+05  0.000E+00  0.000E+00  0.000E+00  3.77593E+01  2.037E-01  2.000E+01  2.000E+04 -4.246E-01
   1   15   23     3     2    2.4571E+05 -2.8118E+03   2.4852E+05  0.000E+00  0.000E+00  0.000E+00  3.68732E+01  2.066E-01  2.000E+01  2.000E+04 -1.406E-01
   1   15   24     3     3    2.4852E+05 -1.9216E+03   2.5045E+05  0.000E+00  0.000E+00  0.000E+00  3.59855E+01  2.077E-01  2.000E+01  2.000E+04 -9.608E-02
   1   15   25     3     4    2.5045E+05 -1.8127E+03   2.5226E+05  0.000E+00  0.000E+00  0.000E+00  3.50976E+01  2.087E-01  2.000E+01  2.000E+04 -9.063E-02
   1   15   26     3     5    2.5226E+05 -2.1774E+03   2.5444E+05  0.000E+00  0.000E+00  0.000E+00  3.42097E+01  2.097E-01  2.000E+01  2.000E+04 -1.089E-01
   1   16   27     3     6    2.5444E+05 -3.0617E+03   2.5750E+05  0.000E+00  0.000E+00  0.000E+00  3.33221E+01  2.110E-01  2.000E+01  2.000E+04 -1.531E-01
   1   17   28     3     7    2.5750E+05 -3.8668E+03   2.6136E+05  0.000E+00  0.000E+00  0.000E+00  3.24349E+01  2.127E-01  2.000E+01  2.000E+04 -1.933E-01
   1   18   29     3     8    2.6136E+05 -5.5370E+03   2.6690E+05  0.000E+00  0.000E+00  0.000E+00  3.15483E+01  2.150E-01  2.000E+01  2.000E+04 -2.768E-01
   1   18   30     3     9    2.6690E+05 -4.6715E+03   2.7157E+05  0.000E+00  0.000E+00  0.000E+00  3.06619E+01  2.175E-01  2.000E+01  2.000E+04 -2.336E-01



1
              HEAD IN LAYER   1 AT END OF TIME STEP   1 IN STRESS PERIOD    3
  ---------------------------------------------------------------------------

          1      2      3      4      5      6      7      8      9     10
         11     12     13     14     15     16     17     18     19     20
         21     22     23     24     25     26     27     28     29     30
 .........................................................................
   1  ****** ****** ****** ****** ****** ****** ****** ****** ****** ******
      ****** ****** ****** ****** ****** ****** ****** ****** ****** ******
      ****** ****** ****** ****** ****** ****** ****** ****** ****** ******
   2  ****** ****** ****** ****** ****** ****** ****** ****** ****** ******
      ****** ****** ****** ****** ****** ****** ****** ****** ****** ******
      ****** ****** ****** ****** ****** ****** ****** ****** ****** ******
   3  ****** ****** ****** ****** ****** ****** ****** ****** ****** ******
      ****** ****** ****** ****** ****** ****** ****** ****** ****** ******
      ****** ****** ****** ****** ****** ****** ****** ****** ****** ******
   4  ****** ****** ****** ****** ****** ****** ****** ****** ****** ******
      ****** ****** ****** ****** ****** ****** ****** ****** ****** ******
      ****** ****** ****** ****** ****** ****** ****** ****** ****** ******
   5  ****** ****** ****** ****** ****** ****** ****** ****** ****** ******
      ****** ****** ****** ****** ****** ****** ****** ****** ****** ******
      ****** ****** ****** ****** ****** ****** ****** ****** ****** ******
   6  ****** ****** ****** ****** ****** ****** ****** ****** ****** ******
      ****** ****** ****** ****** ****** ****** ****** ****** ****** ******
      ****** ****** ****** ****** ****** ****** ****** ****** ****** ******
   7  ****** ****** ****** ****** ****** ****** ****** ****** ****** ******
      ****** ****** ****** ****** ****** ****** ****** ****** ****** ******
      ****** ****** ****** ****** ****** ****** ****** ****** ****** ******
   8  ****** ****** ****** ****** ****** ****** ****** ****** ****** ******
      ****** ****** ****** ****** ****** ****** ****** ****** ****** ******
      ****** ****** ****** ****** ****** ****** ****** ****** ****** ******
   9  ****** ****** ****** ****** ****** ****** ****** ****** ****** ******
      ****** ****** ****** ****** ****** ****** ****** ****** ****** ******
      ****** ****** ****** ****** ****** ****** ****** ****** ****** ******
  10  ****** ****** ****** ****** ****** ****** ****** ****** ****** ******
      ****** ****** ****** ****** ****** ****** ****** ****** ****** ******
      ****** ****** ****** ****** ****** ****** ****** ****** ****** ******
  11  ****** ****** ****** ****** ****** ****** ****** ****** ****** ******
      ****** ****** ****** ****** ****** ****** ****** ****** ****** ******
      ****** ****** ****** ****** ****** ****** ****** ****** ****** ******
  12  ****** ****** ****** ****** ****** ****** ****** ****** ****** ******
      ****** ****** ****** ****** ****** ****** ****** ****** ****** ******
      ****** ****** ****** ****** ****** ****** ****** ****** ****** ******
  13  ****** ****** ****** ****** ****** ****** ****** ****** ****** ******
      ****** ****** ****** ****** ****** ****** ****** ****** ****** ******
      ****** ****** ****** ****** ****** ****** ****** ****** ****** ******
  14  ****** ****** ****** ****** ****** ****** ****** ****** ****** ******
      ****** ****** ****** ****** ****** ****** ****** ****** ****** ******
      ****** ****** ****** ****** ****** ****** ****** ****** ****** ******
  15  ****** ****** ****** ****** ****** ****** ****** ****** ****** ******
      ****** ****** ****** ****** ****** ****** ****** ****** ****** ******
      ****** ****** ****** ****** ****** ****** ****** ****** ****** ******
  16  ****** ****** ****** ****** ****** ****** ****** ****** ****** ******
      ****** ****** ****** ****** ****** ****** ****** ****** ****** ******
      ****** ****** ****** ****** ****** ****** ****** ****** ****** ******
  17  ****** ****** ****** ****** ****** ****** ****** ****** ****** ******
      ****** ****** ****** ****** ****** ****** ****** ****** ****** ******
      ****** ****** ****** ****** ****** ****** ****** ****** ****** ******
  18  ****** ****** ****** ****** ****** ****** ****** ****** ****** ******
      ****** ****** ****** ****** ****** ****** ****** ****** ****** ******
      ****** ****** ****** ****** ****** ****** ****** ****** ****** ******
  19  ****** ****** ****** ****** ****** ****** ****** ****** ****** ******
      ****** ****** ****** ****** ****** ****** ****** ****** ****** ******
      ****** ****** ****** ****** ****** ****** ****** ****** ****** ******
  20  ****** ****** ****** ****** ****** ****** ****** ****** ****** ******
      ****** ****** ****** ****** ****** ****** ****** ****** ****** ******
      ****** ****** ****** ****** ****** ****** ****** ****** ****** ******
  21  ****** ****** ****** ****** ****** ****** ****** ****** ****** ******
      ****** ****** ****** ****** ****** ****** ****** ****** ****** ******
      ****** ****** ****** ****** ****** ****** ****** ****** ****** ******
  22  ****** ****** ****** ****** ****** ****** ****** ****** ****** ******
      ****** ****** ****** ****** ****** ****** ****** ****** ****** ******
      ****** ****** ****** ****** ****** ****** ****** ****** ****** ******
  23  ****** ****** ****** ****** ****** ****** ****** ****** ****** ******
      ****** ****** ****** ****** ****** ****** ****** ****** ****** ******
      ****** ****** ****** ****** ****** ****** ****** ****** ****** ******
  24  ****** ****** ****** ****** ****** ****** ****** ****** ****** ******
      ****** ****** ****** ****** ****** ****** ****** ****** ****** ******
      ****** ****** ****** ****** ****** ****** ****** ****** ****** ******
  25  ****** ****** ****** ****** ****** ****** ****** ****** ****** ******
      ****** ****** ****** ****** ****** ****** ****** ****** ****** ******
      ****** ****** ****** ****** ****** ****** ****** ****** ****** ******

 HEAD WILL BE SAVED ON UNIT   51 AT END OF TIME STEP    1, STRESS PERIOD    3
1
  VOLUMETRIC BUDGET FOR ENTIRE MODEL AT END OF TIME STEP    1, STRESS PERIOD   3
  ------------------------------------------------------------------------------

     CUMULATIVE VOLUMES      L**3       RATES FOR THIS TIME STEP      L**3/T
     ------------------                 ------------------------

           IN:                                      IN:
           ---                                      ---
             STORAGE =    20904787.3184               STORAGE =       24798.9360
       CONSTANT HEAD =    30333857.8456         CONSTANT HEAD =      129918.5635
               WELLS =           0.0000                 WELLS =           0.0000
            RECHARGE =     6292800.0000              RECHARGE =           0.0000
      STREAM LEAKAGE =     1651463.0461        STREAM LEAKAGE =        6777.7343

            TOTAL IN =    59182908.2100              TOTAL IN =      161495.2338

          OUT:                                     OUT:
          ----                                     ----
             STORAGE =           0.0000               STORAGE =           0.0000
       CONSTANT HEAD =           0.0000         CONSTANT HEAD =           0.0000
               WELLS =     9081631.0960                 WELLS =       33144.6390
            RECHARGE =           0.0000              RECHARGE =           0.0000
      STREAM LEAKAGE =    50101277.9562        STREAM LEAKAGE =      128350.5974

           TOTAL OUT =    59182909.0522             TOTAL OUT =      161495.2364

            IN - OUT =          -0.8422              IN - OUT =      -2.6194E-03

 PERCENT DISCREPANCY =          -0.00     PERCENT DISCREPANCY =          -0.00






         TIME SUMMARY AT END OF TIME STEP    1 IN STRESS PERIOD    3
                    SECONDS     MINUTES      HOURS       DAYS        YEARS
                    -----------------------------------------------------------
   TIME STEP LENGTH 7.86240E+06 1.31040E+05  2184.0      91.000     0.24914    
 STRESS PERIOD TIME 7.86240E+06 1.31040E+05  2184.0      91.000     0.24914    
         TOTAL TIME 2.36736E+07 3.94560E+05  6576.0      274.00     0.75017    
1
1
                            STRESS PERIOD NO.    4, LENGTH =   91.00000    
                            -----------------------------------------------

                              NUMBER OF TIME STEPS =     1

                               MULTIPLIER FOR DELT =     1.500

                            INITIAL TIME STEP SIZE =   91.00000    

 WELL NO.  LAYER   ROW   COL   STRESS RATE         
 --------------------------------------------------
      1      1     23     10     -0.1134E+05
      2      1     17      3     -0.1036E+05
      3      1     23     22     -0.1145E+05

      3 WELLS

                 RECHARGE =  1.000000E-03

 REUSING STREAM SEGMENT DATA FROM LAST STRESS PERIOD
 
 SOLVING FOR HEAD 


     6 CALLS TO PCG ROUTINE FOR TIME STEP   1 IN STRESS PERIOD    4
    21 TOTAL ITERATIONS

 OUTPUT CONTROL FOR STRESS PERIOD    4   TIME STEP    1
    SAVE BUDGET
    SAVE HEAD FOR ALL LAYERS
    PRINT HEAD FOR ALL LAYERS
 UBDSV2 SAVING "STREAMFLOW OUT  " ON UNIT  50 AT TIME STEP  1, STRESS PERIOD   4



 STREAM LISTING     PERIOD      4   STEP        1

 LAYER ROW COL. STREAM  RCH.  FLOW INTO     FLOW TO   FLOW OUT OF   OVRLND.     DIRECT     STREAM       STREAM     STREAM     STREAM   STREAMBED  STREAMBED
                SEG.NO.  NO.  STRM. RCH.    AQUIFER    STRM. RCH.    RUNOFF     PRECIP       ET          HEAD       DEPTH      WIDTH   CONDCTNC.   GRADIENT

   1   13    1     1     1    1.0000E+05 -2.3656E+03   1.0237E+05  0.000E+00  0.000E+00  0.000E+00  4.84070E+01  1.457E-01  2.000E+01  2.000E+04 -1.183E-01
   1   13    2     1     2    1.0237E+05 -4.4600E+03   1.0683E+05  0.000E+00  0.000E+00  0.000E+00  4.79327E+01  1.486E-01  2.000E+01  2.000E+04 -2.230E-01
   1   14    3     1     3    1.0683E+05 -2.5885E+03   1.0941E+05  0.000E+00  0.000E+00  0.000E+00  4.74584E+01  1.516E-01  2.000E+01  2.000E+04 -1.294E-01
   1   15    4     1     4    1.0941E+05 -1.7004E+03   1.1111E+05  0.000E+00  0.000E+00  0.000E+00  4.69829E+01  1.534E-01  2.000E+01  2.000E+04 -8.502E-02
   1   16    5     1     5    1.1111E+05 -1.7851E+03   1.1290E+05  0.000E+00  0.000E+00  0.000E+00  4.65071E+01  1.548E-01  2.000E+01  2.000E+04 -8.925E-02
   1   16    6     1     6    1.1290E+05 -2.5764E+03   1.1548E+05  0.000E+00  0.000E+00  0.000E+00  4.60316E+01  1.566E-01  2.000E+01  2.000E+04 -1.288E-01
   1   16    7     1     7    1.1548E+05 -2.8986E+03   1.1837E+05  0.000E+00  0.000E+00  0.000E+00  4.55566E+01  1.589E-01  2.000E+01  2.000E+04 -1.449E-01
   1   16    8     1     8    1.1837E+05 -3.0429E+03   1.2142E+05  0.000E+00  0.000E+00  0.000E+00  4.50817E+01  1.613E-01  2.000E+01  2.000E+04 -1.521E-01
   1   16    9     1     9    1.2142E+05 -3.0946E+03   1.2451E+05  0.000E+00  0.000E+00  0.000E+00  4.46069E+01  1.638E-01  2.000E+01  2.000E+04 -1.547E-01
   1   16   10     1    10    1.2451E+05 -3.0915E+03   1.2760E+05  0.000E+00  0.000E+00  0.000E+00  4.41321E+01  1.662E-01  2.000E+01  2.000E+04 -1.546E-01
   1   16   11     1    11    1.2760E+05 -3.0721E+03   1.3068E+05  0.000E+00  0.000E+00  0.000E+00  4.36573E+01  1.686E-01  2.000E+01  2.000E+04 -1.536E-01
   1   16   12     1    12    1.3068E+05 -4.0688E+03   1.3474E+05  0.000E+00  0.000E+00  0.000E+00  4.31828E+01  1.714E-01  2.000E+01  2.000E+04 -2.034E-01
   1   15   13     1    13    1.3474E+05 -3.9689E+03   1.3871E+05  0.000E+00  0.000E+00  0.000E+00  4.27086E+01  1.745E-01  2.000E+01  2.000E+04 -1.984E-01
   1   14   14     1    14    1.3871E+05 -4.1062E+03   1.4282E+05  0.000E+00  0.000E+00  0.000E+00  4.22344E+01  1.776E-01  2.000E+01  2.000E+04 -2.053E-01
   1   13   15     1    15    1.4282E+05 -4.4302E+03   1.4725E+05  0.000E+00  0.000E+00  0.000E+00  4.17603E+01  1.808E-01  2.000E+01  2.000E+04 -2.215E-01
   1   12   16     1    16    1.4725E+05 -5.6209E+03   1.5287E+05  0.000E+00  0.000E+00  0.000E+00  4.12868E+01  1.845E-01  2.000E+01  2.000E+04 -2.810E-01
   1   12   17     1    17    1.5287E+05 -3.7046E+03   1.5658E+05  0.000E+00  0.000E+00  0.000E+00  4.08130E+01  1.880E-01  2.000E+01  2.000E+04 -1.852E-01
   1   12   18     1    18    1.5658E+05 -3.5639E+03   1.6014E+05  0.000E+00  0.000E+00  0.000E+00  4.03383E+01  1.906E-01  2.000E+01  2.000E+04 -1.782E-01
   1   12   19     1    19    1.6014E+05 -4.6403E+03   1.6478E+05  0.000E+00  0.000E+00  0.000E+00  3.98640E+01  1.935E-01  2.000E+01  2.000E+04 -2.320E-01
   1   13   20     1    20    1.6478E+05 -3.0999E+03   1.6788E+05  0.000E+00  0.000E+00  0.000E+00  3.93895E+01  1.963E-01  2.000E+01  2.000E+04 -1.550E-01
   1   14   21     1    21    1.6788E+05 -2.3011E+03   1.7018E+05  0.000E+00  0.000E+00  0.000E+00  3.89141E+01  1.982E-01  2.000E+01  2.000E+04 -1.151E-01
   1   14   22     1    22    1.7018E+05  4.9934E+03   1.6519E+05  0.000E+00  0.000E+00  0.000E+00  3.84359E+01  1.973E-01  2.000E+01  2.000E+04  2.497E-01
   1    9   30     2     1    5.0000E+04 -2.8039E+03   5.2804E+04  0.000E+00  0.000E+00  0.000E+00  4.02428E+01  1.178E-01  2.000E+01  2.000E+04 -1.402E-01
   1    9   29     2     2    5.2804E+04 -3.1364E+03   5.5940E+04  0.000E+00  0.000E+00  0.000E+00  3.99968E+01  1.218E-01  2.000E+01  2.000E+04 -1.568E-01
   1    9   28     2     3    5.5940E+04 -3.5192E+03   5.9460E+04  0.000E+00  0.000E+00  0.000E+00  3.97513E+01  1.263E-01  2.000E+01  2.000E+04 -1.760E-01
   1    9   27     2     4    5.9460E+04 -6.2686E+03   6.5728E+04  0.000E+00  0.000E+00  0.000E+00  3.95076E+01  1.326E-01  2.000E+01  2.000E+04 -3.134E-01
   1   10   26     2     5    6.5728E+04 -3.8995E+03   6.9628E+04  0.000E+00  0.000E+00  0.000E+00  3.92639E+01  1.389E-01  2.000E+01  2.000E+04 -1.950E-01
   1   11   25     2     6    6.9628E+04 -2.8546E+03   7.2482E+04  0.000E+00  0.000E+00  0.000E+00  3.90181E+01  1.431E-01  2.000E+01  2.000E+04 -1.427E-01
   1   12   24     2     7    7.2482E+04 -2.0059E+03   7.4488E+04  0.000E+00  0.000E+00  0.000E+00  3.87710E+01  1.460E-01  2.000E+01  2.000E+04 -1.003E-01
   1   13   23     2     8    7.4488E+04 -1.1817E+03   7.5670E+04  0.000E+00  0.000E+00  0.000E+00  3.85229E+01  1.479E-01  2.000E+01  2.000E+04 -5.909E-02
   1   14   22     2     9    7.5670E+04  1.7266E+03   7.3943E+04  0.000E+00  0.000E+00  0.000E+00  3.82725E+01  1.475E-01  2.000E+01  2.000E+04  8.633E-02
   1   14   22     3     1    2.3913E+05 -8.5196E+03   2.4765E+05  0.000E+00  0.000E+00  0.000E+00  3.77602E+01  2.047E-01  2.000E+01  2.000E+04 -4.260E-01
   1   15   23     3     2    2.4765E+05 -2.8805E+03   2.5053E+05  0.000E+00  0.000E+00  0.000E+00  3.68742E+01  2.075E-01  2.000E+01  2.000E+04 -1.440E-01
   1   15   24     3     3    2.5053E+05 -2.0017E+03   2.5253E+05  0.000E+00  0.000E+00  0.000E+00  3.59865E+01  2.088E-01  2.000E+01  2.000E+04 -1.001E-01
   1   15   25     3     4    2.5253E+05 -1.9056E+03   2.5444E+05  0.000E+00  0.000E+00  0.000E+00  3.50986E+01  2.097E-01  2.000E+01  2.000E+04 -9.528E-02
   1   15   26     3     5    2.5444E+05 -2.3048E+03   2.5674E+05  0.000E+00  0.000E+00  0.000E+00  3.42108E+01  2.108E-01  2.000E+01  2.000E+04 -1.152E-01
   1   16   27     3     6    2.5674E+05 -3.1970E+03   2.5994E+05  0.000E+00  0.000E+00  0.000E+00  3.33232E+01  2.121E-01  2.000E+01  2.000E+04 -1.598E-01
   1   17   28     3     7    2.5994E+05 -4.0018E+03   2.6394E+05  0.000E+00  0.000E+00  0.000E+00  3.24361E+01  2.139E-01  2.000E+01  2.000E+04 -2.001E-01
   1   18   29     3     8    2.6394E+05 -5.6564E+03   2.6960E+05  0.000E+00  0.000E+00  0.000E+00  3.15496E+01  2.163E-01  2.000E+01  2.000E+04 -2.828E-01
   1   18   30     3     9    2.6960E+05 -4.7792E+03   2.7438E+05  0.000E+00  0.000E+00  0.000E+00  3.06632E+01  2.188E-01  2.000E+01  2.000E+04 -2.390E-01



1
              HEAD IN LAYER   1 AT END OF TIME STEP   1 IN STRESS PERIOD    4
  ---------------------------------------------------------------------------

          1      2      3      4      5      6      7      8      9     10
         11     12     13     14     15     16     17     18     19     20
         21     22     23     24     25     26     27     28     29     30
 .........................................................................
   1  ****** ****** ****** ****** ****** ****** ****** ****** ****** ******
      ****** ****** ****** ****** ****** ****** ****** ****** ****** ******
      ****** ****** ****** ****** ****** ****** ****** ****** ****** ******
   2  ****** ****** ****** ****** ****** ****** ****** ****** ****** ******
      ****** ****** ****** ****** ****** ****** ****** ****** ****** ******
      ****** ****** ****** ****** ****** ****** ****** ****** ****** ******
   3  ****** ****** ****** ****** ****** ****** ****** ****** ****** ******
      ****** ****** ****** ****** ****** ****** ****** ****** ****** ******
      ****** ****** ****** ****** ****** ****** ****** ****** ****** ******
   4  ****** ****** ****** ****** ****** ****** ****** ****** ****** ******
      ****** ****** ****** ****** ****** ****** ****** ****** ****** ******
      ****** ****** ****** ****** ****** ****** ****** ****** ****** ******
   5  ****** ****** ****** ****** ****** ****** ****** ****** ****** ******
      ****** ****** ****** ****** ****** ****** ****** ****** ****** ******
      ****** ****** ****** ****** ****** ****** ****** ****** ****** ******
   6  ****** ****** ****** ****** ****** ****** ****** ****** ****** ******
      ****** ****** ****** ****** ****** ****** ****** ****** ****** ******
      ****** ****** ****** ****** ****** ****** ****** ****** ****** ******
   7  ****** ****** ****** ****** ****** ****** ****** ****** ****** ******
      ****** ****** ****** ****** ****** ****** ****** ****** ****** ******
      ****** ****** ****** ****** ****** ****** ****** ****** ****** ******
   8  ****** ****** ****** ****** ****** ****** ****** ****** ****** ******
      ****** ****** ****** ****** ****** ****** ****** ****** ****** ******
      ****** ****** ****** ****** ****** ****** ****** ****** ****** ******
   9  ****** ****** ****** ****** ****** ****** ****** ****** ****** ******
      ****** ****** ****** ****** ****** ****** ****** ****** ****** ******
      ****** ****** ****** ****** ****** ****** ****** ****** ****** ******
  10  ****** ****** ****** ****** ****** ****** ****** ****** ****** ******
      ****** ****** ****** ****** ****** ****** ****** ****** ****** ******
      ****** ****** ****** ****** ****** ****** ****** ****** ****** ******
  11  ****** ****** ****** ****** ****** ****** ****** ****** ****** ******
      ****** ****** ****** ****** ****** ****** ****** ****** ****** ******
      ****** ****** ****** ****** ****** ****** ****** ****** ****** ******
  12  ****** ****** ****** ****** ****** ****** ****** ****** ****** ******
      ****** ****** ****** ****** ****** ****** ****** ****** ****** ******
      ****** ****** ****** ****** ****** ****** ****** ****** ****** ******
  13  ****** ****** ****** ****** ****** ****** ****** ****** ****** ******
      ****** ****** ****** ****** ****** ****** ****** ****** ****** ******
      ****** ****** ****** ****** ****** ****** ****** ****** ****** ******
  14  ****** ****** ****** ****** ****** ****** ****** ****** ****** ******
      ****** ****** ****** ****** ****** ****** ****** ****** ****** ******
      ****** ****** ****** ****** ****** ****** ****** ****** ****** ******
  15  ****** ****** ****** ****** ****** ****** ****** ****** ****** ******
      ****** ****** ****** ****** ****** ****** ****** ****** ****** ******
      ****** ****** ****** ****** ****** ****** ****** ****** ****** ******
  16  ****** ****** ****** ****** ****** ****** ****** ****** ****** ******
      ****** ****** ****** ****** ****** ****** ****** ****** ****** ******
      ****** ****** ****** ****** ****** ****** ****** ****** ****** ******
  17  ****** ****** ****** ****** ****** ****** ****** ****** ****** ******
      ****** ****** ****** ****** ****** ****** ****** ****** ****** ******
      ****** ****** ****** ****** ****** ****** ****** ****** ****** ******
  18  ****** ****** ****** ****** ****** ****** ****** ****** ****** ******
      ****** ****** ****** ****** ****** ****** ****** ****** ****** ******
      ****** ****** ****** ****** ****** ****** ****** ****** ****** ******
  19  ****** ****** ****** ****** ****** ****** ****** ****** ****** ******
      ****** ****** ****** ****** ****** ****** ****** ****** ****** ******
      ****** ****** ****** ****** ****** ****** ****** ****** ****** ******
  20  ****** ****** ****** ****** ****** ****** ****** ****** ****** ******
      ****** ****** ****** ****** ****** ****** ****** ****** ****** ******
      ****** ****** ****** ****** ****** ****** ****** ****** ****** ******
  21  ****** ****** ****** ****** ****** ****** ****** ****** ****** ******
      ****** ****** ****** ****** ****** ****** ****** ****** ****** ******
      ****** ****** ****** ****** ****** ****** ****** ****** ****** ******
  22  ****** ****** ****** ****** ****** ****** ****** ****** ****** ******
      ****** ****** ****** ****** ****** ****** ****** ****** ****** ******
      ****** ****** ****** ****** ****** ****** ****** ****** ****** ******
  23  ****** ****** ****** ****** ****** ****** ****** ****** ****** ******
      ****** ****** ****** ****** ****** ****** ****** ****** ****** ******
      ****** ****** ****** ****** ****** ****** ****** ****** ****** ******
  24  ****** ****** ****** ****** ****** ****** ****** ****** ****** ******
      ****** ****** ****** ****** ****** ****** ****** ****** ****** ******
      ****** ****** ****** ****** ****** ****** ****** ****** ****** ******
  25  ****** ****** ****** ****** ****** ****** ****** ****** ****** ******
      ****** ****** ****** ****** ****** ****** ****** ****** ****** ******
      ****** ****** ****** ****** ****** ****** ****** ****** ****** ******

 HEAD WILL BE SAVED ON UNIT   51 AT END OF TIME STEP    1, STRESS PERIOD    4
1
  VOLUMETRIC BUDGET FOR ENTIRE MODEL AT END OF TIME STEP    1, STRESS PERIOD   4
  ------------------------------------------------------------------------------

     CUMULATIVE VOLUMES      L**3       RATES FOR THIS TIME STEP      L**3/T
     ------------------                 ------------------------

           IN:                                      IN:
           ---                                      ---
             STORAGE =    21010709.1178               STORAGE =        1163.9758
       CONSTANT HEAD =    42079505.3985         CONSTANT HEAD =      129073.0500
               WELLS =           0.0000                 WELLS =           0.0000
            RECHARGE =     8804400.0000              RECHARGE =       27600.0000
      STREAM LEAKAGE =     2262983.4232        STREAM LEAKAGE =        6720.0041

            TOTAL IN =    74157597.9396              TOTAL IN =      164557.0300

          OUT:                                     OUT:
          ----                                     ----
             STORAGE =       28726.9610               STORAGE =         315.6809
       CONSTANT HEAD =           0.0000         CONSTANT HEAD =           0.0000
               WELLS =    12097793.2483                 WELLS =       33144.6390
            RECHARGE =           0.0000              RECHARGE =           0.0000
      STREAM LEAKAGE =    62031078.3964        STREAM LEAKAGE =      131096.7081

           TOTAL OUT =    74157598.6057             TOTAL OUT =      164557.0281

            IN - OUT =          -0.6661              IN - OUT =       1.9349E-03

 PERCENT DISCREPANCY =          -0.00     PERCENT DISCREPANCY =           0.00






         TIME SUMMARY AT END OF TIME STEP    1 IN STRESS PERIOD    4
                    SECONDS     MINUTES      HOURS       DAYS        YEARS
                    -----------------------------------------------------------
   TIME STEP LENGTH 7.86240E+06 1.31040E+05  2184.0      91.000     0.24914    
 STRESS PERIOD TIME 7.86240E+06 1.31040E+05  2184.0      91.000     0.24914    
         TOTAL TIME 3.15360E+07 5.25600E+05  8760.0      365.00     0.99932    
1
1
                            STRESS PERIOD NO.    5, LENGTH =   92.00000    
                            -----------------------------------------------

                              NUMBER OF TIME STEPS =     1

                               MULTIPLIER FOR DELT =     1.500

                            INITIAL TIME STEP SIZE =   92.00000    

 WELL NO.  LAYER   ROW   COL   STRESS RATE         
 --------------------------------------------------
      1      1     23     10     -0.1134E+05
      2      1     17      3     -0.1036E+05
      3      1     23     22     -0.1145E+05

      3 WELLS

                 RECHARGE =  5.000000E-04

 REUSING STREAM SEGMENT DATA FROM LAST STRESS PERIOD
 
 SOLVING FOR HEAD 


     6 CALLS TO PCG ROUTINE FOR TIME STEP   1 IN STRESS PERIOD    5
    23 TOTAL ITERATIONS

 OUTPUT CONTROL FOR STRESS PERIOD    5   TIME STEP    1
    SAVE BUDGET
    SAVE HEAD FOR ALL LAYERS
    PRINT HEAD FOR ALL LAYERS
 UBDSV2 SAVING "STREAMFLOW OUT  " ON UNIT  50 AT TIME STEP  1, STRESS PERIOD   5



 STREAM LISTING     PERIOD      5   STEP        1

 LAYER ROW COL. STREAM  RCH.  FLOW INTO     FLOW TO   FLOW OUT OF   OVRLND.     DIRECT     STREAM       STREAM     STREAM     STREAM   STREAMBED  STREAMBED
                SEG.NO.  NO.  STRM. RCH.    AQUIFER    STRM. RCH.    RUNOFF     PRECIP       ET          HEAD       DEPTH      WIDTH   CONDCTNC.   GRADIENT

   1   13    1     1     1    1.0000E+05 -2.1908E+03   1.0219E+05  0.000E+00  0.000E+00  0.000E+00  4.84070E+01  1.456E-01  2.000E+01  2.000E+04 -1.095E-01
   1   13    2     1     2    1.0219E+05 -4.2186E+03   1.0641E+05  0.000E+00  0.000E+00  0.000E+00  4.79324E+01  1.484E-01  2.000E+01  2.000E+04 -2.109E-01
   1   14    3     1     3    1.0641E+05 -2.3620E+03   1.0877E+05  0.000E+00  0.000E+00  0.000E+00  4.74580E+01  1.511E-01  2.000E+01  2.000E+04 -1.181E-01
   1   15    4     1     4    1.0877E+05 -1.4841E+03   1.1026E+05  0.000E+00  0.000E+00  0.000E+00  4.69823E+01  1.528E-01  2.000E+01  2.000E+04 -7.420E-02
   1   16    5     1     5    1.1026E+05 -1.5947E+03   1.1185E+05  0.000E+00  0.000E+00  0.000E+00  4.65063E+01  1.540E-01  2.000E+01  2.000E+04 -7.973E-02
   1   16    6     1     6    1.1185E+05 -2.4216E+03   1.1427E+05  0.000E+00  0.000E+00  0.000E+00  4.60307E+01  1.557E-01  2.000E+01  2.000E+04 -1.211E-01
   1   16    7     1     7    1.1427E+05 -2.7398E+03   1.1701E+05  0.000E+00  0.000E+00  0.000E+00  4.55556E+01  1.578E-01  2.000E+01  2.000E+04 -1.370E-01
   1   16    8     1     8    1.1701E+05 -2.8822E+03   1.1989E+05  0.000E+00  0.000E+00  0.000E+00  4.50806E+01  1.601E-01  2.000E+01  2.000E+04 -1.441E-01
   1   16    9     1     9    1.1989E+05 -2.9340E+03   1.2283E+05  0.000E+00  0.000E+00  0.000E+00  4.46057E+01  1.625E-01  2.000E+01  2.000E+04 -1.467E-01
   1   16   10     1    10    1.2283E+05 -2.9331E+03   1.2576E+05  0.000E+00  0.000E+00  0.000E+00  4.41307E+01  1.648E-01  2.000E+01  2.000E+04 -1.467E-01
   1   16   11     1    11    1.2576E+05 -2.9171E+03   1.2868E+05  0.000E+00  0.000E+00  0.000E+00  4.36558E+01  1.671E-01  2.000E+01  2.000E+04 -1.459E-01
   1   16   12     1    12    1.2868E+05 -3.8728E+03   1.3255E+05  0.000E+00  0.000E+00  0.000E+00  4.31812E+01  1.698E-01  2.000E+01  2.000E+04 -1.936E-01
   1   15   13     1    13    1.3255E+05 -3.7480E+03   1.3630E+05  0.000E+00  0.000E+00  0.000E+00  4.27068E+01  1.727E-01  2.000E+01  2.000E+04 -1.874E-01
   1   14   14     1    14    1.3630E+05 -3.8776E+03   1.4018E+05  0.000E+00  0.000E+00  0.000E+00  4.22325E+01  1.757E-01  2.000E+01  2.000E+04 -1.939E-01
   1   13   15     1    15    1.4018E+05 -4.2027E+03   1.4438E+05  0.000E+00  0.000E+00  0.000E+00  4.17583E+01  1.787E-01  2.000E+01  2.000E+04 -2.101E-01
   1   12   16     1    16    1.4438E+05 -5.3959E+03   1.4978E+05  0.000E+00  0.000E+00  0.000E+00  4.12846E+01  1.823E-01  2.000E+01  2.000E+04 -2.698E-01
   1   12   17     1    17    1.4978E+05 -3.5471E+03   1.5332E+05  0.000E+00  0.000E+00  0.000E+00  4.08106E+01  1.856E-01  2.000E+01  2.000E+04 -1.774E-01
   1   12   18     1    18    1.5332E+05 -3.4125E+03   1.5673E+05  0.000E+00  0.000E+00  0.000E+00  4.03359E+01  1.882E-01  2.000E+01  2.000E+04 -1.706E-01
   1   12   19     1    19    1.5673E+05 -4.4590E+03   1.6119E+05  0.000E+00  0.000E+00  0.000E+00  3.98615E+01  1.910E-01  2.000E+01  2.000E+04 -2.229E-01
   1   13   20     1    20    1.6119E+05 -2.9307E+03   1.6412E+05  0.000E+00  0.000E+00  0.000E+00  3.93869E+01  1.937E-01  2.000E+01  2.000E+04 -1.465E-01
   1   14   21     1    21    1.6412E+05 -2.1447E+03   1.6627E+05  0.000E+00  0.000E+00  0.000E+00  3.89114E+01  1.955E-01  2.000E+01  2.000E+04 -1.072E-01
   1   14   22     1    22    1.6627E+05  5.0185E+03   1.6125E+05  0.000E+00  0.000E+00  0.000E+00  3.84331E+01  1.945E-01  2.000E+01  2.000E+04  2.509E-01
   1    9   30     2     1    5.0000E+04 -2.6885E+03   5.2689E+04  0.000E+00  0.000E+00  0.000E+00  4.02427E+01  1.177E-01  2.000E+01  2.000E+04 -1.344E-01
   1    9   29     2     2    5.2689E+04 -3.0214E+03   5.5710E+04  0.000E+00  0.000E+00  0.000E+00  3.99966E+01  1.216E-01  2.000E+01  2.000E+04 -1.511E-01
   1    9   28     2     3    5.5710E+04 -3.4034E+03   5.9113E+04  0.000E+00  0.000E+00  0.000E+00  3.97509E+01  1.259E-01  2.000E+01  2.000E+04 -1.702E-01
   1    9   27     2     4    5.9113E+04 -6.1075E+03   6.5221E+04  0.000E+00  0.000E+00  0.000E+00  3.95070E+01  1.320E-01  2.000E+01  2.000E+04 -3.054E-01
   1   10   26     2     5    6.5221E+04 -3.7336E+03   6.8954E+04  0.000E+00  0.000E+00  0.000E+00  3.92632E+01  1.382E-01  2.000E+01  2.000E+04 -1.867E-01
   1   11   25     2     6    6.8954E+04 -2.6951E+03   7.1650E+04  0.000E+00  0.000E+00  0.000E+00  3.90172E+01  1.422E-01  2.000E+01  2.000E+04 -1.348E-01
   1   12   24     2     7    7.1650E+04 -1.8641E+03   7.3514E+04  0.000E+00  0.000E+00  0.000E+00  3.87699E+01  1.449E-01  2.000E+01  2.000E+04 -9.321E-02
   1   13   23     2     8    7.3514E+04 -1.0708E+03   7.4584E+04  0.000E+00  0.000E+00  0.000E+00  3.85217E+01  1.467E-01  2.000E+01  2.000E+04 -5.354E-02
   1   14   22     2     9    7.4584E+04  1.7810E+03   7.2803E+04  0.000E+00  0.000E+00  0.000E+00  3.82712E+01  1.462E-01  2.000E+01  2.000E+04  8.905E-02
   1   14   22     3     1    2.3405E+05 -8.4904E+03   2.4254E+05  0.000E+00  0.000E+00  0.000E+00  3.77577E+01  2.021E-01  2.000E+01  2.000E+04 -4.245E-01
   1   15   23     3     2    2.4254E+05 -2.7360E+03   2.4528E+05  0.000E+00  0.000E+00  0.000E+00  3.68716E+01  2.049E-01  2.000E+01  2.000E+04 -1.368E-01
   1   15   24     3     3    2.4528E+05 -1.9015E+03   2.4718E+05  0.000E+00  0.000E+00  0.000E+00  3.59839E+01  2.061E-01  2.000E+01  2.000E+04 -9.507E-02
   1   15   25     3     4    2.4718E+05 -1.8082E+03   2.4899E+05  0.000E+00  0.000E+00  0.000E+00  3.50959E+01  2.070E-01  2.000E+01  2.000E+04 -9.041E-02
   1   15   26     3     5    2.4899E+05 -2.1845E+03   2.5117E+05  0.000E+00  0.000E+00  0.000E+00  3.42080E+01  2.080E-01  2.000E+01  2.000E+04 -1.092E-01
   1   16   27     3     6    2.5117E+05 -3.0429E+03   2.5422E+05  0.000E+00  0.000E+00  0.000E+00  3.33205E+01  2.093E-01  2.000E+01  2.000E+04 -1.521E-01
   1   17   28     3     7    2.5422E+05 -3.8444E+03   2.5806E+05  0.000E+00  0.000E+00  0.000E+00  3.24333E+01  2.111E-01  2.000E+01  2.000E+04 -1.922E-01
   1   18   29     3     8    2.5806E+05 -5.5080E+03   2.6357E+05  0.000E+00  0.000E+00  0.000E+00  3.15467E+01  2.134E-01  2.000E+01  2.000E+04 -2.754E-01
   1   18   30     3     9    2.6357E+05 -4.6697E+03   2.6824E+05  0.000E+00  0.000E+00  0.000E+00  3.06603E+01  2.158E-01  2.000E+01  2.000E+04 -2.335E-01



1
              HEAD IN LAYER   1 AT END OF TIME STEP   1 IN STRESS PERIOD    5
  ---------------------------------------------------------------------------

          1      2      3      4      5      6      7      8      9     10
         11     12     13     14     15     16     17     18     19     20
         21     22     23     24     25     26     27     28     29     30
 .........................................................................
   1  ****** ****** ****** ****** ****** ****** ****** ****** ****** ******
      ****** ****** ****** ****** ****** ****** ****** ****** ****** ******
      ****** ****** ****** ****** ****** ****** ****** ****** ****** ******
   2  ****** ****** ****** ****** ****** ****** ****** ****** ****** ******
      ****** ****** ****** ****** ****** ****** ****** ****** ****** ******
      ****** ****** ****** ****** ****** ****** ****** ****** ****** ******
   3  ****** ****** ****** ****** ****** ****** ****** ****** ****** ******
      ****** ****** ****** ****** ****** ****** ****** ****** ****** ******
      ****** ****** ****** ****** ****** ****** ****** ****** ****** ******
   4  ****** ****** ****** ****** ****** ****** ****** ****** ****** ******
      ****** ****** ****** ****** ****** ****** ****** ****** ****** ******
      ****** ****** ****** ****** ****** ****** ****** ****** ****** ******
   5  ****** ****** ****** ****** ****** ****** ****** ****** ****** ******
      ****** ****** ****** ****** ****** ****** ****** ****** ****** ******
      ****** ****** ****** ****** ****** ****** ****** ****** ****** ******
   6  ****** ****** ****** ****** ****** ****** ****** ****** ****** ******
      ****** ****** ****** ****** ****** ****** ****** ****** ****** ******
      ****** ****** ****** ****** ****** ****** ****** ****** ****** ******
   7  ****** ****** ****** ****** ****** ****** ****** ****** ****** ******
      ****** ****** ****** ****** ****** ****** ****** ****** ****** ******
      ****** ****** ****** ****** ****** ****** ****** ****** ****** ******
   8  ****** ****** ****** ****** ****** ****** ****** ****** ****** ******
      ****** ****** ****** ****** ****** ****** ****** ****** ****** ******
      ****** ****** ****** ****** ****** ****** ****** ****** ****** ******
   9  ****** ****** ****** ****** ****** ****** ****** ****** ****** ******
      ****** ****** ****** ****** ****** ****** ****** ****** ****** ******
      ****** ****** ****** ****** ****** ****** ****** ****** ****** ******
  10  ****** ****** ****** ****** ****** ****** ****** ****** ****** ******
      ****** ****** ****** ****** ****** ****** ****** ****** ****** ******
      ****** ****** ****** ****** ****** ****** ****** ****** ****** ******
  11  ****** ****** ****** ****** ****** ****** ****** ****** ****** ******
      ****** ****** ****** ****** ****** ****** ****** ****** ****** ******
      ****** ****** ****** ****** ****** ****** ****** ****** ****** ******
  12  ****** ****** ****** ****** ****** ****** ****** ****** ****** ******
      ****** ****** ****** ****** ****** ****** ****** ****** ****** ******
      ****** ****** ****** ****** ****** ****** ****** ****** ****** ******
  13  ****** ****** ****** ****** ****** ****** ****** ****** ****** ******
      ****** ****** ****** ****** ****** ****** ****** ****** ****** ******
      ****** ****** ****** ****** ****** ****** ****** ****** ****** ******
  14  ****** ****** ****** ****** ****** ****** ****** ****** ****** ******
      ****** ****** ****** ****** ****** ****** ****** ****** ****** ******
      ****** ****** ****** ****** ****** ****** ****** ****** ****** ******
  15  ****** ****** ****** ****** ****** ****** ****** ****** ****** ******
      ****** ****** ****** ****** ****** ****** ****** ****** ****** ******
      ****** ****** ****** ****** ****** ****** ****** ****** ****** ******
  16  ****** ****** ****** ****** ****** ****** ****** ****** ****** ******
      ****** ****** ****** ****** ****** ****** ****** ****** ****** ******
      ****** ****** ****** ****** ****** ****** ****** ****** ****** ******
  17  ****** ****** ****** ****** ****** ****** ****** ****** ****** ******
      ****** ****** ****** ****** ****** ****** ****** ****** ****** ******
      ****** ****** ****** ****** ****** ****** ****** ****** ****** ******
  18  ****** ****** ****** ****** ****** ****** ****** ****** ****** ******
      ****** ****** ****** ****** ****** ****** ****** ****** ****** ******
      ****** ****** ****** ****** ****** ****** ****** ****** ****** ******
  19  ****** ****** ****** ****** ****** ****** ****** ****** ****** ******
      ****** ****** ****** ****** ****** ****** ****** ****** ****** ******
      ****** ****** ****** ****** ****** ****** ****** ****** ****** ******
  20  ****** ****** ****** ****** ****** ****** ****** ****** ****** ******
      ****** ****** ****** ****** ****** ****** ****** ****** ****** ******
      ****** ****** ****** ****** ****** ****** ****** ****** ****** ******
  21  ****** ****** ****** ****** ****** ****** ****** ****** ****** ******
      ****** ****** ****** ****** ****** ****** ****** ****** ****** ******
      ****** ****** ****** ****** ****** ****** ****** ****** ****** ******
  22  ****** ****** ****** ****** ****** ****** ****** ****** ****** ******
      ****** ****** ****** ****** ****** ****** ****** ****** ****** ******
      ****** ****** ****** ****** ****** ****** ****** ****** ****** ******
  23  ****** ****** ****** ****** ****** ****** ****** ****** ****** ******
      ****** ****** ****** ****** ****** ****** ****** ****** ****** ******
      ****** ****** ****** ****** ****** ****** ****** ****** ****** ******
  24  ****** ****** ****** ****** ****** ****** ****** ****** ****** ******
      ****** ****** ****** ****** ****** ****** ****** ****** ****** ******
      ****** ****** ****** ****** ****** ****** ****** ****** ****** ******
  25  ****** ****** ****** ****** ****** ****** ****** ****** ****** ******
      ****** ****** ****** ****** ****** ****** ****** ****** ****** ******
      ****** ****** ****** ****** ****** ****** ****** ****** ****** ******

 HEAD WILL BE SAVED ON UNIT   51 AT END OF TIME STEP    1, STRESS PERIOD    5
1
  VOLUMETRIC BUDGET FOR ENTIRE MODEL AT END OF TIME STEP    1, STRESS PERIOD   5
  ------------------------------------------------------------------------------

     CUMULATIVE VOLUMES      L**3       RATES FOR THIS TIME STEP      L**3/T
     ------------------                 ------------------------

           IN:                                      IN:
           ---                                      ---
             STORAGE =    21408274.7918               STORAGE =        4321.3660
       CONSTANT HEAD =    54339680.6929         CONSTANT HEAD =      133262.7749
               WELLS =           0.0000                 WELLS =           0.0000
            RECHARGE =    10074000.0000              RECHARGE =       13800.0000
      STREAM LEAKAGE =     2888543.8489        STREAM LEAKAGE =        6799.5698

            TOTAL IN =    88710499.3336              TOTAL IN =      158183.7108

          OUT:                                     OUT:
          ----                                     ----
             STORAGE =       28726.9610               STORAGE =           0.0000
       CONSTANT HEAD =           0.0000         CONSTANT HEAD =           0.0000
               WELLS =    15147100.0396                 WELLS =       33144.6390
            RECHARGE =           0.0000              RECHARGE =           0.0000
      STREAM LEAKAGE =    73534673.0692        STREAM LEAKAGE =      125039.0725

           TOTAL OUT =    88710500.0698             TOTAL OUT =      158183.7116

            IN - OUT =          -0.7362              IN - OUT =      -7.6180E-04

 PERCENT DISCREPANCY =          -0.00     PERCENT DISCREPANCY =          -0.00






         TIME SUMMARY AT END OF TIME STEP    1 IN STRESS PERIOD    5
                    SECONDS     MINUTES      HOURS       DAYS        YEARS
                    -----------------------------------------------------------
   TIME STEP LENGTH 7.94880E+06 1.32480E+05  2208.0      92.000     0.25188    
 STRESS PERIOD TIME 7.94880E+06 1.32480E+05  2208.0      92.000     0.25188    
         TOTAL TIME 3.94848E+07 6.58080E+05  10968.      457.00      1.2512    
1
1
                            STRESS PERIOD NO.    6, LENGTH =   91.00000    
                            -----------------------------------------------

                              NUMBER OF TIME STEPS =     1

                               MULTIPLIER FOR DELT =     1.500

                            INITIAL TIME STEP SIZE =   91.00000    

 WELL NO.  LAYER   ROW   COL   STRESS RATE         
 --------------------------------------------------
      1      1     23     10     -0.1134E+05
      2      1     17      3     -0.1036E+05
      3      1     23     22     -0.1145E+05

      3 WELLS

                 RECHARGE =  2.000000E-03

 REUSING STREAM SEGMENT DATA FROM LAST STRESS PERIOD
 
 SOLVING FOR HEAD 


     7 CALLS TO PCG ROUTINE FOR TIME STEP   1 IN STRESS PERIOD    6
    26 TOTAL ITERATIONS

 OUTPUT CONTROL FOR STRESS PERIOD    6   TIME STEP    1
    SAVE BUDGET
    SAVE HEAD FOR ALL LAYERS
    PRINT HEAD FOR ALL LAYERS
 UBDSV2 SAVING "STREAMFLOW OUT  " ON UNIT  50 AT TIME STEP  1, STRESS PERIOD   6



 STREAM LISTING     PERIOD      6   STEP        1

 LAYER ROW COL. STREAM  RCH.  FLOW INTO     FLOW TO   FLOW OUT OF   OVRLND.     DIRECT     STREAM       STREAM     STREAM     STREAM   STREAMBED  STREAMBED
                SEG.NO.  NO.  STRM. RCH.    AQUIFER    STRM. RCH.    RUNOFF     PRECIP       ET          HEAD       DEPTH      WIDTH   CONDCTNC.   GRADIENT

   1   13    1     1     1    1.0000E+05 -2.5901E+03   1.0259E+05  0.000E+00  0.000E+00  0.000E+00  4.84071E+01  1.458E-01  2.000E+01  2.000E+04 -1.295E-01
   1   13    2     1     2    1.0259E+05 -4.7440E+03   1.0733E+05  0.000E+00  0.000E+00  0.000E+00  4.79330E+01  1.489E-01  2.000E+01  2.000E+04 -2.372E-01
   1   14    3     1     3    1.0733E+05 -2.9009E+03   1.1023E+05  0.000E+00  0.000E+00  0.000E+00  4.74590E+01  1.521E-01  2.000E+01  2.000E+04 -1.450E-01
   1   15    4     1     4    1.1023E+05 -2.0200E+03   1.1225E+05  0.000E+00  0.000E+00  0.000E+00  4.69837E+01  1.542E-01  2.000E+01  2.000E+04 -1.010E-01
   1   16    5     1     5    1.1225E+05 -2.0921E+03   1.1435E+05  0.000E+00  0.000E+00  0.000E+00  4.65082E+01  1.559E-01  2.000E+01  2.000E+04 -1.046E-01
   1   16    6     1     6    1.1435E+05 -2.8131E+03   1.1716E+05  0.000E+00  0.000E+00  0.000E+00  4.60329E+01  1.579E-01  2.000E+01  2.000E+04 -1.407E-01
   1   16    7     1     7    1.1716E+05 -3.1369E+03   1.2030E+05  0.000E+00  0.000E+00  0.000E+00  4.55581E+01  1.603E-01  2.000E+01  2.000E+04 -1.568E-01
   1   16    8     1     8    1.2030E+05 -3.2827E+03   1.2358E+05  0.000E+00  0.000E+00  0.000E+00  4.50834E+01  1.629E-01  2.000E+01  2.000E+04 -1.641E-01
   1   16    9     1     9    1.2358E+05 -3.3345E+03   1.2691E+05  0.000E+00  0.000E+00  0.000E+00  4.46088E+01  1.656E-01  2.000E+01  2.000E+04 -1.667E-01
   1   16   10     1    10    1.2691E+05 -3.3302E+03   1.3024E+05  0.000E+00  0.000E+00  0.000E+00  4.41341E+01  1.682E-01  2.000E+01  2.000E+04 -1.665E-01
   1   16   11     1    11    1.3024E+05 -3.3093E+03   1.3355E+05  0.000E+00  0.000E+00  0.000E+00  4.36594E+01  1.708E-01  2.000E+01  2.000E+04 -1.655E-01
   1   16   12     1    12    1.3355E+05 -4.3785E+03   1.3793E+05  0.000E+00  0.000E+00  0.000E+00  4.31851E+01  1.738E-01  2.000E+01  2.000E+04 -2.189E-01
   1   15   13     1    13    1.3793E+05 -4.2959E+03   1.4223E+05  0.000E+00  0.000E+00  0.000E+00  4.27112E+01  1.771E-01  2.000E+01  2.000E+04 -2.148E-01
   1   14   14     1    14    1.4223E+05 -4.4349E+03   1.4666E+05  0.000E+00  0.000E+00  0.000E+00  4.22372E+01  1.804E-01  2.000E+01  2.000E+04 -2.217E-01
   1   13   15     1    15    1.4666E+05 -4.7503E+03   1.5141E+05  0.000E+00  0.000E+00  0.000E+00  4.17633E+01  1.838E-01  2.000E+01  2.000E+04 -2.375E-01
   1   12   16     1    16    1.5141E+05 -5.9185E+03   1.5733E+05  0.000E+00  0.000E+00  0.000E+00  4.12900E+01  1.877E-01  2.000E+01  2.000E+04 -2.959E-01
   1   12   17     1    17    1.5733E+05 -3.9382E+03   1.6127E+05  0.000E+00  0.000E+00  0.000E+00  4.08163E+01  1.913E-01  2.000E+01  2.000E+04 -1.969E-01
   1   12   18     1    18    1.6127E+05 -3.7976E+03   1.6507E+05  0.000E+00  0.000E+00  0.000E+00  4.03418E+01  1.940E-01  2.000E+01  2.000E+04 -1.899E-01
   1   12   19     1    19    1.6507E+05 -4.9289E+03   1.7000E+05  0.000E+00  0.000E+00  0.000E+00  3.98676E+01  1.971E-01  2.000E+01  2.000E+04 -2.464E-01
   1   13   20     1    20    1.7000E+05 -3.3905E+03   1.7339E+05  0.000E+00  0.000E+00  0.000E+00  3.93932E+01  2.001E-01  2.000E+01  2.000E+04 -1.695E-01
   1   14   21     1    21    1.7339E+05 -2.5680E+03   1.7596E+05  0.000E+00  0.000E+00  0.000E+00  3.89181E+01  2.021E-01  2.000E+01  2.000E+04 -1.284E-01
   1   14   22     1    22    1.7596E+05  4.9385E+03   1.7102E+05  0.000E+00  0.000E+00  0.000E+00  3.84400E+01  2.013E-01  2.000E+01  2.000E+04  2.469E-01
   1    9   30     2     1    5.0000E+04 -3.0456E+03   5.3046E+04  0.000E+00  0.000E+00  0.000E+00  4.02430E+01  1.180E-01  2.000E+01  2.000E+04 -1.523E-01
   1    9   29     2     2    5.3046E+04 -3.3756E+03   5.6421E+04  0.000E+00  0.000E+00  0.000E+00  3.99973E+01  1.223E-01  2.000E+01  2.000E+04 -1.688E-01
   1    9   28     2     3    5.6421E+04 -3.7554E+03   6.0177E+04  0.000E+00  0.000E+00  0.000E+00  3.97520E+01  1.270E-01  2.000E+01  2.000E+04 -1.878E-01
   1    9   27     2     4    6.0177E+04 -6.5771E+03   6.6754E+04  0.000E+00  0.000E+00  0.000E+00  3.95087E+01  1.337E-01  2.000E+01  2.000E+04 -3.289E-01
   1   10   26     2     5    6.6754E+04 -4.2197E+03   7.0973E+04  0.000E+00  0.000E+00  0.000E+00  3.92654E+01  1.404E-01  2.000E+01  2.000E+04 -2.110E-01
   1   11   25     2     6    7.0973E+04 -3.1601E+03   7.4134E+04  0.000E+00  0.000E+00  0.000E+00  3.90199E+01  1.449E-01  2.000E+01  2.000E+04 -1.580E-01
   1   12   24     2     7    7.4134E+04 -2.2752E+03   7.6409E+04  0.000E+00  0.000E+00  0.000E+00  3.87731E+01  1.481E-01  2.000E+01  2.000E+04 -1.138E-01
   1   13   23     2     8    7.6409E+04 -1.3915E+03   7.7800E+04  0.000E+00  0.000E+00  0.000E+00  3.85253E+01  1.503E-01  2.000E+01  2.000E+04 -6.957E-02
   1   14   22     2     9    7.7800E+04  1.6415E+03   7.6159E+04  0.000E+00  0.000E+00  0.000E+00  3.82751E+01  1.501E-01  2.000E+01  2.000E+04  8.208E-02
   1   14   22     3     1    2.4718E+05 -8.5749E+03   2.5575E+05  0.000E+00  0.000E+00  0.000E+00  3.77643E+01  2.087E-01  2.000E+01  2.000E+04 -4.287E-01
   1   15   23     3     2    2.5575E+05 -3.1317E+03   2.5888E+05  0.000E+00  0.000E+00  0.000E+00  3.68783E+01  2.116E-01  2.000E+01  2.000E+04 -1.566E-01
   1   15   24     3     3    2.5888E+05 -2.1882E+03   2.6107E+05  0.000E+00  0.000E+00  0.000E+00  3.59907E+01  2.129E-01  2.000E+01  2.000E+04 -1.094E-01
   1   15   25     3     4    2.6107E+05 -2.0958E+03   2.6317E+05  0.000E+00  0.000E+00  0.000E+00  3.51029E+01  2.140E-01  2.000E+01  2.000E+04 -1.048E-01
   1   15   26     3     5    2.6317E+05 -2.5556E+03   2.6572E+05  0.000E+00  0.000E+00  0.000E+00  3.42151E+01  2.151E-01  2.000E+01  2.000E+04 -1.278E-01
   1   16   27     3     6    2.6572E+05 -3.5082E+03   2.6923E+05  0.000E+00  0.000E+00  0.000E+00  3.33277E+01  2.166E-01  2.000E+01  2.000E+04 -1.754E-01
   1   17   28     3     7    2.6923E+05 -4.3195E+03   2.7355E+05  0.000E+00  0.000E+00  0.000E+00  3.24407E+01  2.185E-01  2.000E+01  2.000E+04 -2.160E-01
   1   18   29     3     8    2.7355E+05 -5.9538E+03   2.7950E+05  0.000E+00  0.000E+00  0.000E+00  3.15543E+01  2.210E-01  2.000E+01  2.000E+04 -2.977E-01
   1   18   30     3     9    2.7950E+05 -5.0062E+03   2.8451E+05  0.000E+00  0.000E+00  0.000E+00  3.06680E+01  2.236E-01  2.000E+01  2.000E+04 -2.503E-01



1
              HEAD IN LAYER   1 AT END OF TIME STEP   1 IN STRESS PERIOD    6
  ---------------------------------------------------------------------------

          1      2      3      4      5      6      7      8      9     10
         11     12     13     14     15     16     17     18     19     20
         21     22     23     24     25     26     27     28     29     30
 .........................................................................
   1  ****** ****** ****** ****** ****** ****** ****** ****** ****** ******
      ****** ****** ****** ****** ****** ****** ****** ****** ****** ******
      ****** ****** ****** ****** ****** ****** ****** ****** ****** ******
   2  ****** ****** ****** ****** ****** ****** ****** ****** ****** ******
      ****** ****** ****** ****** ****** ****** ****** ****** ****** ******
      ****** ****** ****** ****** ****** ****** ****** ****** ****** ******
   3  ****** ****** ****** ****** ****** ****** ****** ****** ****** ******
      ****** ****** ****** ****** ****** ****** ****** ****** ****** ******
      ****** ****** ****** ****** ****** ****** ****** ****** ****** ******
   4  ****** ****** ****** ****** ****** ****** ****** ****** ****** ******
      ****** ****** ****** ****** ****** ****** ****** ****** ****** ******
      ****** ****** ****** ****** ****** ****** ****** ****** ****** ******
   5  ****** ****** ****** ****** ****** ****** ****** ****** ****** ******
      ****** ****** ****** ****** ****** ****** ****** ****** ****** ******
      ****** ****** ****** ****** ****** ****** ****** ****** ****** ******
   6  ****** ****** ****** ****** ****** ****** ****** ****** ****** ******
      ****** ****** ****** ****** ****** ****** ****** ****** ****** ******
      ****** ****** ****** ****** ****** ****** ****** ****** ****** ******
   7  ****** ****** ****** ****** ****** ****** ****** ****** ****** ******
      ****** ****** ****** ****** ****** ****** ****** ****** ****** ******
      ****** ****** ****** ****** ****** ****** ****** ****** ****** ******
   8  ****** ****** ****** ****** ****** ****** ****** ****** ****** ******
      ****** ****** ****** ****** ****** ****** ****** ****** ****** ******
      ****** ****** ****** ****** ****** ****** ****** ****** ****** ******
   9  ****** ****** ****** ****** ****** ****** ****** ****** ****** ******
      ****** ****** ****** ****** ****** ****** ****** ****** ****** ******
      ****** ****** ****** ****** ****** ****** ****** ****** ****** ******
  10  ****** ****** ****** ****** ****** ****** ****** ****** ****** ******
      ****** ****** ****** ****** ****** ****** ****** ****** ****** ******
      ****** ****** ****** ****** ****** ****** ****** ****** ****** ******
  11  ****** ****** ****** ****** ****** ****** ****** ****** ****** ******
      ****** ****** ****** ****** ****** ****** ****** ****** ****** ******
      ****** ****** ****** ****** ****** ****** ****** ****** ****** ******
  12  ****** ****** ****** ****** ****** ****** ****** ****** ****** ******
      ****** ****** ****** ****** ****** ****** ****** ****** ****** ******
      ****** ****** ****** ****** ****** ****** ****** ****** ****** ******
  13  ****** ****** ****** ****** ****** ****** ****** ****** ****** ******
      ****** ****** ****** ****** ****** ****** ****** ****** ****** ******
      ****** ****** ****** ****** ****** ****** ****** ****** ****** ******
  14  ****** ****** ****** ****** ****** ****** ****** ****** ****** ******
      ****** ****** ****** ****** ****** ****** ****** ****** ****** ******
      ****** ****** ****** ****** ****** ****** ****** ****** ****** ******
  15  ****** ****** ****** ****** ****** ****** ****** ****** ****** ******
      ****** ****** ****** ****** ****** ****** ****** ****** ****** ******
      ****** ****** ****** ****** ****** ****** ****** ****** ****** ******
  16  ****** ****** ****** ****** ****** ****** ****** ****** ****** ******
      ****** ****** ****** ****** ****** ****** ****** ****** ****** ******
      ****** ****** ****** ****** ****** ****** ****** ****** ****** ******
  17  ****** ****** ****** ****** ****** ****** ****** ****** ****** ******
      ****** ****** ****** ****** ****** ****** ****** ****** ****** ******
      ****** ****** ****** ****** ****** ****** ****** ****** ****** ******
  18  ****** ****** ****** ****** ****** ****** ****** ****** ****** ******
      ****** ****** ****** ****** ****** ****** ****** ****** ****** ******
      ****** ****** ****** ****** ****** ****** ****** ****** ****** ******
  19  ****** ****** ****** ****** ****** ****** ****** ****** ****** ******
      ****** ****** ****** ****** ****** ****** ****** ****** ****** ******
      ****** ****** ****** ****** ****** ****** ****** ****** ****** ******
  20  ****** ****** ****** ****** ****** ****** ****** ****** ****** ******
      ****** ****** ****** ****** ****** ****** ****** ****** ****** ******
      ****** ****** ****** ****** ****** ****** ****** ****** ****** ******
  21  ****** ****** ****** ****** ****** ****** ****** ****** ****** ******
      ****** ****** ****** ****** ****** ****** ****** ****** ****** ******
      ****** ****** ****** ****** ****** ****** ****** ****** ****** ******
  22  ****** ****** ****** ****** ****** ****** ****** ****** ****** ******
      ****** ****** ****** ****** ****** ****** ****** ****** ****** ******
      ****** ****** ****** ****** ****** ****** ****** ****** ****** ******
  23  ****** ****** ****** ****** ****** ****** ****** ****** ****** ******
      ****** ****** ****** ****** ****** ****** ****** ****** ****** ******
      ****** ****** ****** ****** ****** ****** ****** ****** ****** ******
  24  ****** ****** ****** ****** ****** ****** ****** ****** ****** ******
      ****** ****** ****** ****** ****** ****** ****** ****** ****** ******
      ****** ****** ****** ****** ****** ****** ****** ****** ****** ******
  25  ****** ****** ****** ****** ****** ****** ****** ****** ****** ******
      ****** ****** ****** ****** ****** ****** ****** ****** ****** ******
      ****** ****** ****** ****** ****** ****** ****** ****** ****** ******

 HEAD WILL BE SAVED ON UNIT   51 AT END OF TIME STEP    1, STRESS PERIOD    6
1
  VOLUMETRIC BUDGET FOR ENTIRE MODEL AT END OF TIME STEP    1, STRESS PERIOD   6
  ------------------------------------------------------------------------------

     CUMULATIVE VOLUMES      L**3       RATES FOR THIS TIME STEP      L**3/T
     ------------------                 ------------------------

           IN:                                      IN:
           ---                                      ---
             STORAGE =    21408274.7918               STORAGE =           0.0000
       CONSTANT HEAD =    65495262.6517         CONSTANT HEAD =      122588.8127
               WELLS =           0.0000                 WELLS =           0.0000
            RECHARGE =    15097200.0000              RECHARGE =       55200.0000
      STREAM LEAKAGE =     3487328.8442        STREAM LEAKAGE =        6580.0549

            TOTAL IN =   105488066.2877              TOTAL IN =      184368.8676

          OUT:                                     OUT:
          ----                                     ----
             STORAGE =      951011.7952               STORAGE =       10134.9982
       CONSTANT HEAD =           0.0000         CONSTANT HEAD =           0.0000
               WELLS =    18163262.1919                 WELLS =       33144.6390
            RECHARGE =           0.0000              RECHARGE =           0.0000
      STREAM LEAKAGE =    86373792.8850        STREAM LEAKAGE =      141089.2287

           TOTAL OUT =   105488066.8722             TOTAL OUT =      184368.8660

            IN - OUT =          -0.5845              IN - OUT =       1.6669E-03

 PERCENT DISCREPANCY =          -0.00     PERCENT DISCREPANCY =           0.00






         TIME SUMMARY AT END OF TIME STEP    1 IN STRESS PERIOD    6
                    SECONDS     MINUTES      HOURS       DAYS        YEARS
                    -----------------------------------------------------------
   TIME STEP LENGTH 7.86240E+06 1.31040E+05  2184.0      91.000     0.24914    
 STRESS PERIOD TIME 7.86240E+06 1.31040E+05  2184.0      91.000     0.24914    
         TOTAL TIME 4.73472E+07 7.89120E+05  13152.      548.00      1.5003    
1
1
                            STRESS PERIOD NO.    7, LENGTH =   91.00000    
                            -----------------------------------------------

                              NUMBER OF TIME STEPS =     1

                               MULTIPLIER FOR DELT =     1.500

                            INITIAL TIME STEP SIZE =   91.00000    

 WELL NO.  LAYER   ROW   COL   STRESS RATE         
 --------------------------------------------------
      1      1     23     10     -0.1039E+05
      2      1     17      3      -9136.    
      3      1     23     22     -0.1557E+05

      3 WELLS

                 RECHARGE =   0.00000    

 REUSING STREAM SEGMENT DATA FROM LAST STRESS PERIOD
 
 SOLVING FOR HEAD 


     7 CALLS TO PCG ROUTINE FOR TIME STEP   1 IN STRESS PERIOD    7
    26 TOTAL ITERATIONS

 OUTPUT CONTROL FOR STRESS PERIOD    7   TIME STEP    1
    SAVE BUDGET
    SAVE HEAD FOR ALL LAYERS
    PRINT HEAD FOR ALL LAYERS
 UBDSV2 SAVING "STREAMFLOW OUT  " ON UNIT  50 AT TIME STEP  1, STRESS PERIOD   7



 STREAM LISTING     PERIOD      7   STEP        1

 LAYER ROW COL. STREAM  RCH.  FLOW INTO     FLOW TO   FLOW OUT OF   OVRLND.     DIRECT     STREAM       STREAM     STREAM     STREAM   STREAMBED  STREAMBED
                SEG.NO.  NO.  STRM. RCH.    AQUIFER    STRM. RCH.    RUNOFF     PRECIP       ET          HEAD       DEPTH      WIDTH   CONDCTNC.   GRADIENT

   1   13    1     1     1    1.0000E+05 -2.1484E+03   1.0215E+05  0.000E+00  0.000E+00  0.000E+00  4.84069E+01  1.456E-01  2.000E+01  2.000E+04 -1.074E-01
   1   13    2     1     2    1.0215E+05 -4.1392E+03   1.0629E+05  0.000E+00  0.000E+00  0.000E+00  4.79324E+01  1.483E-01  2.000E+01  2.000E+04 -2.070E-01
   1   14    3     1     3    1.0629E+05 -2.3651E+03   1.0865E+05  0.000E+00  0.000E+00  0.000E+00  4.74579E+01  1.510E-01  2.000E+01  2.000E+04 -1.183E-01
   1   15    4     1     4    1.0865E+05 -1.5691E+03   1.1022E+05  0.000E+00  0.000E+00  0.000E+00  4.69822E+01  1.527E-01  2.000E+01  2.000E+04 -7.845E-02
   1   16    5     1     5    1.1022E+05 -1.7079E+03   1.1193E+05  0.000E+00  0.000E+00  0.000E+00  4.65063E+01  1.541E-01  2.000E+01  2.000E+04 -8.540E-02
   1   16    6     1     6    1.1193E+05 -2.3906E+03   1.1432E+05  0.000E+00  0.000E+00  0.000E+00  4.60308E+01  1.558E-01  2.000E+01  2.000E+04 -1.195E-01
   1   16    7     1     7    1.1432E+05 -2.6822E+03   1.1700E+05  0.000E+00  0.000E+00  0.000E+00  4.55556E+01  1.578E-01  2.000E+01  2.000E+04 -1.341E-01
   1   16    8     1     8    1.1700E+05 -2.8137E+03   1.1982E+05  0.000E+00  0.000E+00  0.000E+00  4.50805E+01  1.601E-01  2.000E+01  2.000E+04 -1.407E-01
   1   16    9     1     9    1.1982E+05 -2.8605E+03   1.2268E+05  0.000E+00  0.000E+00  0.000E+00  4.46056E+01  1.624E-01  2.000E+01  2.000E+04 -1.430E-01
   1   16   10     1    10    1.2268E+05 -2.8568E+03   1.2553E+05  0.000E+00  0.000E+00  0.000E+00  4.41306E+01  1.647E-01  2.000E+01  2.000E+04 -1.428E-01
   1   16   11     1    11    1.2553E+05 -2.8387E+03   1.2837E+05  0.000E+00  0.000E+00  0.000E+00  4.36556E+01  1.669E-01  2.000E+01  2.000E+04 -1.419E-01
   1   16   12     1    12    1.2837E+05 -3.7675E+03   1.3214E+05  0.000E+00  0.000E+00  0.000E+00  4.31809E+01  1.695E-01  2.000E+01  2.000E+04 -1.884E-01
   1   15   13     1    13    1.3214E+05 -3.6177E+03   1.3576E+05  0.000E+00  0.000E+00  0.000E+00  4.27065E+01  1.724E-01  2.000E+01  2.000E+04 -1.809E-01
   1   14   14     1    14    1.3576E+05 -3.7413E+03   1.3950E+05  0.000E+00  0.000E+00  0.000E+00  4.22320E+01  1.752E-01  2.000E+01  2.000E+04 -1.871E-01
   1   13   15     1    15    1.3950E+05 -4.0686E+03   1.4357E+05  0.000E+00  0.000E+00  0.000E+00  4.17577E+01  1.782E-01  2.000E+01  2.000E+04 -2.034E-01
   1   12   16     1    16    1.4357E+05 -5.2752E+03   1.4884E+05  0.000E+00  0.000E+00  0.000E+00  4.12840E+01  1.817E-01  2.000E+01  2.000E+04 -2.638E-01
   1   12   17     1    17    1.4884E+05 -3.4524E+03   1.5229E+05  0.000E+00  0.000E+00  0.000E+00  4.08099E+01  1.849E-01  2.000E+01  2.000E+04 -1.726E-01
   1   12   18     1    18    1.5229E+05 -3.3184E+03   1.5561E+05  0.000E+00  0.000E+00  0.000E+00  4.03351E+01  1.874E-01  2.000E+01  2.000E+04 -1.659E-01
   1   12   19     1    19    1.5561E+05 -4.3473E+03   1.5996E+05  0.000E+00  0.000E+00  0.000E+00  3.98606E+01  1.902E-01  2.000E+01  2.000E+04 -2.174E-01
   1   13   20     1    20    1.5996E+05 -2.8062E+03   1.6277E+05  0.000E+00  0.000E+00  0.000E+00  3.93859E+01  1.928E-01  2.000E+01  2.000E+04 -1.403E-01
   1   14   21     1    21    1.6277E+05 -2.0129E+03   1.6478E+05  0.000E+00  0.000E+00  0.000E+00  3.89104E+01  1.945E-01  2.000E+01  2.000E+04 -1.006E-01
   1   14   22     1    22    1.6478E+05  5.0507E+03   1.5973E+05  0.000E+00  0.000E+00  0.000E+00  3.84320E+01  1.934E-01  2.000E+01  2.000E+04  2.525E-01
   1    9   30     2     1    5.0000E+04 -2.6029E+03   5.2603E+04  0.000E+00  0.000E+00  0.000E+00  4.02427E+01  1.177E-01  2.000E+01  2.000E+04 -1.301E-01
   1    9   29     2     2    5.2603E+04 -2.9365E+03   5.5539E+04  0.000E+00  0.000E+00  0.000E+00  3.99964E+01  1.214E-01  2.000E+01  2.000E+04 -1.468E-01
   1    9   28     2     3    5.5539E+04 -3.3196E+03   5.8859E+04  0.000E+00  0.000E+00  0.000E+00  3.97506E+01  1.256E-01  2.000E+01  2.000E+04 -1.660E-01
   1    9   27     2     4    5.8859E+04 -6.0020E+03   6.4861E+04  0.000E+00  0.000E+00  0.000E+00  3.95066E+01  1.316E-01  2.000E+01  2.000E+04 -3.001E-01
   1   10   26     2     5    6.4861E+04 -3.6188E+03   6.8480E+04  0.000E+00  0.000E+00  0.000E+00  3.92627E+01  1.377E-01  2.000E+01  2.000E+04 -1.809E-01
   1   11   25     2     6    6.8480E+04 -2.5825E+03   7.1062E+04  0.000E+00  0.000E+00  0.000E+00  3.90165E+01  1.415E-01  2.000E+01  2.000E+04 -1.291E-01
   1   12   24     2     7    7.1062E+04 -1.7610E+03   7.2823E+04  0.000E+00  0.000E+00  0.000E+00  3.87691E+01  1.441E-01  2.000E+01  2.000E+04 -8.805E-02
   1   13   23     2     8    7.2823E+04 -9.8594E+02   7.3809E+04  0.000E+00  0.000E+00  0.000E+00  3.85208E+01  1.458E-01  2.000E+01  2.000E+04 -4.930E-02
   1   14   22     2     9    7.3809E+04  1.8158E+03   7.1993E+04  0.000E+00  0.000E+00  0.000E+00  3.82703E+01  1.453E-01  2.000E+01  2.000E+04  9.079E-02
   1   14   22     3     1    2.3172E+05 -8.4606E+03   2.4018E+05  0.000E+00  0.000E+00  0.000E+00  3.77565E+01  2.009E-01  2.000E+01  2.000E+04 -4.230E-01
   1   15   23     3     2    2.4018E+05 -2.5873E+03   2.4277E+05  0.000E+00  0.000E+00  0.000E+00  3.68704E+01  2.037E-01  2.000E+01  2.000E+04 -1.294E-01
   1   15   24     3     3    2.4277E+05 -1.7960E+03   2.4457E+05  0.000E+00  0.000E+00  0.000E+00  3.59826E+01  2.048E-01  2.000E+01  2.000E+04 -8.980E-02
   1   15   25     3     4    2.4457E+05 -1.7087E+03   2.4627E+05  0.000E+00  0.000E+00  0.000E+00  3.50946E+01  2.057E-01  2.000E+01  2.000E+04 -8.543E-02
   1   15   26     3     5    2.4627E+05 -2.0729E+03   2.4835E+05  0.000E+00  0.000E+00  0.000E+00  3.42067E+01  2.067E-01  2.000E+01  2.000E+04 -1.036E-01
   1   16   27     3     6    2.4835E+05 -2.8932E+03   2.5124E+05  0.000E+00  0.000E+00  0.000E+00  3.33190E+01  2.079E-01  2.000E+01  2.000E+04 -1.447E-01
   1   17   28     3     7    2.5124E+05 -3.6891E+03   2.5493E+05  0.000E+00  0.000E+00  0.000E+00  3.24318E+01  2.095E-01  2.000E+01  2.000E+04 -1.845E-01
   1   18   29     3     8    2.5493E+05 -5.3593E+03   2.6029E+05  0.000E+00  0.000E+00  0.000E+00  3.15451E+01  2.118E-01  2.000E+01  2.000E+04 -2.680E-01
   1   18   30     3     9    2.6029E+05 -4.5680E+03   2.6486E+05  0.000E+00  0.000E+00  0.000E+00  3.06587E+01  2.142E-01  2.000E+01  2.000E+04 -2.284E-01



1
              HEAD IN LAYER   1 AT END OF TIME STEP   1 IN STRESS PERIOD    7
  ---------------------------------------------------------------------------

          1      2      3      4      5      6      7      8      9     10
         11     12     13     14     15     16     17     18     19     20
         21     22     23     24     25     26     27     28     29     30
 .........................................................................
   1  ****** ****** ****** ****** ****** ****** ****** ****** ****** ******
      ****** ****** ****** ****** ****** ****** ****** ****** ****** ******
      ****** ****** ****** ****** ****** ****** ****** ****** ****** ******
   2  ****** ****** ****** ****** ****** ****** ****** ****** ****** ******
      ****** ****** ****** ****** ****** ****** ****** ****** ****** ******
      ****** ****** ****** ****** ****** ****** ****** ****** ****** ******
   3  ****** ****** ****** ****** ****** ****** ****** ****** ****** ******
      ****** ****** ****** ****** ****** ****** ****** ****** ****** ******
      ****** ****** ****** ****** ****** ****** ****** ****** ****** ******
   4  ****** ****** ****** ****** ****** ****** ****** ****** ****** ******
      ****** ****** ****** ****** ****** ****** ****** ****** ****** ******
      ****** ****** ****** ****** ****** ****** ****** ****** ****** ******
   5  ****** ****** ****** ****** ****** ****** ****** ****** ****** ******
      ****** ****** ****** ****** ****** ****** ****** ****** ****** ******
      ****** ****** ****** ****** ****** ****** ****** ****** ****** ******
   6  ****** ****** ****** ****** ****** ****** ****** ****** ****** ******
      ****** ****** ****** ****** ****** ****** ****** ****** ****** ******
      ****** ****** ****** ****** ****** ****** ****** ****** ****** ******
   7  ****** ****** ****** ****** ****** ****** ****** ****** ****** ******
      ****** ****** ****** ****** ****** ****** ****** ****** ****** ******
      ****** ****** ****** ****** ****** ****** ****** ****** ****** ******
   8  ****** ****** ****** ****** ****** ****** ****** ****** ****** ******
      ****** ****** ****** ****** ****** ****** ****** ****** ****** ******
      ****** ****** ****** ****** ****** ****** ****** ****** ****** ******
   9  ****** ****** ****** ****** ****** ****** ****** ****** ****** ******
      ****** ****** ****** ****** ****** ****** ****** ****** ****** ******
      ****** ****** ****** ****** ****** ****** ****** ****** ****** ******
  10  ****** ****** ****** ****** ****** ****** ****** ****** ****** ******
      ****** ****** ****** ****** ****** ****** ****** ****** ****** ******
      ****** ****** ****** ****** ****** ****** ****** ****** ****** ******
  11  ****** ****** ****** ****** ****** ****** ****** ****** ****** ******
      ****** ****** ****** ****** ****** ****** ****** ****** ****** ******
      ****** ****** ****** ****** ****** ****** ****** ****** ****** ******
  12  ****** ****** ****** ****** ****** ****** ****** ****** ****** ******
      ****** ****** ****** ****** ****** ****** ****** ****** ****** ******
      ****** ****** ****** ****** ****** ****** ****** ****** ****** ******
  13  ****** ****** ****** ****** ****** ****** ****** ****** ****** ******
      ****** ****** ****** ****** ****** ****** ****** ****** ****** ******
      ****** ****** ****** ****** ****** ****** ****** ****** ****** ******
  14  ****** ****** ****** ****** ****** ****** ****** ****** ****** ******
      ****** ****** ****** ****** ****** ****** ****** ****** ****** ******
      ****** ****** ****** ****** ****** ****** ****** ****** ****** ******
  15  ****** ****** ****** ****** ****** ****** ****** ****** ****** ******
      ****** ****** ****** ****** ****** ****** ****** ****** ****** ******
      ****** ****** ****** ****** ****** ****** ****** ****** ****** ******
  16  ****** ****** ****** ****** ****** ****** ****** ****** ****** ******
      ****** ****** ****** ****** ****** ****** ****** ****** ****** ******
      ****** ****** ****** ****** ****** ****** ****** ****** ****** ******
  17  ****** ****** ****** ****** ****** ****** ****** ****** ****** ******
      ****** ****** ****** ****** ****** ****** ****** ****** ****** ******
      ****** ****** ****** ****** ****** ****** ****** ****** ****** ******
  18  ****** ****** ****** ****** ****** ****** ****** ****** ****** ******
      ****** ****** ****** ****** ****** ****** ****** ****** ****** ******
      ****** ****** ****** ****** ****** ****** ****** ****** ****** ******
  19  ****** ****** ****** ****** ****** ****** ****** ****** ****** ******
      ****** ****** ****** ****** ****** ****** ****** ****** ****** ******
      ****** ****** ****** ****** ****** ****** ****** ****** ****** ******
  20  ****** ****** ****** ****** ****** ****** ****** ****** ****** ******
      ****** ****** ****** ****** ****** ****** ****** ****** ****** ******
      ****** ****** ****** ****** ****** ****** ****** ****** ****** ******
  21  ****** ****** ****** ****** ****** ****** ****** ****** ****** ******
      ****** ****** ****** ****** ****** ****** ****** ****** ****** ******
      ****** ****** ****** ****** ****** ****** ****** ****** ****** ******
  22  ****** ****** ****** ****** ****** ****** ****** ****** ****** ******
      ****** ****** ****** ****** ****** ****** ****** ****** ****** ******
      ****** ****** ****** ****** ****** ****** ****** ****** ****** ******
  23  ****** ****** ****** ****** ****** ****** ****** ****** ****** ******
      ****** ****** ****** ****** ****** ****** ****** ****** ****** ******
      ****** ****** ****** ****** ****** ****** ****** ****** ****** ******
  24  ****** ****** ****** ****** ****** ****** ****** ****** ****** ******
      ****** ****** ****** ****** ****** ****** ****** ****** ****** ******
      ****** ****** ****** ****** ****** ****** ****** ****** ****** ******
  25  ****** ****** ****** ****** ****** ****** ****** ****** ****** ******
      ****** ****** ****** ****** ****** ****** ****** ****** ****** ******
      ****** ****** ****** ****** ****** ****** ****** ****** ****** ******

 HEAD WILL BE SAVED ON UNIT   51 AT END OF TIME STEP    1, STRESS PERIOD    7
1
  VOLUMETRIC BUDGET FOR ENTIRE MODEL AT END OF TIME STEP    1, STRESS PERIOD   7
  ------------------------------------------------------------------------------

     CUMULATIVE VOLUMES      L**3       RATES FOR THIS TIME STEP      L**3/T
     ------------------                 ------------------------

           IN:                                      IN:
           ---                                      ---
             STORAGE =    22552338.9488               STORAGE =       12572.1336
       CONSTANT HEAD =    77997851.8559         CONSTANT HEAD =      137391.0902
               WELLS =           0.0000                 WELLS =           0.0000
            RECHARGE =    15097200.0000              RECHARGE =           0.0000
      STREAM LEAKAGE =     4112181.1963        STREAM LEAKAGE =        6866.5094

            TOTAL IN =   119759572.0010              TOTAL IN =      156829.7331

          OUT:                                     OUT:
          ----                                     ----
             STORAGE =      952044.6270               STORAGE =          11.3498
       CONSTANT HEAD =           0.0000         CONSTANT HEAD =           0.0000
               WELLS =    21356868.4879                 WELLS =       35094.5747
            RECHARGE =           0.0000              RECHARGE =           0.0000
      STREAM LEAKAGE =    97450659.6465        STREAM LEAKAGE =      121723.8106

           TOTAL OUT =   119759572.7614             TOTAL OUT =      156829.7350

            IN - OUT =          -0.7604              IN - OUT =      -1.9335E-03

 PERCENT DISCREPANCY =          -0.00     PERCENT DISCREPANCY =          -0.00






         TIME SUMMARY AT END OF TIME STEP    1 IN STRESS PERIOD    7
                    SECONDS     MINUTES      HOURS       DAYS        YEARS
                    -----------------------------------------------------------
   TIME STEP LENGTH 7.86240E+06 1.31040E+05  2184.0      91.000     0.24914    
 STRESS PERIOD TIME 7.86240E+06 1.31040E+05  2184.0      91.000     0.24914    
         TOTAL TIME 5.52096E+07 9.20160E+05  15336.      639.00      1.7495    
1
1
                            STRESS PERIOD NO.    8, LENGTH =   91.00000    
                            -----------------------------------------------

                              NUMBER OF TIME STEPS =     1

                               MULTIPLIER FOR DELT =     1.500

                            INITIAL TIME STEP SIZE =   91.00000    

 WELL NO.  LAYER   ROW   COL   STRESS RATE         
 --------------------------------------------------
      1      1     23     10     -0.1039E+05
      2      1     17      3      -9136.    
      3      1     23     22     -0.1557E+05

      3 WELLS

                 RECHARGE =  1.000000E-03

 REUSING STREAM SEGMENT DATA FROM LAST STRESS PERIOD
 
 SOLVING FOR HEAD 


     6 CALLS TO PCG ROUTINE FOR TIME STEP   1 IN STRESS PERIOD    8
    23 TOTAL ITERATIONS

 OUTPUT CONTROL FOR STRESS PERIOD    8   TIME STEP    1
    SAVE BUDGET
    SAVE HEAD FOR ALL LAYERS
    PRINT HEAD FOR ALL LAYERS
 UBDSV2 SAVING "STREAMFLOW OUT  " ON UNIT  50 AT TIME STEP  1, STRESS PERIOD   8



 STREAM LISTING     PERIOD      8   STEP        1

 LAYER ROW COL. STREAM  RCH.  FLOW INTO     FLOW TO   FLOW OUT OF   OVRLND.     DIRECT     STREAM       STREAM     STREAM     STREAM   STREAMBED  STREAMBED
                SEG.NO.  NO.  STRM. RCH.    AQUIFER    STRM. RCH.    RUNOFF     PRECIP       ET          HEAD       DEPTH      WIDTH   CONDCTNC.   GRADIENT

   1   13    1     1     1    1.0000E+05 -2.3316E+03   1.0233E+05  0.000E+00  0.000E+00  0.000E+00  4.84070E+01  1.457E-01  2.000E+01  2.000E+04 -1.166E-01
   1   13    2     1     2    1.0233E+05 -4.3615E+03   1.0669E+05  0.000E+00  0.000E+00  0.000E+00  4.79326E+01  1.485E-01  2.000E+01  2.000E+04 -2.181E-01
   1   14    3     1     3    1.0669E+05 -2.6253E+03   1.0932E+05  0.000E+00  0.000E+00  0.000E+00  4.74583E+01  1.515E-01  2.000E+01  2.000E+04 -1.313E-01
   1   15    4     1     4    1.0932E+05 -1.8411E+03   1.1116E+05  0.000E+00  0.000E+00  0.000E+00  4.69829E+01  1.534E-01  2.000E+01  2.000E+04 -9.206E-02
   1   16    5     1     5    1.1116E+05 -1.9688E+03   1.1313E+05  0.000E+00  0.000E+00  0.000E+00  4.65072E+01  1.549E-01  2.000E+01  2.000E+04 -9.844E-02
   1   16    6     1     6    1.1313E+05 -2.5818E+03   1.1571E+05  0.000E+00  0.000E+00  0.000E+00  4.60318E+01  1.568E-01  2.000E+01  2.000E+04 -1.291E-01
   1   16    7     1     7    1.1571E+05 -2.8706E+03   1.1858E+05  0.000E+00  0.000E+00  0.000E+00  4.55568E+01  1.591E-01  2.000E+01  2.000E+04 -1.435E-01
   1   16    8     1     8    1.1858E+05 -3.0006E+03   1.2158E+05  0.000E+00  0.000E+00  0.000E+00  4.50819E+01  1.614E-01  2.000E+01  2.000E+04 -1.500E-01
   1   16    9     1     9    1.2158E+05 -3.0454E+03   1.2463E+05  0.000E+00  0.000E+00  0.000E+00  4.46070E+01  1.639E-01  2.000E+01  2.000E+04 -1.523E-01
   1   16   10     1    10    1.2463E+05 -3.0389E+03   1.2767E+05  0.000E+00  0.000E+00  0.000E+00  4.41322E+01  1.663E-01  2.000E+01  2.000E+04 -1.519E-01
   1   16   11     1    11    1.2767E+05 -3.0170E+03   1.3068E+05  0.000E+00  0.000E+00  0.000E+00  4.36573E+01  1.687E-01  2.000E+01  2.000E+04 -1.508E-01
   1   16   12     1    12    1.3068E+05 -3.9870E+03   1.3467E+05  0.000E+00  0.000E+00  0.000E+00  4.31828E+01  1.714E-01  2.000E+01  2.000E+04 -1.994E-01
   1   15   13     1    13    1.3467E+05 -3.8523E+03   1.3852E+05  0.000E+00  0.000E+00  0.000E+00  4.27085E+01  1.744E-01  2.000E+01  2.000E+04 -1.926E-01
   1   14   14     1    14    1.3852E+05 -3.9769E+03   1.4250E+05  0.000E+00  0.000E+00  0.000E+00  4.22342E+01  1.774E-01  2.000E+01  2.000E+04 -1.988E-01
   1   13   15     1    15    1.4250E+05 -4.2991E+03   1.4680E+05  0.000E+00  0.000E+00  0.000E+00  4.17601E+01  1.805E-01  2.000E+01  2.000E+04 -2.150E-01
   1   12   16     1    16    1.4680E+05 -5.4873E+03   1.5229E+05  0.000E+00  0.000E+00  0.000E+00  4.12864E+01  1.842E-01  2.000E+01  2.000E+04 -2.744E-01
   1   12   17     1    17    1.5229E+05 -3.6196E+03   1.5590E+05  0.000E+00  0.000E+00  0.000E+00  4.08125E+01  1.875E-01  2.000E+01  2.000E+04 -1.810E-01
   1   12   18     1    18    1.5590E+05 -3.4851E+03   1.5939E+05  0.000E+00  0.000E+00  0.000E+00  4.03378E+01  1.901E-01  2.000E+01  2.000E+04 -1.743E-01
   1   12   19     1    19    1.5939E+05 -4.5525E+03   1.6394E+05  0.000E+00  0.000E+00  0.000E+00  3.98634E+01  1.930E-01  2.000E+01  2.000E+04 -2.276E-01
   1   13   20     1    20    1.6394E+05 -3.0133E+03   1.6696E+05  0.000E+00  0.000E+00  0.000E+00  3.93889E+01  1.957E-01  2.000E+01  2.000E+04 -1.507E-01
   1   14   21     1    21    1.6696E+05 -2.1886E+03   1.6914E+05  0.000E+00  0.000E+00  0.000E+00  3.89134E+01  1.975E-01  2.000E+01  2.000E+04 -1.094E-01
   1   14   22     1    22    1.6914E+05  5.0113E+03   1.6413E+05  0.000E+00  0.000E+00  0.000E+00  3.84351E+01  1.965E-01  2.000E+01  2.000E+04  2.506E-01
   1    9   30     2     1    5.0000E+04 -2.7819E+03   5.2782E+04  0.000E+00  0.000E+00  0.000E+00  4.02428E+01  1.178E-01  2.000E+01  2.000E+04 -1.391E-01
   1    9   29     2     2    5.2782E+04 -3.1137E+03   5.5896E+04  0.000E+00  0.000E+00  0.000E+00  3.99968E+01  1.218E-01  2.000E+01  2.000E+04 -1.557E-01
   1    9   28     2     3    5.5896E+04 -3.4941E+03   5.9390E+04  0.000E+00  0.000E+00  0.000E+00  3.97512E+01  1.262E-01  2.000E+01  2.000E+04 -1.747E-01
   1    9   27     2     4    5.9390E+04 -6.2213E+03   6.5611E+04  0.000E+00  0.000E+00  0.000E+00  3.95075E+01  1.325E-01  2.000E+01  2.000E+04 -3.111E-01
   1   10   26     2     5    6.5611E+04 -3.8551E+03   6.9466E+04  0.000E+00  0.000E+00  0.000E+00  3.92638E+01  1.388E-01  2.000E+01  2.000E+04 -1.928E-01
   1   11   25     2     6    6.9466E+04 -2.8123E+03   7.2278E+04  0.000E+00  0.000E+00  0.000E+00  3.90178E+01  1.428E-01  2.000E+01  2.000E+04 -1.406E-01
   1   12   24     2     7    7.2278E+04 -1.9696E+03   7.4248E+04  0.000E+00  0.000E+00  0.000E+00  3.87707E+01  1.457E-01  2.000E+01  2.000E+04 -9.848E-02
   1   13   23     2     8    7.4248E+04 -1.1552E+03   7.5403E+04  0.000E+00  0.000E+00  0.000E+00  3.85226E+01  1.476E-01  2.000E+01  2.000E+04 -5.776E-02
   1   14   22     2     9    7.5403E+04  1.7527E+03   7.3650E+04  0.000E+00  0.000E+00  0.000E+00  3.82722E+01  1.472E-01  2.000E+01  2.000E+04  8.763E-02
   1   14   22     3     1    2.3778E+05 -8.5006E+03   2.4628E+05  0.000E+00  0.000E+00  0.000E+00  3.77596E+01  2.040E-01  2.000E+01  2.000E+04 -4.250E-01
   1   15   23     3     2    2.4628E+05 -2.7418E+03   2.4903E+05  0.000E+00  0.000E+00  0.000E+00  3.68735E+01  2.068E-01  2.000E+01  2.000E+04 -1.371E-01
   1   15   24     3     3    2.4903E+05 -1.9228E+03   2.5095E+05  0.000E+00  0.000E+00  0.000E+00  3.59858E+01  2.080E-01  2.000E+01  2.000E+04 -9.614E-02
   1   15   25     3     4    2.5095E+05 -1.8443E+03   2.5279E+05  0.000E+00  0.000E+00  0.000E+00  3.50978E+01  2.089E-01  2.000E+01  2.000E+04 -9.221E-02
   1   15   26     3     5    2.5279E+05 -2.2590E+03   2.5505E+05  0.000E+00  0.000E+00  0.000E+00  3.42100E+01  2.100E-01  2.000E+01  2.000E+04 -1.129E-01
   1   16   27     3     6    2.5505E+05 -3.1089E+03   2.5816E+05  0.000E+00  0.000E+00  0.000E+00  3.33224E+01  2.113E-01  2.000E+01  2.000E+04 -1.554E-01
   1   17   28     3     7    2.5816E+05 -3.9048E+03   2.6207E+05  0.000E+00  0.000E+00  0.000E+00  3.24352E+01  2.130E-01  2.000E+01  2.000E+04 -1.952E-01
   1   18   29     3     8    2.6207E+05 -5.5519E+03   2.6762E+05  0.000E+00  0.000E+00  0.000E+00  3.15487E+01  2.153E-01  2.000E+01  2.000E+04 -2.776E-01
   1   18   30     3     9    2.6762E+05 -4.7274E+03   2.7234E+05  0.000E+00  0.000E+00  0.000E+00  3.06623E+01  2.178E-01  2.000E+01  2.000E+04 -2.364E-01



1
              HEAD IN LAYER   1 AT END OF TIME STEP   1 IN STRESS PERIOD    8
  ---------------------------------------------------------------------------

          1      2      3      4      5      6      7      8      9     10
         11     12     13     14     15     16     17     18     19     20
         21     22     23     24     25     26     27     28     29     30
 .........................................................................
   1  ****** ****** ****** ****** ****** ****** ****** ****** ****** ******
      ****** ****** ****** ****** ****** ****** ****** ****** ****** ******
      ****** ****** ****** ****** ****** ****** ****** ****** ****** ******
   2  ****** ****** ****** ****** ****** ****** ****** ****** ****** ******
      ****** ****** ****** ****** ****** ****** ****** ****** ****** ******
      ****** ****** ****** ****** ****** ****** ****** ****** ****** ******
   3  ****** ****** ****** ****** ****** ****** ****** ****** ****** ******
      ****** ****** ****** ****** ****** ****** ****** ****** ****** ******
      ****** ****** ****** ****** ****** ****** ****** ****** ****** ******
   4  ****** ****** ****** ****** ****** ****** ****** ****** ****** ******
      ****** ****** ****** ****** ****** ****** ****** ****** ****** ******
      ****** ****** ****** ****** ****** ****** ****** ****** ****** ******
   5  ****** ****** ****** ****** ****** ****** ****** ****** ****** ******
      ****** ****** ****** ****** ****** ****** ****** ****** ****** ******
      ****** ****** ****** ****** ****** ****** ****** ****** ****** ******
   6  ****** ****** ****** ****** ****** ****** ****** ****** ****** ******
      ****** ****** ****** ****** ****** ****** ****** ****** ****** ******
      ****** ****** ****** ****** ****** ****** ****** ****** ****** ******
   7  ****** ****** ****** ****** ****** ****** ****** ****** ****** ******
      ****** ****** ****** ****** ****** ****** ****** ****** ****** ******
      ****** ****** ****** ****** ****** ****** ****** ****** ****** ******
   8  ****** ****** ****** ****** ****** ****** ****** ****** ****** ******
      ****** ****** ****** ****** ****** ****** ****** ****** ****** ******
      ****** ****** ****** ****** ****** ****** ****** ****** ****** ******
   9  ****** ****** ****** ****** ****** ****** ****** ****** ****** ******
      ****** ****** ****** ****** ****** ****** ****** ****** ****** ******
      ****** ****** ****** ****** ****** ****** ****** ****** ****** ******
  10  ****** ****** ****** ****** ****** ****** ****** ****** ****** ******
      ****** ****** ****** ****** ****** ****** ****** ****** ****** ******
      ****** ****** ****** ****** ****** ****** ****** ****** ****** ******
  11  ****** ****** ****** ****** ****** ****** ****** ****** ****** ******
      ****** ****** ****** ****** ****** ****** ****** ****** ****** ******
      ****** ****** ****** ****** ****** ****** ****** ****** ****** ******
  12  ****** ****** ****** ****** ****** ****** ****** ****** ****** ******
      ****** ****** ****** ****** ****** ****** ****** ****** ****** ******
      ****** ****** ****** ****** ****** ****** ****** ****** ****** ******
  13  ****** ****** ****** ****** ****** ****** ****** ****** ****** ******
      ****** ****** ****** ****** ****** ****** ****** ****** ****** ******
      ****** ****** ****** ****** ****** ****** ****** ****** ****** ******
  14  ****** ****** ****** ****** ****** ****** ****** ****** ****** ******
      ****** ****** ****** ****** ****** ****** ****** ****** ****** ******
      ****** ****** ****** ****** ****** ****** ****** ****** ****** ******
  15  ****** ****** ****** ****** ****** ****** ****** ****** ****** ******
      ****** ****** ****** ****** ****** ****** ****** ****** ****** ******
      ****** ****** ****** ****** ****** ****** ****** ****** ****** ******
  16  ****** ****** ****** ****** ****** ****** ****** ****** ****** ******
      ****** ****** ****** ****** ****** ****** ****** ****** ****** ******
      ****** ****** ****** ****** ****** ****** ****** ****** ****** ******
  17  ****** ****** ****** ****** ****** ****** ****** ****** ****** ******
      ****** ****** ****** ****** ****** ****** ****** ****** ****** ******
      ****** ****** ****** ****** ****** ****** ****** ****** ****** ******
  18  ****** ****** ****** ****** ****** ****** ****** ****** ****** ******
      ****** ****** ****** ****** ****** ****** ****** ****** ****** ******
      ****** ****** ****** ****** ****** ****** ****** ****** ****** ******
  19  ****** ****** ****** ****** ****** ****** ****** ****** ****** ******
      ****** ****** ****** ****** ****** ****** ****** ****** ****** ******
      ****** ****** ****** ****** ****** ****** ****** ****** ****** ******
  20  ****** ****** ****** ****** ****** ****** ****** ****** ****** ******
      ****** ****** ****** ****** ****** ****** ****** ****** ****** ******
      ****** ****** ****** ****** ****** ****** ****** ****** ****** ******
  21  ****** ****** ****** ****** ****** ****** ****** ****** ****** ******
      ****** ****** ****** ****** ****** ****** ****** ****** ****** ******
      ****** ****** ****** ****** ****** ****** ****** ****** ****** ******
  22  ****** ****** ****** ****** ****** ****** ****** ****** ****** ******
      ****** ****** ****** ****** ****** ****** ****** ****** ****** ******
      ****** ****** ****** ****** ****** ****** ****** ****** ****** ******
  23  ****** ****** ****** ****** ****** ****** ****** ****** ****** ******
      ****** ****** ****** ****** ****** ****** ****** ****** ****** ******
      ****** ****** ****** ****** ****** ****** ****** ****** ****** ******
  24  ****** ****** ****** ****** ****** ****** ****** ****** ****** ******
      ****** ****** ****** ****** ****** ****** ****** ****** ****** ******
      ****** ****** ****** ****** ****** ****** ****** ****** ****** ******
  25  ****** ****** ****** ****** ****** ****** ****** ****** ****** ******
      ****** ****** ****** ****** ****** ****** ****** ****** ****** ******
      ****** ****** ****** ****** ****** ****** ****** ****** ****** ******

 HEAD WILL BE SAVED ON UNIT   51 AT END OF TIME STEP    1, STRESS PERIOD    8
1
  VOLUMETRIC BUDGET FOR ENTIRE MODEL AT END OF TIME STEP    1, STRESS PERIOD   8
  ------------------------------------------------------------------------------

     CUMULATIVE VOLUMES      L**3       RATES FOR THIS TIME STEP      L**3/T
     ------------------                 ------------------------

           IN:                                      IN:
           ---                                      ---
             STORAGE =    22552338.9488               STORAGE =           0.0000
       CONSTANT HEAD =    90131409.1406         CONSTANT HEAD =      133335.7943
               WELLS =           0.0000                 WELLS =           0.0000
            RECHARGE =    17608800.0000              RECHARGE =       27600.0000
      STREAM LEAKAGE =     4727698.1979        STREAM LEAKAGE =        6763.9231

            TOTAL IN =   135020246.2873              TOTAL IN =      167699.7174

          OUT:                                     OUT:
          ----                                     ----
             STORAGE =     1270202.8854               STORAGE =        3496.2446
       CONSTANT HEAD =           0.0000         CONSTANT HEAD =           0.0000
               WELLS =    24550474.7840                 WELLS =       35094.5747
            RECHARGE =           0.0000              RECHARGE =           0.0000
      STREAM LEAKAGE =   109199569.2975        STREAM LEAKAGE =      129108.8973

           TOTAL OUT =   135020246.9669             TOTAL OUT =      167699.7165

            IN - OUT =          -0.6796              IN - OUT =       8.8794E-04

 PERCENT DISCREPANCY =          -0.00     PERCENT DISCREPANCY =           0.00






         TIME SUMMARY AT END OF TIME STEP    1 IN STRESS PERIOD    8
                    SECONDS     MINUTES      HOURS       DAYS        YEARS
                    -----------------------------------------------------------
   TIME STEP LENGTH 7.86240E+06 1.31040E+05  2184.0      91.000     0.24914    
 STRESS PERIOD TIME 7.86240E+06 1.31040E+05  2184.0      91.000     0.24914    
         TOTAL TIME 6.30720E+07 1.05120E+06  17520.      730.00      1.9986    
1
1
                            STRESS PERIOD NO.    9, LENGTH =   92.00000    
                            -----------------------------------------------

                              NUMBER OF TIME STEPS =     1

                               MULTIPLIER FOR DELT =     1.500

                            INITIAL TIME STEP SIZE =   92.00000    

 WELL NO.  LAYER   ROW   COL   STRESS RATE         
 --------------------------------------------------
      1      1     23     10     -0.1039E+05
      2      1     17      3      -9136.    
      3      1     23     22     -0.1557E+05

      3 WELLS

                 RECHARGE =  5.000000E-04

 REUSING STREAM SEGMENT DATA FROM LAST STRESS PERIOD
 
 SOLVING FOR HEAD 


     6 CALLS TO PCG ROUTINE FOR TIME STEP   1 IN STRESS PERIOD    9
    22 TOTAL ITERATIONS

 OUTPUT CONTROL FOR STRESS PERIOD    9   TIME STEP    1
    SAVE BUDGET
    SAVE HEAD FOR ALL LAYERS
    PRINT HEAD FOR ALL LAYERS
 UBDSV2 SAVING "STREAMFLOW OUT  " ON UNIT  50 AT TIME STEP  1, STRESS PERIOD   9



 STREAM LISTING     PERIOD      9   STEP        1

 LAYER ROW COL. STREAM  RCH.  FLOW INTO     FLOW TO   FLOW OUT OF   OVRLND.     DIRECT     STREAM       STREAM     STREAM     STREAM   STREAMBED  STREAMBED
                SEG.NO.  NO.  STRM. RCH.    AQUIFER    STRM. RCH.    RUNOFF     PRECIP       ET          HEAD       DEPTH      WIDTH   CONDCTNC.   GRADIENT

   1   13    1     1     1    1.0000E+05 -2.2193E+03   1.0222E+05  0.000E+00  0.000E+00  0.000E+00  4.84070E+01  1.456E-01  2.000E+01  2.000E+04 -1.110E-01
   1   13    2     1     2    1.0222E+05 -4.2119E+03   1.0643E+05  0.000E+00  0.000E+00  0.000E+00  4.79325E+01  1.484E-01  2.000E+01  2.000E+04 -2.106E-01
   1   14    3     1     3    1.0643E+05 -2.4767E+03   1.0891E+05  0.000E+00  0.000E+00  0.000E+00  4.74580E+01  1.512E-01  2.000E+01  2.000E+04 -1.238E-01
   1   15    4     1     4    1.0891E+05 -1.6967E+03   1.1060E+05  0.000E+00  0.000E+00  0.000E+00  4.69825E+01  1.530E-01  2.000E+01  2.000E+04 -8.484E-02
   1   16    5     1     5    1.1060E+05 -1.8406E+03   1.1245E+05  0.000E+00  0.000E+00  0.000E+00  4.65067E+01  1.544E-01  2.000E+01  2.000E+04 -9.203E-02
   1   16    6     1     6    1.1245E+05 -2.4758E+03   1.1492E+05  0.000E+00  0.000E+00  0.000E+00  4.60312E+01  1.562E-01  2.000E+01  2.000E+04 -1.238E-01
   1   16    7     1     7    1.1492E+05 -2.7617E+03   1.1768E+05  0.000E+00  0.000E+00  0.000E+00  4.55561E+01  1.584E-01  2.000E+01  2.000E+04 -1.381E-01
   1   16    8     1     8    1.1768E+05 -2.8900E+03   1.2057E+05  0.000E+00  0.000E+00  0.000E+00  4.50811E+01  1.607E-01  2.000E+01  2.000E+04 -1.445E-01
   1   16    9     1     9    1.2057E+05 -2.9343E+03   1.2351E+05  0.000E+00  0.000E+00  0.000E+00  4.46062E+01  1.630E-01  2.000E+01  2.000E+04 -1.467E-01
   1   16   10     1    10    1.2351E+05 -2.9281E+03   1.2644E+05  0.000E+00  0.000E+00  0.000E+00  4.41313E+01  1.654E-01  2.000E+01  2.000E+04 -1.464E-01
   1   16   11     1    11    1.2644E+05 -2.9071E+03   1.2934E+05  0.000E+00  0.000E+00  0.000E+00  4.36563E+01  1.677E-01  2.000E+01  2.000E+04 -1.454E-01
   1   16   12     1    12    1.2934E+05 -3.8460E+03   1.3319E+05  0.000E+00  0.000E+00  0.000E+00  4.31817E+01  1.703E-01  2.000E+01  2.000E+04 -1.923E-01
   1   15   13     1    13    1.3319E+05 -3.6956E+03   1.3688E+05  0.000E+00  0.000E+00  0.000E+00  4.27073E+01  1.732E-01  2.000E+01  2.000E+04 -1.848E-01
   1   14   14     1    14    1.3688E+05 -3.8165E+03   1.4070E+05  0.000E+00  0.000E+00  0.000E+00  4.22329E+01  1.761E-01  2.000E+01  2.000E+04 -1.908E-01
   1   13   15     1    15    1.4070E+05 -4.1413E+03   1.4484E+05  0.000E+00  0.000E+00  0.000E+00  4.17587E+01  1.791E-01  2.000E+01  2.000E+04 -2.071E-01
   1   12   16     1    16    1.4484E+05 -5.3384E+03   1.5018E+05  0.000E+00  0.000E+00  0.000E+00  4.12849E+01  1.826E-01  2.000E+01  2.000E+04 -2.669E-01
   1   12   17     1    17    1.5018E+05 -3.5075E+03   1.5369E+05  0.000E+00  0.000E+00  0.000E+00  4.08109E+01  1.859E-01  2.000E+01  2.000E+04 -1.754E-01
   1   12   18     1    18    1.5369E+05 -3.3748E+03   1.5706E+05  0.000E+00  0.000E+00  0.000E+00  4.03362E+01  1.884E-01  2.000E+01  2.000E+04 -1.687E-01
   1   12   19     1    19    1.5706E+05 -4.4195E+03   1.6148E+05  0.000E+00  0.000E+00  0.000E+00  3.98617E+01  1.913E-01  2.000E+01  2.000E+04 -2.210E-01
   1   13   20     1    20    1.6148E+05 -2.8797E+03   1.6436E+05  0.000E+00  0.000E+00  0.000E+00  3.93871E+01  1.939E-01  2.000E+01  2.000E+04 -1.440E-01
   1   14   21     1    21    1.6436E+05 -2.0636E+03   1.6643E+05  0.000E+00  0.000E+00  0.000E+00  3.89115E+01  1.956E-01  2.000E+01  2.000E+04 -1.032E-01
   1   14   22     1    22    1.6643E+05  5.0358E+03   1.6139E+05  0.000E+00  0.000E+00  0.000E+00  3.84332E+01  1.946E-01  2.000E+01  2.000E+04  2.518E-01
   1    9   30     2     1    5.0000E+04 -2.6823E+03   5.2682E+04  0.000E+00  0.000E+00  0.000E+00  4.02427E+01  1.177E-01  2.000E+01  2.000E+04 -1.341E-01
   1    9   29     2     2    5.2682E+04 -3.0148E+03   5.5697E+04  0.000E+00  0.000E+00  0.000E+00  3.99966E+01  1.216E-01  2.000E+01  2.000E+04 -1.507E-01
   1    9   28     2     3    5.5697E+04 -3.3958E+03   5.9093E+04  0.000E+00  0.000E+00  0.000E+00  3.97509E+01  1.259E-01  2.000E+01  2.000E+04 -1.698E-01
   1    9   27     2     4    5.9093E+04 -6.0920E+03   6.5185E+04  0.000E+00  0.000E+00  0.000E+00  3.95070E+01  1.320E-01  2.000E+01  2.000E+04 -3.046E-01
   1   10   26     2     5    6.5185E+04 -3.7191E+03   6.8904E+04  0.000E+00  0.000E+00  0.000E+00  3.92632E+01  1.382E-01  2.000E+01  2.000E+04 -1.860E-01
   1   11   25     2     6    6.8904E+04 -2.6809E+03   7.1585E+04  0.000E+00  0.000E+00  0.000E+00  3.90171E+01  1.421E-01  2.000E+01  2.000E+04 -1.340E-01
   1   12   24     2     7    7.1585E+04 -1.8515E+03   7.3436E+04  0.000E+00  0.000E+00  0.000E+00  3.87698E+01  1.448E-01  2.000E+01  2.000E+04 -9.257E-02
   1   13   23     2     8    7.3436E+04 -1.0607E+03   7.4497E+04  0.000E+00  0.000E+00  0.000E+00  3.85216E+01  1.466E-01  2.000E+01  2.000E+04 -5.304E-02
   1   14   22     2     9    7.4497E+04  1.7940E+03   7.2703E+04  0.000E+00  0.000E+00  0.000E+00  3.82711E+01  1.461E-01  2.000E+01  2.000E+04  8.970E-02
   1   14   22     3     1    2.3409E+05 -8.4749E+03   2.4257E+05  0.000E+00  0.000E+00  0.000E+00  3.77577E+01  2.021E-01  2.000E+01  2.000E+04 -4.237E-01
   1   15   23     3     2    2.4257E+05 -2.6222E+03   2.4519E+05  0.000E+00  0.000E+00  0.000E+00  3.68716E+01  2.049E-01  2.000E+01  2.000E+04 -1.311E-01
   1   15   24     3     3    2.4519E+05 -1.8355E+03   2.4702E+05  0.000E+00  0.000E+00  0.000E+00  3.59838E+01  2.061E-01  2.000E+01  2.000E+04 -9.177E-02
   1   15   25     3     4    2.4702E+05 -1.7574E+03   2.4878E+05  0.000E+00  0.000E+00  0.000E+00  3.50958E+01  2.070E-01  2.000E+01  2.000E+04 -8.787E-02
   1   15   26     3     5    2.4878E+05 -2.1506E+03   2.5093E+05  0.000E+00  0.000E+00  0.000E+00  3.42079E+01  2.079E-01  2.000E+01  2.000E+04 -1.075E-01
   1   16   27     3     6    2.5093E+05 -2.9727E+03   2.5391E+05  0.000E+00  0.000E+00  0.000E+00  3.33203E+01  2.092E-01  2.000E+01  2.000E+04 -1.486E-01
   1   17   28     3     7    2.5391E+05 -3.7656E+03   2.5767E+05  0.000E+00  0.000E+00  0.000E+00  3.24331E+01  2.109E-01  2.000E+01  2.000E+04 -1.883E-01
   1   18   29     3     8    2.5767E+05 -5.4209E+03   2.6309E+05  0.000E+00  0.000E+00  0.000E+00  3.15465E+01  2.131E-01  2.000E+01  2.000E+04 -2.710E-01
   1   18   30     3     9    2.6309E+05 -4.6291E+03   2.6772E+05  0.000E+00  0.000E+00  0.000E+00  3.06600E+01  2.156E-01  2.000E+01  2.000E+04 -2.315E-01



1
              HEAD IN LAYER   1 AT END OF TIME STEP   1 IN STRESS PERIOD    9
  ---------------------------------------------------------------------------

          1      2      3      4      5      6      7      8      9     10
         11     12     13     14     15     16     17     18     19     20
         21     22     23     24     25     26     27     28     29     30
 .........................................................................
   1  ****** ****** ****** ****** ****** ****** ****** ****** ****** ******
      ****** ****** ****** ****** ****** ****** ****** ****** ****** ******
      ****** ****** ****** ****** ****** ****** ****** ****** ****** ******
   2  ****** ****** ****** ****** ****** ****** ****** ****** ****** ******
      ****** ****** ****** ****** ****** ****** ****** ****** ****** ******
      ****** ****** ****** ****** ****** ****** ****** ****** ****** ******
   3  ****** ****** ****** ****** ****** ****** ****** ****** ****** ******
      ****** ****** ****** ****** ****** ****** ****** ****** ****** ******
      ****** ****** ****** ****** ****** ****** ****** ****** ****** ******
   4  ****** ****** ****** ****** ****** ****** ****** ****** ****** ******
      ****** ****** ****** ****** ****** ****** ****** ****** ****** ******
      ****** ****** ****** ****** ****** ****** ****** ****** ****** ******
   5  ****** ****** ****** ****** ****** ****** ****** ****** ****** ******
      ****** ****** ****** ****** ****** ****** ****** ****** ****** ******
      ****** ****** ****** ****** ****** ****** ****** ****** ****** ******
   6  ****** ****** ****** ****** ****** ****** ****** ****** ****** ******
      ****** ****** ****** ****** ****** ****** ****** ****** ****** ******
      ****** ****** ****** ****** ****** ****** ****** ****** ****** ******
   7  ****** ****** ****** ****** ****** ****** ****** ****** ****** ******
      ****** ****** ****** ****** ****** ****** ****** ****** ****** ******
      ****** ****** ****** ****** ****** ****** ****** ****** ****** ******
   8  ****** ****** ****** ****** ****** ****** ****** ****** ****** ******
      ****** ****** ****** ****** ****** ****** ****** ****** ****** ******
      ****** ****** ****** ****** ****** ****** ****** ****** ****** ******
   9  ****** ****** ****** ****** ****** ****** ****** ****** ****** ******
      ****** ****** ****** ****** ****** ****** ****** ****** ****** ******
      ****** ****** ****** ****** ****** ****** ****** ****** ****** ******
  10  ****** ****** ****** ****** ****** ****** ****** ****** ****** ******
      ****** ****** ****** ****** ****** ****** ****** ****** ****** ******
      ****** ****** ****** ****** ****** ****** ****** ****** ****** ******
  11  ****** ****** ****** ****** ****** ****** ****** ****** ****** ******
      ****** ****** ****** ****** ****** ****** ****** ****** ****** ******
      ****** ****** ****** ****** ****** ****** ****** ****** ****** ******
  12  ****** ****** ****** ****** ****** ****** ****** ****** ****** ******
      ****** ****** ****** ****** ****** ****** ****** ****** ****** ******
      ****** ****** ****** ****** ****** ****** ****** ****** ****** ******
  13  ****** ****** ****** ****** ****** ****** ****** ****** ****** ******
      ****** ****** ****** ****** ****** ****** ****** ****** ****** ******
      ****** ****** ****** ****** ****** ****** ****** ****** ****** ******
  14  ****** ****** ****** ****** ****** ****** ****** ****** ****** ******
      ****** ****** ****** ****** ****** ****** ****** ****** ****** ******
      ****** ****** ****** ****** ****** ****** ****** ****** ****** ******
  15  ****** ****** ****** ****** ****** ****** ****** ****** ****** ******
      ****** ****** ****** ****** ****** ****** ****** ****** ****** ******
      ****** ****** ****** ****** ****** ****** ****** ****** ****** ******
  16  ****** ****** ****** ****** ****** ****** ****** ****** ****** ******
      ****** ****** ****** ****** ****** ****** ****** ****** ****** ******
      ****** ****** ****** ****** ****** ****** ****** ****** ****** ******
  17  ****** ****** ****** ****** ****** ****** ****** ****** ****** ******
      ****** ****** ****** ****** ****** ****** ****** ****** ****** ******
      ****** ****** ****** ****** ****** ****** ****** ****** ****** ******
  18  ****** ****** ****** ****** ****** ****** ****** ****** ****** ******
      ****** ****** ****** ****** ****** ****** ****** ****** ****** ******
      ****** ****** ****** ****** ****** ****** ****** ****** ****** ******
  19  ****** ****** ****** ****** ****** ****** ****** ****** ****** ******
      ****** ****** ****** ****** ****** ****** ****** ****** ****** ******
      ****** ****** ****** ****** ****** ****** ****** ****** ****** ******
  20  ****** ****** ****** ****** ****** ****** ****** ****** ****** ******
      ****** ****** ****** ****** ****** ****** ****** ****** ****** ******
      ****** ****** ****** ****** ****** ****** ****** ****** ****** ******
  21  ****** ****** ****** ****** ****** ****** ****** ****** ****** ******
      ****** ****** ****** ****** ****** ****** ****** ****** ****** ******
      ****** ****** ****** ****** ****** ****** ****** ****** ****** ******
  22  ****** ****** ****** ****** ****** ****** ****** ****** ****** ******
      ****** ****** ****** ****** ****** ****** ****** ****** ****** ******
      ****** ****** ****** ****** ****** ****** ****** ****** ****** ******
  23  ****** ****** ****** ****** ****** ****** ****** ****** ****** ******
      ****** ****** ****** ****** ****** ****** ****** ****** ****** ******
      ****** ****** ****** ****** ****** ****** ****** ****** ****** ******
  24  ****** ****** ****** ****** ****** ****** ****** ****** ****** ******
      ****** ****** ****** ****** ****** ****** ****** ****** ****** ******
      ****** ****** ****** ****** ****** ****** ****** ****** ****** ******
  25  ****** ****** ****** ****** ****** ****** ****** ****** ****** ******
      ****** ****** ****** ****** ****** ****** ****** ****** ****** ******
      ****** ****** ****** ****** ****** ****** ****** ****** ****** ******

 HEAD WILL BE SAVED ON UNIT   51 AT END OF TIME STEP    1, STRESS PERIOD    9
1
  VOLUMETRIC BUDGET FOR ENTIRE MODEL AT END OF TIME STEP    1, STRESS PERIOD   9
  ------------------------------------------------------------------------------

     CUMULATIVE VOLUMES      L**3       RATES FOR THIS TIME STEP      L**3/T
     ------------------                 ------------------------

           IN:                                      IN:
           ---                                      ---
             STORAGE =    22802900.8359               STORAGE =        2723.4988
       CONSTANT HEAD =   102670300.9965         CONSTANT HEAD =      136292.3028
               WELLS =           0.0000                 WELLS =           0.0000
            RECHARGE =    18878400.0000              RECHARGE =       13800.0000
      STREAM LEAKAGE =     5356039.8972        STREAM LEAKAGE =        6829.8011

            TOTAL IN =   149707641.7297              TOTAL IN =      159645.6026

          OUT:                                     OUT:
          ----                                     ----
             STORAGE =     1270202.8854               STORAGE =           0.0000
       CONSTANT HEAD =           0.0000         CONSTANT HEAD =           0.0000
               WELLS =    27779175.6547                 WELLS =       35094.5747
            RECHARGE =           0.0000              RECHARGE =           0.0000
      STREAM LEAKAGE =   120658264.1441        STREAM LEAKAGE =      124551.0309

           TOTAL OUT =   149707642.6842             TOTAL OUT =      159645.6056

            IN - OUT =          -0.9545              IN - OUT =      -2.9881E-03

 PERCENT DISCREPANCY =          -0.00     PERCENT DISCREPANCY =          -0.00






         TIME SUMMARY AT END OF TIME STEP    1 IN STRESS PERIOD    9
                    SECONDS     MINUTES      HOURS       DAYS        YEARS
                    -----------------------------------------------------------
   TIME STEP LENGTH 7.94880E+06 1.32480E+05  2208.0      92.000     0.25188    
 STRESS PERIOD TIME 7.94880E+06 1.32480E+05  2208.0      92.000     0.25188    
         TOTAL TIME 7.10208E+07 1.18368E+06  19728.      822.00      2.2505    
1
1
                            STRESS PERIOD NO.   10, LENGTH =   91.00000    
                            -----------------------------------------------

                              NUMBER OF TIME STEPS =     1

                               MULTIPLIER FOR DELT =     1.500

                            INITIAL TIME STEP SIZE =   91.00000    

 WELL NO.  LAYER   ROW   COL   STRESS RATE         
 --------------------------------------------------
      1      1     23     10     -0.1039E+05
      2      1     17      3      -9136.    
      3      1     23     22     -0.1557E+05

      3 WELLS

                 RECHARGE =  2.000000E-03

 REUSING STREAM SEGMENT DATA FROM LAST STRESS PERIOD
 
 SOLVING FOR HEAD 


     7 CALLS TO PCG ROUTINE FOR TIME STEP   1 IN STRESS PERIOD   10
    26 TOTAL ITERATIONS

 OUTPUT CONTROL FOR STRESS PERIOD   10   TIME STEP    1
    SAVE BUDGET
    SAVE HEAD FOR ALL LAYERS
    PRINT HEAD FOR ALL LAYERS
 UBDSV2 SAVING "STREAMFLOW OUT  " ON UNIT  50 AT TIME STEP  1, STRESS PERIOD  10



 STREAM LISTING     PERIOD     10   STEP        1

 LAYER ROW COL. STREAM  RCH.  FLOW INTO     FLOW TO   FLOW OUT OF   OVRLND.     DIRECT     STREAM       STREAM     STREAM     STREAM   STREAMBED  STREAMBED
                SEG.NO.  NO.  STRM. RCH.    AQUIFER    STRM. RCH.    RUNOFF     PRECIP       ET          HEAD       DEPTH      WIDTH   CONDCTNC.   GRADIENT

   1   13    1     1     1    1.0000E+05 -2.6432E+03   1.0264E+05  0.000E+00  0.000E+00  0.000E+00  4.84072E+01  1.458E-01  2.000E+01  2.000E+04 -1.322E-01
   1   13    2     1     2    1.0264E+05 -4.7748E+03   1.0742E+05  0.000E+00  0.000E+00  0.000E+00  4.79331E+01  1.490E-01  2.000E+01  2.000E+04 -2.387E-01
   1   14    3     1     3    1.0742E+05 -3.0448E+03   1.1046E+05  0.000E+00  0.000E+00  0.000E+00  4.74591E+01  1.523E-01  2.000E+01  2.000E+04 -1.522E-01
   1   15    4     1     4    1.1046E+05 -2.2583E+03   1.1272E+05  0.000E+00  0.000E+00  0.000E+00  4.69840E+01  1.545E-01  2.000E+01  2.000E+04 -1.129E-01
   1   16    5     1     5    1.1272E+05 -2.3581E+03   1.1508E+05  0.000E+00  0.000E+00  0.000E+00  4.65087E+01  1.564E-01  2.000E+01  2.000E+04 -1.179E-01
   1   16    6     1     6    1.1508E+05 -2.8844E+03   1.1796E+05  0.000E+00  0.000E+00  0.000E+00  4.60336E+01  1.586E-01  2.000E+01  2.000E+04 -1.442E-01
   1   16    7     1     7    1.1796E+05 -3.1768E+03   1.2114E+05  0.000E+00  0.000E+00  0.000E+00  4.55587E+01  1.610E-01  2.000E+01  2.000E+04 -1.588E-01
   1   16    8     1     8    1.2114E+05 -3.3087E+03   1.2445E+05  0.000E+00  0.000E+00  0.000E+00  4.50841E+01  1.636E-01  2.000E+01  2.000E+04 -1.654E-01
   1   16    9     1     9    1.2445E+05 -3.3527E+03   1.2780E+05  0.000E+00  0.000E+00  0.000E+00  4.46094E+01  1.663E-01  2.000E+01  2.000E+04 -1.676E-01
   1   16   10     1    10    1.2780E+05 -3.3424E+03   1.3114E+05  0.000E+00  0.000E+00  0.000E+00  4.41348E+01  1.689E-01  2.000E+01  2.000E+04 -1.671E-01
   1   16   11     1    11    1.3114E+05 -3.3153E+03   1.3446E+05  0.000E+00  0.000E+00  0.000E+00  4.36601E+01  1.715E-01  2.000E+01  2.000E+04 -1.658E-01
   1   16   12     1    12    1.3446E+05 -4.3699E+03   1.3883E+05  0.000E+00  0.000E+00  0.000E+00  4.31858E+01  1.745E-01  2.000E+01  2.000E+04 -2.185E-01
   1   15   13     1    13    1.3883E+05 -4.2665E+03   1.4310E+05  0.000E+00  0.000E+00  0.000E+00  4.27118E+01  1.777E-01  2.000E+01  2.000E+04 -2.133E-01
   1   14   14     1    14    1.4310E+05 -4.3989E+03   1.4749E+05  0.000E+00  0.000E+00  0.000E+00  4.22378E+01  1.810E-01  2.000E+01  2.000E+04 -2.199E-01
   1   13   15     1    15    1.4749E+05 -4.7150E+03   1.5221E+05  0.000E+00  0.000E+00  0.000E+00  4.17639E+01  1.844E-01  2.000E+01  2.000E+04 -2.358E-01
   1   12   16     1    16    1.5221E+05 -5.8903E+03   1.5810E+05  0.000E+00  0.000E+00  0.000E+00  4.12905E+01  1.883E-01  2.000E+01  2.000E+04 -2.945E-01
   1   12   17     1    17    1.5810E+05 -3.9153E+03   1.6202E+05  0.000E+00  0.000E+00  0.000E+00  4.08168E+01  1.918E-01  2.000E+01  2.000E+04 -1.958E-01
   1   12   18     1    18    1.6202E+05 -3.7747E+03   1.6579E+05  0.000E+00  0.000E+00  0.000E+00  4.03423E+01  1.946E-01  2.000E+01  2.000E+04 -1.887E-01
   1   12   19     1    19    1.6579E+05 -4.9066E+03   1.7070E+05  0.000E+00  0.000E+00  0.000E+00  3.98681E+01  1.976E-01  2.000E+01  2.000E+04 -2.453E-01
   1   13   20     1    20    1.7070E+05 -3.3512E+03   1.7405E+05  0.000E+00  0.000E+00  0.000E+00  3.93937E+01  2.005E-01  2.000E+01  2.000E+04 -1.676E-01
   1   14   21     1    21    1.7405E+05 -2.4967E+03   1.7654E+05  0.000E+00  0.000E+00  0.000E+00  3.89185E+01  2.026E-01  2.000E+01  2.000E+04 -1.248E-01
   1   14   22     1    22    1.7654E+05  4.9559E+03   1.7159E+05  0.000E+00  0.000E+00  0.000E+00  3.84404E+01  2.017E-01  2.000E+01  2.000E+04  2.478E-01
   1    9   30     2     1    5.0000E+04 -3.0436E+03   5.3044E+04  0.000E+00  0.000E+00  0.000E+00  4.02430E+01  1.180E-01  2.000E+01  2.000E+04 -1.522E-01
   1    9   29     2     2    5.3044E+04 -3.3734E+03   5.6417E+04  0.000E+00  0.000E+00  0.000E+00  3.99973E+01  1.223E-01  2.000E+01  2.000E+04 -1.687E-01
   1    9   28     2     3    5.6417E+04 -3.7528E+03   6.0170E+04  0.000E+00  0.000E+00  0.000E+00  3.97520E+01  1.270E-01  2.000E+01  2.000E+04 -1.876E-01
   1    9   27     2     4    6.0170E+04 -6.5716E+03   6.6741E+04  0.000E+00  0.000E+00  0.000E+00  3.95087E+01  1.337E-01  2.000E+01  2.000E+04 -3.286E-01
   1   10   26     2     5    6.6741E+04 -4.2144E+03   7.0956E+04  0.000E+00  0.000E+00  0.000E+00  3.92654E+01  1.404E-01  2.000E+01  2.000E+04 -2.107E-01
   1   11   25     2     6    7.0956E+04 -3.1549E+03   7.4111E+04  0.000E+00  0.000E+00  0.000E+00  3.90198E+01  1.448E-01  2.000E+01  2.000E+04 -1.577E-01
   1   12   24     2     7    7.4111E+04 -2.2703E+03   7.6381E+04  0.000E+00  0.000E+00  0.000E+00  3.87731E+01  1.481E-01  2.000E+01  2.000E+04 -1.135E-01
   1   13   23     2     8    7.6381E+04 -1.3869E+03   7.7768E+04  0.000E+00  0.000E+00  0.000E+00  3.85252E+01  1.502E-01  2.000E+01  2.000E+04 -6.935E-02
   1   14   22     2     9    7.7768E+04  1.6500E+03   7.6118E+04  0.000E+00  0.000E+00  0.000E+00  3.82751E+01  1.501E-01  2.000E+01  2.000E+04  8.250E-02
   1   14   22     3     1    2.4771E+05 -8.5604E+03   2.5627E+05  0.000E+00  0.000E+00  0.000E+00  3.77645E+01  2.090E-01  2.000E+01  2.000E+04 -4.280E-01
   1   15   23     3     2    2.5627E+05 -3.0255E+03   2.5929E+05  0.000E+00  0.000E+00  0.000E+00  3.68785E+01  2.119E-01  2.000E+01  2.000E+04 -1.513E-01
   1   15   24     3     3    2.5929E+05 -2.1260E+03   2.6142E+05  0.000E+00  0.000E+00  0.000E+00  3.59909E+01  2.131E-01  2.000E+01  2.000E+04 -1.063E-01
   1   15   25     3     4    2.6142E+05 -2.0481E+03   2.6347E+05  0.000E+00  0.000E+00  0.000E+00  3.51030E+01  2.142E-01  2.000E+01  2.000E+04 -1.024E-01
   1   15   26     3     5    2.6347E+05 -2.5244E+03   2.6599E+05  0.000E+00  0.000E+00  0.000E+00  3.42153E+01  2.153E-01  2.000E+01  2.000E+04 -1.262E-01
   1   16   27     3     6    2.6599E+05 -3.4426E+03   2.6943E+05  0.000E+00  0.000E+00  0.000E+00  3.33278E+01  2.167E-01  2.000E+01  2.000E+04 -1.721E-01
   1   17   28     3     7    2.6943E+05 -4.2454E+03   2.7368E+05  0.000E+00  0.000E+00  0.000E+00  3.24408E+01  2.186E-01  2.000E+01  2.000E+04 -2.123E-01
   1   18   29     3     8    2.7368E+05 -5.8715E+03   2.7955E+05  0.000E+00  0.000E+00  0.000E+00  3.15544E+01  2.210E-01  2.000E+01  2.000E+04 -2.936E-01
   1   18   30     3     9    2.7955E+05 -4.9684E+03   2.8452E+05  0.000E+00  0.000E+00  0.000E+00  3.06680E+01  2.236E-01  2.000E+01  2.000E+04 -2.484E-01



1
              HEAD IN LAYER   1 AT END OF TIME STEP   1 IN STRESS PERIOD   10
  ---------------------------------------------------------------------------

          1      2      3      4      5      6      7      8      9     10
         11     12     13     14     15     16     17     18     19     20
         21     22     23     24     25     26     27     28     29     30
 .........................................................................
   1  ****** ****** ****** ****** ****** ****** ****** ****** ****** ******
      ****** ****** ****** ****** ****** ****** ****** ****** ****** ******
      ****** ****** ****** ****** ****** ****** ****** ****** ****** ******
   2  ****** ****** ****** ****** ****** ****** ****** ****** ****** ******
      ****** ****** ****** ****** ****** ****** ****** ****** ****** ******
      ****** ****** ****** ****** ****** ****** ****** ****** ****** ******
   3  ****** ****** ****** ****** ****** ****** ****** ****** ****** ******
      ****** ****** ****** ****** ****** ****** ****** ****** ****** ******
      ****** ****** ****** ****** ****** ****** ****** ****** ****** ******
   4  ****** ****** ****** ****** ****** ****** ****** ****** ****** ******
      ****** ****** ****** ****** ****** ****** ****** ****** ****** ******
      ****** ****** ****** ****** ****** ****** ****** ****** ****** ******
   5  ****** ****** ****** ****** ****** ****** ****** ****** ****** ******
      ****** ****** ****** ****** ****** ****** ****** ****** ****** ******
      ****** ****** ****** ****** ****** ****** ****** ****** ****** ******
   6  ****** ****** ****** ****** ****** ****** ****** ****** ****** ******
      ****** ****** ****** ****** ****** ****** ****** ****** ****** ******
      ****** ****** ****** ****** ****** ****** ****** ****** ****** ******
   7  ****** ****** ****** ****** ****** ****** ****** ****** ****** ******
      ****** ****** ****** ****** ****** ****** ****** ****** ****** ******
      ****** ****** ****** ****** ****** ****** ****** ****** ****** ******
   8  ****** ****** ****** ****** ****** ****** ****** ****** ****** ******
      ****** ****** ****** ****** ****** ****** ****** ****** ****** ******
      ****** ****** ****** ****** ****** ****** ****** ****** ****** ******
   9  ****** ****** ****** ****** ****** ****** ****** ****** ****** ******
      ****** ****** ****** ****** ****** ****** ****** ****** ****** ******
      ****** ****** ****** ****** ****** ****** ****** ****** ****** ******
  10  ****** ****** ****** ****** ****** ****** ****** ****** ****** ******
      ****** ****** ****** ****** ****** ****** ****** ****** ****** ******
      ****** ****** ****** ****** ****** ****** ****** ****** ****** ******
  11  ****** ****** ****** ****** ****** ****** ****** ****** ****** ******
      ****** ****** ****** ****** ****** ****** ****** ****** ****** ******
      ****** ****** ****** ****** ****** ****** ****** ****** ****** ******
  12  ****** ****** ****** ****** ****** ****** ****** ****** ****** ******
      ****** ****** ****** ****** ****** ****** ****** ****** ****** ******
      ****** ****** ****** ****** ****** ****** ****** ****** ****** ******
  13  ****** ****** ****** ****** ****** ****** ****** ****** ****** ******
      ****** ****** ****** ****** ****** ****** ****** ****** ****** ******
      ****** ****** ****** ****** ****** ****** ****** ****** ****** ******
  14  ****** ****** ****** ****** ****** ****** ****** ****** ****** ******
      ****** ****** ****** ****** ****** ****** ****** ****** ****** ******
      ****** ****** ****** ****** ****** ****** ****** ****** ****** ******
  15  ****** ****** ****** ****** ****** ****** ****** ****** ****** ******
      ****** ****** ****** ****** ****** ****** ****** ****** ****** ******
      ****** ****** ****** ****** ****** ****** ****** ****** ****** ******
  16  ****** ****** ****** ****** ****** ****** ****** ****** ****** ******
      ****** ****** ****** ****** ****** ****** ****** ****** ****** ******
      ****** ****** ****** ****** ****** ****** ****** ****** ****** ******
  17  ****** ****** ****** ****** ****** ****** ****** ****** ****** ******
      ****** ****** ****** ****** ****** ****** ****** ****** ****** ******
      ****** ****** ****** ****** ****** ****** ****** ****** ****** ******
  18  ****** ****** ****** ****** ****** ****** ****** ****** ****** ******
      ****** ****** ****** ****** ****** ****** ****** ****** ****** ******
      ****** ****** ****** ****** ****** ****** ****** ****** ****** ******
  19  ****** ****** ****** ****** ****** ****** ****** ****** ****** ******
      ****** ****** ****** ****** ****** ****** ****** ****** ****** ******
      ****** ****** ****** ****** ****** ****** ****** ****** ****** ******
  20  ****** ****** ****** ****** ****** ****** ****** ****** ****** ******
      ****** ****** ****** ****** ****** ****** ****** ****** ****** ******
      ****** ****** ****** ****** ****** ****** ****** ****** ****** ******
  21  ****** ****** ****** ****** ****** ****** ****** ****** ****** ******
      ****** ****** ****** ****** ****** ****** ****** ****** ****** ******
      ****** ****** ****** ****** ****** ****** ****** ****** ****** ******
  22  ****** ****** ****** ****** ****** ****** ****** ****** ****** ******
      ****** ****** ****** ****** ****** ****** ****** ****** ****** ******
      ****** ****** ****** ****** ****** ****** ****** ****** ****** ******
  23  ****** ****** ****** ****** ****** ****** ****** ****** ****** ******
      ****** ****** ****** ****** ****** ****** ****** ****** ****** ******
      ****** ****** ****** ****** ****** ****** ****** ****** ****** ******
  24  ****** ****** ****** ****** ****** ****** ****** ****** ****** ******
      ****** ****** ****** ****** ****** ****** ****** ****** ****** ******
      ****** ****** ****** ****** ****** ****** ****** ****** ****** ******
  25  ****** ****** ****** ****** ****** ****** ****** ****** ****** ******
      ****** ****** ****** ****** ****** ****** ****** ****** ****** ******
      ****** ****** ****** ****** ****** ****** ****** ****** ****** ******

 HEAD WILL BE SAVED ON UNIT   51 AT END OF TIME STEP    1, STRESS PERIOD   10
1
  VOLUMETRIC BUDGET FOR ENTIRE MODEL AT END OF TIME STEP    1, STRESS PERIOD  10
  ------------------------------------------------------------------------------

     CUMULATIVE VOLUMES      L**3       RATES FOR THIS TIME STEP      L**3/T
     ------------------                 ------------------------

           IN:                                      IN:
           ---                                      ---
             STORAGE =    22802900.8359               STORAGE =           0.0000
       CONSTANT HEAD =   114059712.6994         CONSTANT HEAD =      125158.3704
               WELLS =           0.0000                 WELLS =           0.0000
            RECHARGE =    23901600.0000              RECHARGE =       55200.0000
      STREAM LEAKAGE =     5957168.5972        STREAM LEAKAGE =        6605.8099

            TOTAL IN =   166721382.1325              TOTAL IN =      186964.1803

          OUT:                                     OUT:
          ----                                     ----
             STORAGE =     2247998.7523               STORAGE =       10745.0095
       CONSTANT HEAD =           0.0000         CONSTANT HEAD =           0.0000
               WELLS =    30972781.9507                 WELLS =       35094.5747
            RECHARGE =           0.0000              RECHARGE =           0.0000
      STREAM LEAKAGE =   133500602.2261        STREAM LEAKAGE =      141124.5943

           TOTAL OUT =   166721382.9291             TOTAL OUT =      186964.1785

            IN - OUT =          -0.7967              IN - OUT =       1.7350E-03

 PERCENT DISCREPANCY =          -0.00     PERCENT DISCREPANCY =           0.00






         TIME SUMMARY AT END OF TIME STEP    1 IN STRESS PERIOD   10
                    SECONDS     MINUTES      HOURS       DAYS        YEARS
                    -----------------------------------------------------------
   TIME STEP LENGTH 7.86240E+06 1.31040E+05  2184.0      91.000     0.24914    
 STRESS PERIOD TIME 7.86240E+06 1.31040E+05  2184.0      91.000     0.24914    
         TOTAL TIME 7.88832E+07 1.31472E+06  21912.      913.00      2.4997    
1
1
                            STRESS PERIOD NO.   11, LENGTH =   91.00000    
                            -----------------------------------------------

                              NUMBER OF TIME STEPS =     1

                               MULTIPLIER FOR DELT =     1.500

                            INITIAL TIME STEP SIZE =   91.00000    

 WELL NO.  LAYER   ROW   COL   STRESS RATE         
 --------------------------------------------------
      1      1     23     10     -0.1039E+05
      2      1     17      3      -9136.    
      3      1     23     22     -0.1557E+05

      3 WELLS

                 RECHARGE =   0.00000    

 REUSING STREAM SEGMENT DATA FROM LAST STRESS PERIOD
 
 SOLVING FOR HEAD 


     7 CALLS TO PCG ROUTINE FOR TIME STEP   1 IN STRESS PERIOD   11
    26 TOTAL ITERATIONS

 OUTPUT CONTROL FOR STRESS PERIOD   11   TIME STEP    1
    SAVE BUDGET
    SAVE HEAD FOR ALL LAYERS
    PRINT HEAD FOR ALL LAYERS
 UBDSV2 SAVING "STREAMFLOW OUT  " ON UNIT  50 AT TIME STEP  1, STRESS PERIOD  11



 STREAM LISTING     PERIOD     11   STEP        1

 LAYER ROW COL. STREAM  RCH.  FLOW INTO     FLOW TO   FLOW OUT OF   OVRLND.     DIRECT     STREAM       STREAM     STREAM     STREAM   STREAMBED  STREAMBED
                SEG.NO.  NO.  STRM. RCH.    AQUIFER    STRM. RCH.    RUNOFF     PRECIP       ET          HEAD       DEPTH      WIDTH   CONDCTNC.   GRADIENT

   1   13    1     1     1    1.0000E+05 -2.1592E+03   1.0216E+05  0.000E+00  0.000E+00  0.000E+00  4.84070E+01  1.456E-01  2.000E+01  2.000E+04 -1.080E-01
   1   13    2     1     2    1.0216E+05 -4.1419E+03   1.0630E+05  0.000E+00  0.000E+00  0.000E+00  4.79324E+01  1.483E-01  2.000E+01  2.000E+04 -2.071E-01
   1   14    3     1     3    1.0630E+05 -2.3904E+03   1.0869E+05  0.000E+00  0.000E+00  0.000E+00  4.74579E+01  1.511E-01  2.000E+01  2.000E+04 -1.195E-01
   1   15    4     1     4    1.0869E+05 -1.6071E+03   1.1030E+05  0.000E+00  0.000E+00  0.000E+00  4.69823E+01  1.527E-01  2.000E+01  2.000E+04 -8.036E-02
   1   16    5     1     5    1.1030E+05 -1.7571E+03   1.1206E+05  0.000E+00  0.000E+00  0.000E+00  4.65064E+01  1.541E-01  2.000E+01  2.000E+04 -8.786E-02
   1   16    6     1     6    1.1206E+05 -2.4088E+03   1.1446E+05  0.000E+00  0.000E+00  0.000E+00  4.60309E+01  1.559E-01  2.000E+01  2.000E+04 -1.204E-01
   1   16    7     1     7    1.1446E+05 -2.6943E+03   1.1716E+05  0.000E+00  0.000E+00  0.000E+00  4.55557E+01  1.580E-01  2.000E+01  2.000E+04 -1.347E-01
   1   16    8     1     8    1.1716E+05 -2.8221E+03   1.1998E+05  0.000E+00  0.000E+00  0.000E+00  4.50807E+01  1.602E-01  2.000E+01  2.000E+04 -1.411E-01
   1   16    9     1     9    1.1998E+05 -2.8662E+03   1.2285E+05  0.000E+00  0.000E+00  0.000E+00  4.46057E+01  1.625E-01  2.000E+01  2.000E+04 -1.433E-01
   1   16   10     1    10    1.2285E+05 -2.8600E+03   1.2571E+05  0.000E+00  0.000E+00  0.000E+00  4.41307E+01  1.648E-01  2.000E+01  2.000E+04 -1.430E-01
   1   16   11     1    11    1.2571E+05 -2.8390E+03   1.2855E+05  0.000E+00  0.000E+00  0.000E+00  4.36557E+01  1.671E-01  2.000E+01  2.000E+04 -1.420E-01
   1   16   12     1    12    1.2855E+05 -3.7600E+03   1.3231E+05  0.000E+00  0.000E+00  0.000E+00  4.31810E+01  1.696E-01  2.000E+01  2.000E+04 -1.880E-01
   1   15   13     1    13    1.3231E+05 -3.6025E+03   1.3591E+05  0.000E+00  0.000E+00  0.000E+00  4.27066E+01  1.725E-01  2.000E+01  2.000E+04 -1.801E-01
   1   14   14     1    14    1.3591E+05 -3.7237E+03   1.3963E+05  0.000E+00  0.000E+00  0.000E+00  4.22321E+01  1.753E-01  2.000E+01  2.000E+04 -1.862E-01
   1   13   15     1    15    1.3963E+05 -4.0518E+03   1.4368E+05  0.000E+00  0.000E+00  0.000E+00  4.17578E+01  1.783E-01  2.000E+01  2.000E+04 -2.026E-01
   1   12   16     1    16    1.4368E+05 -5.2627E+03   1.4895E+05  0.000E+00  0.000E+00  0.000E+00  4.12840E+01  1.818E-01  2.000E+01  2.000E+04 -2.631E-01
   1   12   17     1    17    1.4895E+05 -3.4417E+03   1.5239E+05  0.000E+00  0.000E+00  0.000E+00  4.08100E+01  1.850E-01  2.000E+01  2.000E+04 -1.721E-01
   1   12   18     1    18    1.5239E+05 -3.3077E+03   1.5570E+05  0.000E+00  0.000E+00  0.000E+00  4.03352E+01  1.875E-01  2.000E+01  2.000E+04 -1.654E-01
   1   12   19     1    19    1.5570E+05 -4.3373E+03   1.6003E+05  0.000E+00  0.000E+00  0.000E+00  3.98607E+01  1.902E-01  2.000E+01  2.000E+04 -2.169E-01
   1   13   20     1    20    1.6003E+05 -2.7877E+03   1.6282E+05  0.000E+00  0.000E+00  0.000E+00  3.93860E+01  1.928E-01  2.000E+01  2.000E+04 -1.394E-01
   1   14   21     1    21    1.6282E+05 -1.9807E+03   1.6480E+05  0.000E+00  0.000E+00  0.000E+00  3.89104E+01  1.945E-01  2.000E+01  2.000E+04 -9.903E-02
   1   14   22     1    22    1.6480E+05  5.0568E+03   1.5975E+05  0.000E+00  0.000E+00  0.000E+00  3.84320E+01  1.934E-01  2.000E+01  2.000E+04  2.528E-01
   1    9   30     2     1    5.0000E+04 -2.6021E+03   5.2602E+04  0.000E+00  0.000E+00  0.000E+00  4.02427E+01  1.177E-01  2.000E+01  2.000E+04 -1.301E-01
   1    9   29     2     2    5.2602E+04 -2.9357E+03   5.5538E+04  0.000E+00  0.000E+00  0.000E+00  3.99964E+01  1.214E-01  2.000E+01  2.000E+04 -1.468E-01
   1    9   28     2     3    5.5538E+04 -3.3186E+03   5.8857E+04  0.000E+00  0.000E+00  0.000E+00  3.97506E+01  1.256E-01  2.000E+01  2.000E+04 -1.659E-01
   1    9   27     2     4    5.8857E+04 -5.9999E+03   6.4856E+04  0.000E+00  0.000E+00  0.000E+00  3.95066E+01  1.316E-01  2.000E+01  2.000E+04 -3.000E-01
   1   10   26     2     5    6.4856E+04 -3.6168E+03   6.8473E+04  0.000E+00  0.000E+00  0.000E+00  3.92627E+01  1.377E-01  2.000E+01  2.000E+04 -1.808E-01
   1   11   25     2     6    6.8473E+04 -2.5805E+03   7.1054E+04  0.000E+00  0.000E+00  0.000E+00  3.90165E+01  1.415E-01  2.000E+01  2.000E+04 -1.290E-01
   1   12   24     2     7    7.1054E+04 -1.7590E+03   7.2813E+04  0.000E+00  0.000E+00  0.000E+00  3.87691E+01  1.441E-01  2.000E+01  2.000E+04 -8.795E-02
   1   13   23     2     8    7.2813E+04 -9.8401E+02   7.3797E+04  0.000E+00  0.000E+00  0.000E+00  3.85208E+01  1.458E-01  2.000E+01  2.000E+04 -4.920E-02
   1   14   22     2     9    7.3797E+04  1.8213E+03   7.1975E+04  0.000E+00  0.000E+00  0.000E+00  3.82703E+01  1.453E-01  2.000E+01  2.000E+04  9.106E-02
   1   14   22     3     1    2.3172E+05 -8.4548E+03   2.4018E+05  0.000E+00  0.000E+00  0.000E+00  3.77565E+01  2.009E-01  2.000E+01  2.000E+04 -4.227E-01
   1   15   23     3     2    2.4018E+05 -2.5430E+03   2.4272E+05  0.000E+00  0.000E+00  0.000E+00  3.68704E+01  2.037E-01  2.000E+01  2.000E+04 -1.271E-01
   1   15   24     3     3    2.4272E+05 -1.7704E+03   2.4449E+05  0.000E+00  0.000E+00  0.000E+00  3.59826E+01  2.048E-01  2.000E+01  2.000E+04 -8.852E-02
   1   15   25     3     4    2.4449E+05 -1.6889E+03   2.4618E+05  0.000E+00  0.000E+00  0.000E+00  3.50946E+01  2.057E-01  2.000E+01  2.000E+04 -8.445E-02
   1   15   26     3     5    2.4618E+05 -2.0599E+03   2.4824E+05  0.000E+00  0.000E+00  0.000E+00  3.42066E+01  2.066E-01  2.000E+01  2.000E+04 -1.030E-01
   1   16   27     3     6    2.4824E+05 -2.8658E+03   2.5110E+05  0.000E+00  0.000E+00  0.000E+00  3.33189E+01  2.078E-01  2.000E+01  2.000E+04 -1.433E-01
   1   17   28     3     7    2.5110E+05 -3.6580E+03   2.5476E+05  0.000E+00  0.000E+00  0.000E+00  3.24317E+01  2.095E-01  2.000E+01  2.000E+04 -1.829E-01
   1   18   29     3     8    2.5476E+05 -5.3238E+03   2.6009E+05  0.000E+00  0.000E+00  0.000E+00  3.15450E+01  2.117E-01  2.000E+01  2.000E+04 -2.662E-01
   1   18   30     3     9    2.6009E+05 -4.5509E+03   2.6464E+05  0.000E+00  0.000E+00  0.000E+00  3.06586E+01  2.141E-01  2.000E+01  2.000E+04 -2.275E-01



1
              HEAD IN LAYER   1 AT END OF TIME STEP   1 IN STRESS PERIOD   11
  ---------------------------------------------------------------------------

          1      2      3      4      5      6      7      8      9     10
         11     12     13     14     15     16     17     18     19     20
         21     22     23     24     25     26     27     28     29     30
 .........................................................................
   1  ****** ****** ****** ****** ****** ****** ****** ****** ****** ******
      ****** ****** ****** ****** ****** ****** ****** ****** ****** ******
      ****** ****** ****** ****** ****** ****** ****** ****** ****** ******
   2  ****** ****** ****** ****** ****** ****** ****** ****** ****** ******
      ****** ****** ****** ****** ****** ****** ****** ****** ****** ******
      ****** ****** ****** ****** ****** ****** ****** ****** ****** ******
   3  ****** ****** ****** ****** ****** ****** ****** ****** ****** ******
      ****** ****** ****** ****** ****** ****** ****** ****** ****** ******
      ****** ****** ****** ****** ****** ****** ****** ****** ****** ******
   4  ****** ****** ****** ****** ****** ****** ****** ****** ****** ******
      ****** ****** ****** ****** ****** ****** ****** ****** ****** ******
      ****** ****** ****** ****** ****** ****** ****** ****** ****** ******
   5  ****** ****** ****** ****** ****** ****** ****** ****** ****** ******
      ****** ****** ****** ****** ****** ****** ****** ****** ****** ******
      ****** ****** ****** ****** ****** ****** ****** ****** ****** ******
   6  ****** ****** ****** ****** ****** ****** ****** ****** ****** ******
      ****** ****** ****** ****** ****** ****** ****** ****** ****** ******
      ****** ****** ****** ****** ****** ****** ****** ****** ****** ******
   7  ****** ****** ****** ****** ****** ****** ****** ****** ****** ******
      ****** ****** ****** ****** ****** ****** ****** ****** ****** ******
      ****** ****** ****** ****** ****** ****** ****** ****** ****** ******
   8  ****** ****** ****** ****** ****** ****** ****** ****** ****** ******
      ****** ****** ****** ****** ****** ****** ****** ****** ****** ******
      ****** ****** ****** ****** ****** ****** ****** ****** ****** ******
   9  ****** ****** ****** ****** ****** ****** ****** ****** ****** ******
      ****** ****** ****** ****** ****** ****** ****** ****** ****** ******
      ****** ****** ****** ****** ****** ****** ****** ****** ****** ******
  10  ****** ****** ****** ****** ****** ****** ****** ****** ****** ******
      ****** ****** ****** ****** ****** ****** ****** ****** ****** ******
      ****** ****** ****** ****** ****** ****** ****** ****** ****** ******
  11  ****** ****** ****** ****** ****** ****** ****** ****** ****** ******
      ****** ****** ****** ****** ****** ****** ****** ****** ****** ******
      ****** ****** ****** ****** ****** ****** ****** ****** ****** ******
  12  ****** ****** ****** ****** ****** ****** ****** ****** ****** ******
      ****** ****** ****** ****** ****** ****** ****** ****** ****** ******
      ****** ****** ****** ****** ****** ****** ****** ****** ****** ******
  13  ****** ****** ****** ****** ****** ****** ****** ****** ****** ******
      ****** ****** ****** ****** ****** ****** ****** ****** ****** ******
      ****** ****** ****** ****** ****** ****** ****** ****** ****** ******
  14  ****** ****** ****** ****** ****** ****** ****** ****** ****** ******
      ****** ****** ****** ****** ****** ****** ****** ****** ****** ******
      ****** ****** ****** ****** ****** ****** ****** ****** ****** ******
  15  ****** ****** ****** ****** ****** ****** ****** ****** ****** ******
      ****** ****** ****** ****** ****** ****** ****** ****** ****** ******
      ****** ****** ****** ****** ****** ****** ****** ****** ****** ******
  16  ****** ****** ****** ****** ****** ****** ****** ****** ****** ******
      ****** ****** ****** ****** ****** ****** ****** ****** ****** ******
      ****** ****** ****** ****** ****** ****** ****** ****** ****** ******
  17  ****** ****** ****** ****** ****** ****** ****** ****** ****** ******
      ****** ****** ****** ****** ****** ****** ****** ****** ****** ******
      ****** ****** ****** ****** ****** ****** ****** ****** ****** ******
  18  ****** ****** ****** ****** ****** ****** ****** ****** ****** ******
      ****** ****** ****** ****** ****** ****** ****** ****** ****** ******
      ****** ****** ****** ****** ****** ****** ****** ****** ****** ******
  19  ****** ****** ****** ****** ****** ****** ****** ****** ****** ******
      ****** ****** ****** ****** ****** ****** ****** ****** ****** ******
      ****** ****** ****** ****** ****** ****** ****** ****** ****** ******
  20  ****** ****** ****** ****** ****** ****** ****** ****** ****** ******
      ****** ****** ****** ****** ****** ****** ****** ****** ****** ******
      ****** ****** ****** ****** ****** ****** ****** ****** ****** ******
  21  ****** ****** ****** ****** ****** ****** ****** ****** ****** ******
      ****** ****** ****** ****** ****** ****** ****** ****** ****** ******
      ****** ****** ****** ****** ****** ****** ****** ****** ****** ******
  22  ****** ****** ****** ****** ****** ****** ****** ****** ****** ******
      ****** ****** ****** ****** ****** ****** ****** ****** ****** ******
      ****** ****** ****** ****** ****** ****** ****** ****** ****** ******
  23  ****** ****** ****** ****** ****** ****** ****** ****** ****** ******
      ****** ****** ****** ****** ****** ****** ****** ****** ****** ******
      ****** ****** ****** ****** ****** ****** ****** ****** ****** ******
  24  ****** ****** ****** ****** ****** ****** ****** ****** ****** ******
      ****** ****** ****** ****** ****** ****** ****** ****** ****** ******
      ****** ****** ****** ****** ****** ****** ****** ****** ****** ******
  25  ****** ****** ****** ****** ****** ****** ****** ****** ****** ******
      ****** ****** ****** ****** ****** ****** ****** ****** ****** ******
      ****** ****** ****** ****** ****** ****** ****** ****** ****** ******

 HEAD WILL BE SAVED ON UNIT   51 AT END OF TIME STEP    1, STRESS PERIOD   11
1
  VOLUMETRIC BUDGET FOR ENTIRE MODEL AT END OF TIME STEP    1, STRESS PERIOD  11
  ------------------------------------------------------------------------------

     CUMULATIVE VOLUMES      L**3       RATES FOR THIS TIME STEP      L**3/T
     ------------------                 ------------------------

           IN:                                      IN:
           ---                                      ---
             STORAGE =    23881585.8788               STORAGE =       11853.6818
       CONSTANT HEAD =   126606517.8004         CONSTANT HEAD =      137876.9791
               WELLS =           0.0000                 WELLS =           0.0000
            RECHARGE =    23901600.0000              RECHARGE =           0.0000
      STREAM LEAKAGE =     6583076.0008        STREAM LEAKAGE =        6878.1033

            TOTAL IN =   180972779.6799              TOTAL IN =      156608.7643

          OUT:                                     OUT:
          ----                                     ----
             STORAGE =     2247998.7523               STORAGE =           0.0000
       CONSTANT HEAD =           0.0000         CONSTANT HEAD =           0.0000
               WELLS =    34166388.2467                 WELLS =       35094.5747
            RECHARGE =           0.0000              RECHARGE =           0.0000
      STREAM LEAKAGE =   144558393.6714        STREAM LEAKAGE =      121514.1917

           TOTAL OUT =   180972780.6704             TOTAL OUT =      156608.7664

            IN - OUT =          -0.9905              IN - OUT =      -2.1302E-03

 PERCENT DISCREPANCY =          -0.00     PERCENT DISCREPANCY =          -0.00






         TIME SUMMARY AT END OF TIME STEP    1 IN STRESS PERIOD   11
                    SECONDS     MINUTES      HOURS       DAYS        YEARS
                    -----------------------------------------------------------
   TIME STEP LENGTH 7.86240E+06 1.31040E+05  2184.0      91.000     0.24914    
 STRESS PERIOD TIME 7.86240E+06 1.31040E+05  2184.0      91.000     0.24914    
         TOTAL TIME 8.67456E+07 1.44576E+06  24096.      1004.0      2.7488    
1
1
                            STRESS PERIOD NO.   12, LENGTH =   91.00000    
                            -----------------------------------------------

                              NUMBER OF TIME STEPS =     1

                               MULTIPLIER FOR DELT =     1.500

                            INITIAL TIME STEP SIZE =   91.00000    

 WELL NO.  LAYER   ROW   COL   STRESS RATE         
 --------------------------------------------------
      1      1     23     10     -0.1039E+05
      2      1     17      3      -9136.    
      3      1     23     22     -0.1557E+05

      3 WELLS

                 RECHARGE =  1.000000E-03

 REUSING STREAM SEGMENT DATA FROM LAST STRESS PERIOD
 
 SOLVING FOR HEAD 


     6 CALLS TO PCG ROUTINE FOR TIME STEP   1 IN STRESS PERIOD   12
    23 TOTAL ITERATIONS

 OUTPUT CONTROL FOR STRESS PERIOD   12   TIME STEP    1
    SAVE BUDGET
    SAVE HEAD FOR ALL LAYERS
    PRINT HEAD FOR ALL LAYERS
 UBDSV2 SAVING "STREAMFLOW OUT  " ON UNIT  50 AT TIME STEP  1, STRESS PERIOD  12



 STREAM LISTING     PERIOD     12   STEP        1

 LAYER ROW COL. STREAM  RCH.  FLOW INTO     FLOW TO   FLOW OUT OF   OVRLND.     DIRECT     STREAM       STREAM     STREAM     STREAM   STREAMBED  STREAMBED
                SEG.NO.  NO.  STRM. RCH.    AQUIFER    STRM. RCH.    RUNOFF     PRECIP       ET          HEAD       DEPTH      WIDTH   CONDCTNC.   GRADIENT

   1   13    1     1     1    1.0000E+05 -2.3328E+03   1.0233E+05  0.000E+00  0.000E+00  0.000E+00  4.84070E+01  1.457E-01  2.000E+01  2.000E+04 -1.166E-01
   1   13    2     1     2    1.0233E+05 -4.3600E+03   1.0669E+05  0.000E+00  0.000E+00  0.000E+00  4.79326E+01  1.485E-01  2.000E+01  2.000E+04 -2.180E-01
   1   14    3     1     3    1.0669E+05 -2.6295E+03   1.0932E+05  0.000E+00  0.000E+00  0.000E+00  4.74583E+01  1.515E-01  2.000E+01  2.000E+04 -1.315E-01
   1   15    4     1     4    1.0932E+05 -1.8484E+03   1.1117E+05  0.000E+00  0.000E+00  0.000E+00  4.69829E+01  1.534E-01  2.000E+01  2.000E+04 -9.242E-02
   1   16    5     1     5    1.1117E+05 -1.9798E+03   1.1315E+05  0.000E+00  0.000E+00  0.000E+00  4.65072E+01  1.550E-01  2.000E+01  2.000E+04 -9.899E-02
   1   16    6     1     6    1.1315E+05 -2.5861E+03   1.1574E+05  0.000E+00  0.000E+00  0.000E+00  4.60318E+01  1.568E-01  2.000E+01  2.000E+04 -1.293E-01
   1   16    7     1     7    1.1574E+05 -2.8734E+03   1.1861E+05  0.000E+00  0.000E+00  0.000E+00  4.55568E+01  1.591E-01  2.000E+01  2.000E+04 -1.437E-01
   1   16    8     1     8    1.1861E+05 -3.0023E+03   1.2161E+05  0.000E+00  0.000E+00  0.000E+00  4.50819E+01  1.615E-01  2.000E+01  2.000E+04 -1.501E-01
   1   16    9     1     9    1.2161E+05 -3.0462E+03   1.2466E+05  0.000E+00  0.000E+00  0.000E+00  4.46071E+01  1.639E-01  2.000E+01  2.000E+04 -1.523E-01
   1   16   10     1    10    1.2466E+05 -3.0388E+03   1.2770E+05  0.000E+00  0.000E+00  0.000E+00  4.41322E+01  1.663E-01  2.000E+01  2.000E+04 -1.519E-01
   1   16   11     1    11    1.2770E+05 -3.0159E+03   1.3071E+05  0.000E+00  0.000E+00  0.000E+00  4.36573E+01  1.687E-01  2.000E+01  2.000E+04 -1.508E-01
   1   16   12     1    12    1.3071E+05 -3.9827E+03   1.3470E+05  0.000E+00  0.000E+00  0.000E+00  4.31828E+01  1.714E-01  2.000E+01  2.000E+04 -1.991E-01
   1   15   13     1    13    1.3470E+05 -3.8457E+03   1.3854E+05  0.000E+00  0.000E+00  0.000E+00  4.27085E+01  1.744E-01  2.000E+01  2.000E+04 -1.923E-01
   1   14   14     1    14    1.3854E+05 -3.9696E+03   1.4251E+05  0.000E+00  0.000E+00  0.000E+00  4.22342E+01  1.774E-01  2.000E+01  2.000E+04 -1.985E-01
   1   13   15     1    15    1.4251E+05 -4.2923E+03   1.4680E+05  0.000E+00  0.000E+00  0.000E+00  4.17601E+01  1.805E-01  2.000E+01  2.000E+04 -2.146E-01
   1   12   16     1    16    1.4680E+05 -5.4822E+03   1.5229E+05  0.000E+00  0.000E+00  0.000E+00  4.12864E+01  1.842E-01  2.000E+01  2.000E+04 -2.741E-01
   1   12   17     1    17    1.5229E+05 -3.6153E+03   1.5590E+05  0.000E+00  0.000E+00  0.000E+00  4.08125E+01  1.875E-01  2.000E+01  2.000E+04 -1.808E-01
   1   12   18     1    18    1.5590E+05 -3.4809E+03   1.5938E+05  0.000E+00  0.000E+00  0.000E+00  4.03378E+01  1.901E-01  2.000E+01  2.000E+04 -1.740E-01
   1   12   19     1    19    1.5938E+05 -4.5486E+03   1.6393E+05  0.000E+00  0.000E+00  0.000E+00  3.98634E+01  1.930E-01  2.000E+01  2.000E+04 -2.274E-01
   1   13   20     1    20    1.6393E+05 -3.0065E+03   1.6694E+05  0.000E+00  0.000E+00  0.000E+00  3.93888E+01  1.957E-01  2.000E+01  2.000E+04 -1.503E-01
   1   14   21     1    21    1.6694E+05 -2.1773E+03   1.6911E+05  0.000E+00  0.000E+00  0.000E+00  3.89134E+01  1.975E-01  2.000E+01  2.000E+04 -1.089E-01
   1   14   22     1    22    1.6911E+05  5.0131E+03   1.6410E+05  0.000E+00  0.000E+00  0.000E+00  3.84351E+01  1.965E-01  2.000E+01  2.000E+04  2.507E-01
   1    9   30     2     1    5.0000E+04 -2.7816E+03   5.2782E+04  0.000E+00  0.000E+00  0.000E+00  4.02428E+01  1.178E-01  2.000E+01  2.000E+04 -1.391E-01
   1    9   29     2     2    5.2782E+04 -3.1134E+03   5.5895E+04  0.000E+00  0.000E+00  0.000E+00  3.99968E+01  1.218E-01  2.000E+01  2.000E+04 -1.557E-01
   1    9   28     2     3    5.5895E+04 -3.4938E+03   5.9389E+04  0.000E+00  0.000E+00  0.000E+00  3.97512E+01  1.262E-01  2.000E+01  2.000E+04 -1.747E-01
   1    9   27     2     4    5.9389E+04 -6.2205E+03   6.5609E+04  0.000E+00  0.000E+00  0.000E+00  3.95075E+01  1.325E-01  2.000E+01  2.000E+04 -3.110E-01
   1   10   26     2     5    6.5609E+04 -3.8543E+03   6.9464E+04  0.000E+00  0.000E+00  0.000E+00  3.92638E+01  1.388E-01  2.000E+01  2.000E+04 -1.927E-01
   1   11   25     2     6    6.9464E+04 -2.8115E+03   7.2275E+04  0.000E+00  0.000E+00  0.000E+00  3.90178E+01  1.428E-01  2.000E+01  2.000E+04 -1.406E-01
   1   12   24     2     7    7.2275E+04 -1.9688E+03   7.4244E+04  0.000E+00  0.000E+00  0.000E+00  3.87707E+01  1.457E-01  2.000E+01  2.000E+04 -9.844E-02
   1   13   23     2     8    7.4244E+04 -1.1544E+03   7.5398E+04  0.000E+00  0.000E+00  0.000E+00  3.85226E+01  1.476E-01  2.000E+01  2.000E+04 -5.772E-02
   1   14   22     2     9    7.5398E+04  1.7548E+03   7.3644E+04  0.000E+00  0.000E+00  0.000E+00  3.82722E+01  1.472E-01  2.000E+01  2.000E+04  8.774E-02
   1   14   22     3     1    2.3774E+05 -8.4988E+03   2.4624E+05  0.000E+00  0.000E+00  0.000E+00  3.77595E+01  2.040E-01  2.000E+01  2.000E+04 -4.249E-01
   1   15   23     3     2    2.4624E+05 -2.7274E+03   2.4897E+05  0.000E+00  0.000E+00  0.000E+00  3.68735E+01  2.068E-01  2.000E+01  2.000E+04 -1.364E-01
   1   15   24     3     3    2.4897E+05 -1.9147E+03   2.5089E+05  0.000E+00  0.000E+00  0.000E+00  3.59857E+01  2.080E-01  2.000E+01  2.000E+04 -9.574E-02
   1   15   25     3     4    2.5089E+05 -1.8380E+03   2.5272E+05  0.000E+00  0.000E+00  0.000E+00  3.50978E+01  2.089E-01  2.000E+01  2.000E+04 -9.190E-02
   1   15   26     3     5    2.5272E+05 -2.2548E+03   2.5498E+05  0.000E+00  0.000E+00  0.000E+00  3.42099E+01  2.099E-01  2.000E+01  2.000E+04 -1.127E-01
   1   16   27     3     6    2.5498E+05 -3.1002E+03   2.5808E+05  0.000E+00  0.000E+00  0.000E+00  3.33224E+01  2.112E-01  2.000E+01  2.000E+04 -1.550E-01
   1   17   28     3     7    2.5808E+05 -3.8949E+03   2.6197E+05  0.000E+00  0.000E+00  0.000E+00  3.24352E+01  2.130E-01  2.000E+01  2.000E+04 -1.947E-01
   1   18   29     3     8    2.6197E+05 -5.5403E+03   2.6751E+05  0.000E+00  0.000E+00  0.000E+00  3.15486E+01  2.153E-01  2.000E+01  2.000E+04 -2.770E-01
   1   18   30     3     9    2.6751E+05 -4.7216E+03   2.7224E+05  0.000E+00  0.000E+00  0.000E+00  3.06622E+01  2.178E-01  2.000E+01  2.000E+04 -2.361E-01



1
              HEAD IN LAYER   1 AT END OF TIME STEP   1 IN STRESS PERIOD   12
  ---------------------------------------------------------------------------

          1      2      3      4      5      6      7      8      9     10
         11     12     13     14     15     16     17     18     19     20
         21     22     23     24     25     26     27     28     29     30
 .........................................................................
   1  ****** ****** ****** ****** ****** ****** ****** ****** ****** ******
      ****** ****** ****** ****** ****** ****** ****** ****** ****** ******
      ****** ****** ****** ****** ****** ****** ****** ****** ****** ******
   2  ****** ****** ****** ****** ****** ****** ****** ****** ****** ******
      ****** ****** ****** ****** ****** ****** ****** ****** ****** ******
      ****** ****** ****** ****** ****** ****** ****** ****** ****** ******
   3  ****** ****** ****** ****** ****** ****** ****** ****** ****** ******
      ****** ****** ****** ****** ****** ****** ****** ****** ****** ******
      ****** ****** ****** ****** ****** ****** ****** ****** ****** ******
   4  ****** ****** ****** ****** ****** ****** ****** ****** ****** ******
      ****** ****** ****** ****** ****** ****** ****** ****** ****** ******
      ****** ****** ****** ****** ****** ****** ****** ****** ****** ******
   5  ****** ****** ****** ****** ****** ****** ****** ****** ****** ******
      ****** ****** ****** ****** ****** ****** ****** ****** ****** ******
      ****** ****** ****** ****** ****** ****** ****** ****** ****** ******
   6  ****** ****** ****** ****** ****** ****** ****** ****** ****** ******
      ****** ****** ****** ****** ****** ****** ****** ****** ****** ******
      ****** ****** ****** ****** ****** ****** ****** ****** ****** ******
   7  ****** ****** ****** ****** ****** ****** ****** ****** ****** ******
      ****** ****** ****** ****** ****** ****** ****** ****** ****** ******
      ****** ****** ****** ****** ****** ****** ****** ****** ****** ******
   8  ****** ****** ****** ****** ****** ****** ****** ****** ****** ******
      ****** ****** ****** ****** ****** ****** ****** ****** ****** ******
      ****** ****** ****** ****** ****** ****** ****** ****** ****** ******
   9  ****** ****** ****** ****** ****** ****** ****** ****** ****** ******
      ****** ****** ****** ****** ****** ****** ****** ****** ****** ******
      ****** ****** ****** ****** ****** ****** ****** ****** ****** ******
  10  ****** ****** ****** ****** ****** ****** ****** ****** ****** ******
      ****** ****** ****** ****** ****** ****** ****** ****** ****** ******
      ****** ****** ****** ****** ****** ****** ****** ****** ****** ******
  11  ****** ****** ****** ****** ****** ****** ****** ****** ****** ******
      ****** ****** ****** ****** ****** ****** ****** ****** ****** ******
      ****** ****** ****** ****** ****** ****** ****** ****** ****** ******
  12  ****** ****** ****** ****** ****** ****** ****** ****** ****** ******
      ****** ****** ****** ****** ****** ****** ****** ****** ****** ******
      ****** ****** ****** ****** ****** ****** ****** ****** ****** ******
  13  ****** ****** ****** ****** ****** ****** ****** ****** ****** ******
      ****** ****** ****** ****** ****** ****** ****** ****** ****** ******
      ****** ****** ****** ****** ****** ****** ****** ****** ****** ******
  14  ****** ****** ****** ****** ****** ****** ****** ****** ****** ******
      ****** ****** ****** ****** ****** ****** ****** ****** ****** ******
      ****** ****** ****** ****** ****** ****** ****** ****** ****** ******
  15  ****** ****** ****** ****** ****** ****** ****** ****** ****** ******
      ****** ****** ****** ****** ****** ****** ****** ****** ****** ******
      ****** ****** ****** ****** ****** ****** ****** ****** ****** ******
  16  ****** ****** ****** ****** ****** ****** ****** ****** ****** ******
      ****** ****** ****** ****** ****** ****** ****** ****** ****** ******
      ****** ****** ****** ****** ****** ****** ****** ****** ****** ******
  17  ****** ****** ****** ****** ****** ****** ****** ****** ****** ******
      ****** ****** ****** ****** ****** ****** ****** ****** ****** ******
      ****** ****** ****** ****** ****** ****** ****** ****** ****** ******
  18  ****** ****** ****** ****** ****** ****** ****** ****** ****** ******
      ****** ****** ****** ****** ****** ****** ****** ****** ****** ******
      ****** ****** ****** ****** ****** ****** ****** ****** ****** ******
  19  ****** ****** ****** ****** ****** ****** ****** ****** ****** ******
      ****** ****** ****** ****** ****** ****** ****** ****** ****** ******
      ****** ****** ****** ****** ****** ****** ****** ****** ****** ******
  20  ****** ****** ****** ****** ****** ****** ****** ****** ****** ******
      ****** ****** ****** ****** ****** ****** ****** ****** ****** ******
      ****** ****** ****** ****** ****** ****** ****** ****** ****** ******
  21  ****** ****** ****** ****** ****** ****** ****** ****** ****** ******
      ****** ****** ****** ****** ****** ****** ****** ****** ****** ******
      ****** ****** ****** ****** ****** ****** ****** ****** ****** ******
  22  ****** ****** ****** ****** ****** ****** ****** ****** ****** ******
      ****** ****** ****** ****** ****** ****** ****** ****** ****** ******
      ****** ****** ****** ****** ****** ****** ****** ****** ****** ******
  23  ****** ****** ****** ****** ****** ****** ****** ****** ****** ******
      ****** ****** ****** ****** ****** ****** ****** ****** ****** ******
      ****** ****** ****** ****** ****** ****** ****** ****** ****** ******
  24  ****** ****** ****** ****** ****** ****** ****** ****** ****** ******
      ****** ****** ****** ****** ****** ****** ****** ****** ****** ******
      ****** ****** ****** ****** ****** ****** ****** ****** ****** ******
  25  ****** ****** ****** ****** ****** ****** ****** ****** ****** ******
      ****** ****** ****** ****** ****** ****** ****** ****** ****** ******
      ****** ****** ****** ****** ****** ****** ****** ****** ****** ******

 HEAD WILL BE SAVED ON UNIT   51 AT END OF TIME STEP    1, STRESS PERIOD   12
1
  VOLUMETRIC BUDGET FOR ENTIRE MODEL AT END OF TIME STEP    1, STRESS PERIOD  12
  ------------------------------------------------------------------------------

     CUMULATIVE VOLUMES      L**3       RATES FOR THIS TIME STEP      L**3/T
     ------------------                 ------------------------

           IN:                                      IN:
           ---                                      ---
             STORAGE =    23881585.8788               STORAGE =           0.0000
       CONSTANT HEAD =   138751580.3074         CONSTANT HEAD =      133462.2254
               WELLS =           0.0000                 WELLS =           0.0000
            RECHARGE =    26413200.0000              RECHARGE =       27600.0000
      STREAM LEAKAGE =     7198955.2215        STREAM LEAKAGE =        6767.9035

            TOTAL IN =   196245321.4077              TOTAL IN =      167830.1289

          OUT:                                     OUT:
          ----                                     ----
             STORAGE =     2587637.3523               STORAGE =        3732.2923
       CONSTANT HEAD =           0.0000         CONSTANT HEAD =           0.0000
               WELLS =    37359994.5428                 WELLS =       35094.5747
            RECHARGE =           0.0000              RECHARGE =           0.0000
      STREAM LEAKAGE =   156297690.4271        STREAM LEAKAGE =      129003.2611

           TOTAL OUT =   196245322.3221             TOTAL OUT =      167830.1280

            IN - OUT =          -0.9144              IN - OUT =       8.3639E-04

 PERCENT DISCREPANCY =          -0.00     PERCENT DISCREPANCY =           0.00






         TIME SUMMARY AT END OF TIME STEP    1 IN STRESS PERIOD   12
                    SECONDS     MINUTES      HOURS       DAYS        YEARS
                    -----------------------------------------------------------
   TIME STEP LENGTH 7.86240E+06 1.31040E+05  2184.0      91.000     0.24914    
 STRESS PERIOD TIME 7.86240E+06 1.31040E+05  2184.0      91.000     0.24914    
         TOTAL TIME 9.46080E+07 1.57680E+06  26280.      1095.0      2.9979    
1

 Run end date and time (yyyy/mm/dd hh:mm:ss): 2018/10/08 23:02:57
 Elapsed run time:  0.070 Seconds

