                                  MODFLOW-2005     
      U.S. GEOLOGICAL SURVEY MODULAR FINITE-DIFFERENCE GROUND-WATER FLOW MODEL
                            VERSION 1.11.00 8/8/2013

 LIST FILE: supply2.lst
                         UNIT   10

 OPENING ..\data\supply.dis
 FILE TYPE:DIS   UNIT   11   STATUS:OLD    
 FORMAT:FORMATTED              ACCESS:SEQUENTIAL          

 OPENING ..\data\supply.ba6
 FILE TYPE:BAS6   UNIT   12   STATUS:OLD    
 FORMAT:FORMATTED              ACCESS:SEQUENTIAL          

 OPENING ..\data\supply.bc6
 FILE TYPE:BCF6   UNIT   13   STATUS:OLD    
 FORMAT:FORMATTED              ACCESS:SEQUENTIAL          

 OPENING ..\data\supply.rch
 FILE TYPE:RCH   UNIT   15   STATUS:OLD    
 FORMAT:FORMATTED              ACCESS:SEQUENTIAL          

 OPENING ..\data\supply2.sfr
 FILE TYPE:SFR   UNIT   16   STATUS:OLD    
 FORMAT:FORMATTED              ACCESS:SEQUENTIAL          

 OPENING ..\data\supply.oc
 FILE TYPE:OC   UNIT   17   STATUS:OLD    
 FORMAT:FORMATTED              ACCESS:SEQUENTIAL          

 OPENING ..\data\supply.pcg
 FILE TYPE:PCG   UNIT   18   STATUS:OLD    
 FORMAT:FORMATTED              ACCESS:SEQUENTIAL          

 OPENING supply2.wel
 FILE TYPE:WEL   UNIT   19   STATUS:OLD    
 FORMAT:FORMATTED              ACCESS:SEQUENTIAL          

 OPENING supply2sf.bin
 FILE TYPE:DATA(BINARY)   UNIT   50   STATUS:UNKNOWN
 FORMAT:BINARY                 ACCESS:SEQUENTIAL          

 OPENING supply2hd.bin
 FILE TYPE:DATA(BINARY)   UNIT   51   STATUS:UNKNOWN
 FORMAT:BINARY                 ACCESS:SEQUENTIAL          

 BAS -- BASIC PACKAGE, VERSION 7, 5/2/2005 INPUT READ FROM UNIT   12
 
 MODFLOW was compiled using uniform precision
 Precision of REAL and DOUBLE PRECISION variables:          15

 DISCRETIZATION INPUT DATA READ FROM UNIT   11
    1 LAYERS        25 ROWS        30 COLUMNS
   12 STRESS PERIOD(S) IN SIMULATION
 MODEL TIME UNIT IS DAYS
 MODEL LENGTH UNIT IS UNDEFINED
  Confining bed flag for each layer:
   0

                     DELR =   200.000    

                     DELC =   200.000    

 TOP ELEVATION OF LAYER 1 =  100.0000    

   MODEL LAYER BOTTOM EL. =   0.00000     FOR LAYER   1


 STRESS PERIOD     LENGTH       TIME STEPS     MULTIPLIER FOR DELT    SS FLAG
 ----------------------------------------------------------------------------
        1         92.00000          1                    1.500         TR
        2         91.00000          1                    1.500         TR
        3         91.00000          1                    1.500         TR
        4         91.00000          1                    1.500         TR
        5         92.00000          1                    1.500         TR
        6         91.00000          1                    1.500         TR
        7         91.00000          1                    1.500         TR
        8         91.00000          1                    1.500         TR
        9         92.00000          1                    1.500         TR
       10         91.00000          1                    1.500         TR
       11         91.00000          1                    1.500         TR
       12         91.00000          1                    1.500         TR

 TRANSIENT SIMULATION



 
 #MODOFC transient water supply sample problem                                   
 #                                                                               
 THE FREE FORMAT OPTION HAS BEEN SELECTED



                     BOUNDARY ARRAY FOR LAYER   1
 READING ON UNIT   12 WITH FORMAT: (20I4)              

 AQUIFER HEAD WILL BE SET TO   0.0000     AT ALL NO-FLOW NODES (IBOUND=0).



                       INITIAL HEAD FOR LAYER   1
 READING ON UNIT   12 WITH FORMAT: (10F13.0)           

 OUTPUT CONTROL IS SPECIFIED ONLY AT TIME STEPS FOR WHICH OUTPUT IS DESIRED
 COMPACT CELL-BY-CELL BUDGET FILES WILL BE WRITTEN
 HEAD PRINT FORMAT CODE IS  18    DRAWDOWN PRINT FORMAT CODE IS   0
 HEADS WILL BE SAVED ON UNIT   51    DRAWDOWNS WILL BE SAVED ON UNIT    0

 BCF -- BLOCK-CENTERED FLOW PACKAGE, VERSION 7, 5/2/2005
         INPUT READ FROM UNIT 13
 TRANSIENT SIMULATION
 HEAD AT CELLS THAT CONVERT TO DRY=   0.0000    
 WETTING CAPABILITY IS NOT ACTIVE
      LAYER  LAYER-TYPE CODE     INTERBLOCK T
      --------------------------------------------
         1            0          0 -- HARMONIC    

 COLUMN TO ROW ANISOTROPY =  1.000000    

     PRIMARY STORAGE COEF =  5.000000E-02 FOR LAYER   1

     TRANSMIS. ALONG ROWS =   5000.00     FOR LAYER   1

 WEL -- WELL PACKAGE, VERSION 7, 5/2/2005 INPUT READ FROM UNIT   19
 # Well package input file written by MMProc
 No named parameters
 MAXIMUM OF      7 ACTIVE WELLS AT ONE TIME


     0 Well parameters

 RCH -- RECHARGE PACKAGE, VERSION 7, 5/2/2005 INPUT READ FROM UNIT   15
 No named parameters
 OPTION 1 -- RECHARGE TO TOP LAYER


     0 Recharge parameters

 SFR7 -- STREAMFLOW ROUTING PACKAGE, VERSION 1.0.7, 2013-01-15
         INPUT READ FROM UNIT  16
 #  Supply2 test problem for GWM-VI
 #  The eighth entry in the first data line is ISTCB2 -
 #    Setting this to a negative number indicates that
 #    streamflows out of the reach will be saved to a
 #    binary file.  The absolute value of ISTCB2 is the
 #    unit to which unformatted flows will be written.
 #
 No named parameters
 Segment information will not be 
 read by reach
 No named parameters
 No specifed inflow files


 NUMBER OF STREAM REACHES IS   40

 NUMBER OF STREAM SEGMENTS IS    3

 NUMBER OF STREAM PARAMETERS IS    0

 NUMBER OF STREAM SEGMENTS DEFINED USING PARAMETERS IS              0

 MAXIMUM ERROR FOR STREAM LEAKAGE RATES IS  1.00E-04

 CONSTANT FOR MANNINGS EQUATION IS  1.2839E+05





   STREAM NETWORK DESCRIPTION: 

   LAYER    ROW    COL   SEGMENT   REACH     LENGTH
                          NUMBER   NUMBER    IN CELL        
   --------------------------------------------------
      1     13      1       1        1    2.0000E+02
      1     13      2       1        2    2.0000E+02
      1     14      3       1        3    2.0000E+02
      1     15      4       1        4    2.0000E+02
      1     16      5       1        5    2.0000E+02
      1     16      6       1        6    2.0000E+02
      1     16      7       1        7    2.0000E+02
      1     16      8       1        8    2.0000E+02
      1     16      9       1        9    2.0000E+02
      1     16     10       1       10    2.0000E+02
      1     16     11       1       11    2.0000E+02
      1     16     12       1       12    2.0000E+02
      1     15     13       1       13    2.0000E+02
      1     14     14       1       14    2.0000E+02
      1     13     15       1       15    2.0000E+02
      1     12     16       1       16    2.0000E+02
      1     12     17       1       17    2.0000E+02
      1     12     18       1       18    2.0000E+02
      1     12     19       1       19    2.0000E+02
      1     13     20       1       20    2.0000E+02
      1     14     21       1       21    2.0000E+02
      1     14     22       1       22    2.0000E+02
      1      9     30       2        1    2.0000E+02
      1      9     29       2        2    2.0000E+02
      1      9     28       2        3    2.0000E+02
      1      9     27       2        4    2.0000E+02
      1     10     26       2        5    2.0000E+02
      1     11     25       2        6    2.0000E+02
      1     12     24       2        7    2.0000E+02
      1     13     23       2        8    2.0000E+02
      1     14     22       2        9    2.0000E+02
      1     14     22       3        1    2.0000E+02
      1     15     23       3        2    2.0000E+02
      1     15     24       3        3    2.0000E+02
      1     15     25       3        4    2.0000E+02
      1     15     26       3        5    2.0000E+02
      1     16     27       3        6    2.0000E+02
      1     17     28       3        7    2.0000E+02
      1     18     29       3        8    2.0000E+02
      1     18     30       3        9    2.0000E+02




 PCG -- CONJUGATE-GRADIENT SOLUTION PACKAGE, VERSION 7, 5/2/2005
 MAXIMUM OF    500 CALLS OF SOLUTION ROUTINE
 MAXIMUM OF      5 INTERNAL ITERATIONS PER CALL TO SOLUTION ROUTINE
 MATRIX PRECONDITIONING TYPE :    1



                                    SOLUTION BY THE CONJUGATE-GRADIENT METHOD
                                   -------------------------------------------
                    MAXIMUM NUMBER OF CALLS TO PCG ROUTINE =      500
                        MAXIMUM ITERATIONS PER CALL TO PCG =        5
                               MATRIX PRECONDITIONING TYPE =        1
        RELAXATION FACTOR (ONLY USED WITH PRECOND. TYPE 1) =    0.10000E+01
 PARAMETER OF POLYNOMIAL PRECOND. = 2 (2) OR IS CALCULATED :        0
                         HEAD CHANGE CRITERION FOR CLOSURE =    0.10000E-05
                     RESIDUAL CHANGE CRITERION FOR CLOSURE =    0.10000E+01
            PCG HEAD AND RESIDUAL CHANGE PRINTOUT INTERVAL =        1
     PRINTING FROM SOLVER IS LIMITED(1) OR SUPPRESSED (>1) =        1
                            STEADY-STATE DAMPING PARAMETER =    0.10000E+01
                               TRANSIENT DAMPING PARAMETER =    0.10000E+01
1
                            STRESS PERIOD NO.    1, LENGTH =   92.00000    
                            -----------------------------------------------

                              NUMBER OF TIME STEPS =     1

                               MULTIPLIER FOR DELT =     1.500

                            INITIAL TIME STEP SIZE =   92.00000    

 WELL NO.  LAYER   ROW   COL   STRESS RATE         
 --------------------------------------------------
      1      1     22     22     -0.3000E+05
      2      1      2     29     -0.5000E+05
      3      1      5     21     -0.5500E+05

      3 WELLS

                 RECHARGE =  5.000000E-04



 CLASSIFICATION & COUNT OF STREAM SEGMENTS BASED ON SOURCE OF INFLOW:

                HEADWATER     DIVERSION     RECEIVES TRIBUTARY FLOW
                ---------     ---------     -----------------------
                     2              0               1



                    INPUT DATA FOR EACH STREAM SEGMENT
 ---------------------------------------------------------------------------------------------

 SEGMENT    SEG.     INFLOW   OVERLAND   STREAM    STREAM   ICALC  OUTFLOW  DIVERSION PRIORITY
    NO.    LENGTH     RATE     RUNOFF      ET       PPT.    METH.  TO SEG.  FROM SEG.    NO.

      1  4.400E+03 1.000E+05 0.000E+00 0.000E+00 0.000E+00    1        3        0        0
      2  1.800E+03 5.000E+04 0.000E+00 0.000E+00 0.000E+00    1        3        0        0
      3  1.800E+03 0.000E+00 0.000E+00 0.000E+00 0.000E+00    1        0        0        0


         STREAMBED PROPERTIES AND STREAM DIMENSIONS

 SEGMENT     BED HYD. COND.      BED THICKNESS     ELEV.-TOP OF BED     WIDTH OF STREAM     DEPTH OF STREAM    STREAM ROUGHNESS
    No.     UPPER     LOWER     UPPER     LOWER     UPPER     LOWER     UPPER     LOWER     UPPER     LOWER   CHANNEL      BANK

     1  5.000E+00 5.000E+00 1.000E+00 1.000E+00 4.850E+01 3.800E+01 2.000E+01 2.000E+01                     5.000E-02
     2  5.000E+00 5.000E+00 1.000E+00 1.000E+00 4.025E+01 3.800E+01 2.000E+01 2.000E+01                     5.000E-02
     3  5.000E+00 5.000E+00 1.000E+00 1.000E+00 3.800E+01 3.000E+01 2.000E+01 2.000E+01                     5.000E-02



 
 SOLVING FOR HEAD 


     8 CALLS TO PCG ROUTINE FOR TIME STEP   1 IN STRESS PERIOD    1
    32 TOTAL ITERATIONS

 OUTPUT CONTROL FOR STRESS PERIOD    1   TIME STEP    1
    SAVE BUDGET
    SAVE HEAD FOR ALL LAYERS
    PRINT HEAD FOR ALL LAYERS
 UBDSV2 SAVING "STREAMFLOW OUT  " ON UNIT  50 AT TIME STEP  1, STRESS PERIOD   1



 STREAM LISTING     PERIOD      1   STEP        1

 LAYER ROW COL. STREAM  RCH.  FLOW INTO     FLOW TO   FLOW OUT OF   OVRLND.     DIRECT     STREAM       STREAM     STREAM     STREAM   STREAMBED  STREAMBED
                SEG.NO.  NO.  STRM. RCH.    AQUIFER    STRM. RCH.    RUNOFF     PRECIP       ET          HEAD       DEPTH      WIDTH   CONDCTNC.   GRADIENT

   1   13    1     1     1    1.0000E+05 -3.1636E+04   1.3164E+05  0.000E+00  0.000E+00  0.000E+00  4.84193E+01  1.580E-01  2.000E+01  2.000E+04 -1.582E+00
   1   13    2     1     2    1.3164E+05 -4.2081E+04   1.7372E+05  0.000E+00  0.000E+00  0.000E+00  4.79706E+01  1.865E-01  2.000E+01  2.000E+04 -2.104E+00
   1   14    3     1     3    1.7372E+05 -3.7629E+04   2.1135E+05  0.000E+00  0.000E+00  0.000E+00  4.75211E+01  2.143E-01  2.000E+01  2.000E+04 -1.881E+00
   1   15    4     1     4    2.1135E+05 -3.6689E+04   2.4803E+05  0.000E+00  0.000E+00  0.000E+00  4.70678E+01  2.382E-01  2.000E+01  2.000E+04 -1.834E+00
   1   16    5     1     5    2.4803E+05 -3.7642E+04   2.8568E+05  0.000E+00  0.000E+00  0.000E+00  4.66129E+01  2.607E-01  2.000E+01  2.000E+04 -1.882E+00
   1   16    6     1     6    2.8568E+05 -3.2907E+04   3.1858E+05  0.000E+00  0.000E+00  0.000E+00  4.61558E+01  2.808E-01  2.000E+01  2.000E+04 -1.645E+00
   1   16    7     1     7    3.1858E+05 -3.2711E+04   3.5129E+05  0.000E+00  0.000E+00  0.000E+00  4.56965E+01  2.987E-01  2.000E+01  2.000E+04 -1.636E+00
   1   16    8     1     8    3.5129E+05 -3.2911E+04   3.8420E+05  0.000E+00  0.000E+00  0.000E+00  4.52364E+01  3.160E-01  2.000E+01  2.000E+04 -1.646E+00
   1   16    9     1     9    3.8420E+05 -3.2992E+04   4.1720E+05  0.000E+00  0.000E+00  0.000E+00  4.47759E+01  3.327E-01  2.000E+01  2.000E+04 -1.650E+00
   1   16   10     1    10    4.1720E+05 -3.3007E+04   4.5020E+05  0.000E+00  0.000E+00  0.000E+00  4.43148E+01  3.488E-01  2.000E+01  2.000E+04 -1.650E+00
   1   16   11     1    11    4.5020E+05 -3.3634E+04   4.8384E+05  0.000E+00  0.000E+00  0.000E+00  4.38533E+01  3.647E-01  2.000E+01  2.000E+04 -1.682E+00
   1   16   12     1    12    4.8384E+05 -3.9620E+04   5.2346E+05  0.000E+00  0.000E+00  0.000E+00  4.33930E+01  3.816E-01  2.000E+01  2.000E+04 -1.981E+00
   1   15   13     1    13    5.2346E+05 -3.8899E+04   5.6236E+05  0.000E+00  0.000E+00  0.000E+00  4.29333E+01  3.992E-01  2.000E+01  2.000E+04 -1.945E+00
   1   14   14     1    14    5.6236E+05 -3.9595E+04   6.0195E+05  0.000E+00  0.000E+00  0.000E+00  4.24731E+01  4.162E-01  2.000E+01  2.000E+04 -1.980E+00
   1   13   15     1    15    6.0195E+05 -4.1580E+04   6.4353E+05  0.000E+00  0.000E+00  0.000E+00  4.20130E+01  4.334E-01  2.000E+01  2.000E+04 -2.079E+00
   1   12   16     1    16    6.4353E+05 -4.6878E+04   6.9041E+05  0.000E+00  0.000E+00  0.000E+00  4.15539E+01  4.516E-01  2.000E+01  2.000E+04 -2.344E+00
   1   12   17     1    17    6.9041E+05 -3.6585E+04   7.2699E+05  0.000E+00  0.000E+00  0.000E+00  4.10934E+01  4.684E-01  2.000E+01  2.000E+04 -1.829E+00
   1   12   18     1    18    7.2699E+05 -3.4616E+04   7.6161E+05  0.000E+00  0.000E+00  0.000E+00  4.06301E+01  4.824E-01  2.000E+01  2.000E+04 -1.731E+00
   1   12   19     1    19    7.6161E+05 -3.8534E+04   8.0014E+05  0.000E+00  0.000E+00  0.000E+00  4.01669E+01  4.964E-01  2.000E+01  2.000E+04 -1.927E+00
   1   13   20     1    20    8.0014E+05 -2.9312E+04   8.2946E+05  0.000E+00  0.000E+00  0.000E+00  3.97025E+01  5.093E-01  2.000E+01  2.000E+04 -1.466E+00
   1   14   21     1    21    8.2946E+05 -2.2043E+04   8.5150E+05  0.000E+00  0.000E+00  0.000E+00  3.92348E+01  5.188E-01  2.000E+01  2.000E+04 -1.102E+00
   1   14   22     1    22    8.5150E+05 -2.5330E+03   8.5403E+05  0.000E+00  0.000E+00  0.000E+00  3.87620E+01  5.234E-01  2.000E+01  2.000E+04 -1.266E-01
   1    9   30     2     1    5.0000E+04 -2.8105E+04   7.8105E+04  0.000E+00  0.000E+00  0.000E+00  4.02594E+01  1.344E-01  2.000E+01  2.000E+04 -1.405E+00
   1    9   29     2     2    7.8105E+04 -3.0501E+04   1.0861E+05  0.000E+00  0.000E+00  0.000E+00  4.00435E+01  1.685E-01  2.000E+01  2.000E+04 -1.525E+00
   1    9   28     2     3    1.0861E+05 -3.4634E+04   1.4324E+05  0.000E+00  0.000E+00  0.000E+00  3.98267E+01  2.017E-01  2.000E+01  2.000E+04 -1.732E+00
   1    9   27     2     4    1.4324E+05 -4.8461E+04   1.9170E+05  0.000E+00  0.000E+00  0.000E+00  3.96143E+01  2.393E-01  2.000E+01  2.000E+04 -2.423E+00
   1   10   26     2     5    1.9170E+05 -3.5313E+04   2.2701E+05  0.000E+00  0.000E+00  0.000E+00  3.93986E+01  2.736E-01  2.000E+01  2.000E+04 -1.766E+00
   1   11   25     2     6    2.2701E+05 -2.7253E+04   2.5427E+05  0.000E+00  0.000E+00  0.000E+00  3.91724E+01  2.974E-01  2.000E+01  2.000E+04 -1.363E+00
   1   12   24     2     7    2.5427E+05 -2.0699E+04   2.7496E+05  0.000E+00  0.000E+00  0.000E+00  3.89399E+01  3.149E-01  2.000E+01  2.000E+04 -1.035E+00
   1   13   23     2     8    2.7496E+05 -1.5139E+04   2.9010E+05  0.000E+00  0.000E+00  0.000E+00  3.87025E+01  3.275E-01  2.000E+01  2.000E+04 -7.570E-01
   1   14   22     2     9    2.9010E+05 -8.5599E+03   2.9866E+05  0.000E+00  0.000E+00  0.000E+00  3.84607E+01  3.357E-01  2.000E+01  2.000E+04 -4.280E-01
   1   14   22     3     1    1.1527E+06 -1.6211E+04   1.1689E+06  0.000E+00  0.000E+00  0.000E+00  3.80781E+01  5.226E-01  2.000E+01  2.000E+04 -8.105E-01
   1   15   23     3     2    1.1689E+06 -2.5803E+04   1.1947E+06  0.000E+00  0.000E+00  0.000E+00  3.71949E+01  5.282E-01  2.000E+01  2.000E+04 -1.290E+00
   1   15   24     3     3    1.1947E+06 -2.1684E+04   1.2164E+06  0.000E+00  0.000E+00  0.000E+00  3.63124E+01  5.346E-01  2.000E+01  2.000E+04 -1.084E+00
   1   15   25     3     4    1.2164E+06 -2.1534E+04   1.2379E+06  0.000E+00  0.000E+00  0.000E+00  3.54292E+01  5.403E-01  2.000E+01  2.000E+04 -1.077E+00
   1   15   26     3     5    1.2379E+06 -2.5045E+04   1.2630E+06  0.000E+00  0.000E+00  0.000E+00  3.45464E+01  5.464E-01  2.000E+01  2.000E+04 -1.252E+00
   1   16   27     3     6    1.2630E+06 -3.2598E+04   1.2956E+06  0.000E+00  0.000E+00  0.000E+00  3.36651E+01  5.540E-01  2.000E+01  2.000E+04 -1.630E+00
   1   17   28     3     7    1.2956E+06 -3.9578E+04   1.3351E+06  0.000E+00  0.000E+00  0.000E+00  3.27855E+01  5.633E-01  2.000E+01  2.000E+04 -1.979E+00
   1   18   29     3     8    1.3351E+06 -5.0050E+04   1.3852E+06  0.000E+00  0.000E+00  0.000E+00  3.19081E+01  5.747E-01  2.000E+01  2.000E+04 -2.502E+00
   1   18   30     3     9    1.3852E+06 -4.6287E+04   1.4315E+06  0.000E+00  0.000E+00  0.000E+00  3.10313E+01  5.868E-01  2.000E+01  2.000E+04 -2.314E+00



1
              HEAD IN LAYER   1 AT END OF TIME STEP   1 IN STRESS PERIOD    1
  ---------------------------------------------------------------------------

          1      2      3      4      5      6      7      8      9     10
         11     12     13     14     15     16     17     18     19     20
         21     22     23     24     25     26     27     28     29     30
 .........................................................................
   1  ****** ****** ****** ****** ****** ****** ****** ****** ****** ******
      ****** ****** ****** ****** ****** ****** ****** ****** ****** ******
      ****** ****** ****** ****** ****** ****** ****** ****** ****** ******
   2  ****** ****** ****** ****** ****** ****** ****** ****** ****** ******
      ****** ****** ****** ****** ****** ****** ****** ****** ****** ******
      ****** ****** ****** ****** ****** ****** ****** ****** ****** ******
   3  ****** ****** ****** ****** ****** ****** ****** ****** ****** ******
      ****** ****** ****** ****** ****** ****** ****** ****** ****** ******
      ****** ****** ****** ****** ****** ****** ****** ****** ****** ******
   4  ****** ****** ****** ****** ****** ****** ****** ****** ****** ******
      ****** ****** ****** ****** ****** ****** ****** ****** ****** ******
      ****** ****** ****** ****** ****** ****** ****** ****** ****** ******
   5  ****** ****** ****** ****** ****** ****** ****** ****** ****** ******
      ****** ****** ****** ****** ****** ****** ****** ****** ****** ******
      ****** ****** ****** ****** ****** ****** ****** ****** ****** ******
   6  ****** ****** ****** ****** ****** ****** ****** ****** ****** ******
      ****** ****** ****** ****** ****** ****** ****** ****** ****** ******
      ****** ****** ****** ****** ****** ****** ****** ****** ****** ******
   7  ****** ****** ****** ****** ****** ****** ****** ****** ****** ******
      ****** ****** ****** ****** ****** ****** ****** ****** ****** ******
      ****** ****** ****** ****** ****** ****** ****** ****** ****** ******
   8  ****** ****** ****** ****** ****** ****** ****** ****** ****** ******
      ****** ****** ****** ****** ****** ****** ****** ****** ****** ******
      ****** ****** ****** ****** ****** ****** ****** ****** ****** ******
   9  ****** ****** ****** ****** ****** ****** ****** ****** ****** ******
      ****** ****** ****** ****** ****** ****** ****** ****** ****** ******
      ****** ****** ****** ****** ****** ****** ****** ****** ****** ******
  10  ****** ****** ****** ****** ****** ****** ****** ****** ****** ******
      ****** ****** ****** ****** ****** ****** ****** ****** ****** ******
      ****** ****** ****** ****** ****** ****** ****** ****** ****** ******
  11  ****** ****** ****** ****** ****** ****** ****** ****** ****** ******
      ****** ****** ****** ****** ****** ****** ****** ****** ****** ******
      ****** ****** ****** ****** ****** ****** ****** ****** ****** ******
  12  ****** ****** ****** ****** ****** ****** ****** ****** ****** ******
      ****** ****** ****** ****** ****** ****** ****** ****** ****** ******
      ****** ****** ****** ****** ****** ****** ****** ****** ****** ******
  13  ****** ****** ****** ****** ****** ****** ****** ****** ****** ******
      ****** ****** ****** ****** ****** ****** ****** ****** ****** ******
      ****** ****** ****** ****** ****** ****** ****** ****** ****** ******
  14  ****** ****** ****** ****** ****** ****** ****** ****** ****** ******
      ****** ****** ****** ****** ****** ****** ****** ****** ****** ******
      ****** ****** ****** ****** ****** ****** ****** ****** ****** ******
  15  ****** ****** ****** ****** ****** ****** ****** ****** ****** ******
      ****** ****** ****** ****** ****** ****** ****** ****** ****** ******
      ****** ****** ****** ****** ****** ****** ****** ****** ****** ******
  16  ****** ****** ****** ****** ****** ****** ****** ****** ****** ******
      ****** ****** ****** ****** ****** ****** ****** ****** ****** ******
      ****** ****** ****** ****** ****** ****** ****** ****** ****** ******
  17  ****** ****** ****** ****** ****** ****** ****** ****** ****** ******
      ****** ****** ****** ****** ****** ****** ****** ****** ****** ******
      ****** ****** ****** ****** ****** ****** ****** ****** ****** ******
  18  ****** ****** ****** ****** ****** ****** ****** ****** ****** ******
      ****** ****** ****** ****** ****** ****** ****** ****** ****** ******
      ****** ****** ****** ****** ****** ****** ****** ****** ****** ******
  19  ****** ****** ****** ****** ****** ****** ****** ****** ****** ******
      ****** ****** ****** ****** ****** ****** ****** ****** ****** ******
      ****** ****** ****** ****** ****** ****** ****** ****** ****** ******
  20  ****** ****** ****** ****** ****** ****** ****** ****** ****** ******
      ****** ****** ****** ****** ****** ****** ****** ****** ****** ******
      ****** ****** ****** ****** ****** ****** ****** ****** ****** ******
  21  ****** ****** ****** ****** ****** ****** ****** ****** ****** ******
      ****** ****** ****** ****** ****** ****** ****** ****** ****** ******
      ****** ****** ****** ****** ****** ****** ****** ****** ****** ******
  22  ****** ****** ****** ****** ****** ****** ****** ****** ****** ******
      ****** ****** ****** ****** ****** ****** ****** ****** ****** ******
      ****** ****** ****** ****** ****** ****** ****** ****** ****** ******
  23  ****** ****** ****** ****** ****** ****** ****** ****** ****** ******
      ****** ****** ****** ****** ****** ****** ****** ****** ****** ******
      ****** ****** ****** ****** ****** ****** ****** ****** ****** ******
  24  ****** ****** ****** ****** ****** ****** ****** ****** ****** ******
      ****** ****** ****** ****** ****** ****** ****** ****** ****** ******
      ****** ****** ****** ****** ****** ****** ****** ****** ****** ******
  25  ****** ****** ****** ****** ****** ****** ****** ****** ****** ******
      ****** ****** ****** ****** ****** ****** ****** ****** ****** ******
      ****** ****** ****** ****** ****** ****** ****** ****** ****** ******

 HEAD WILL BE SAVED ON UNIT   51 AT END OF TIME STEP    1, STRESS PERIOD    1
1
  VOLUMETRIC BUDGET FOR ENTIRE MODEL AT END OF TIME STEP    1, STRESS PERIOD   1
  ------------------------------------------------------------------------------

     CUMULATIVE VOLUMES      L**3       RATES FOR THIS TIME STEP      L**3/T
     ------------------                 ------------------------

           IN:                                      IN:
           ---                                      ---
             STORAGE =    19364247.3346               STORAGE =      210480.9493
       CONSTANT HEAD =   109682894.9712         CONSTANT HEAD =     1192205.3801
               WELLS =           0.0000                 WELLS =           0.0000
            RECHARGE =     1269600.0000              RECHARGE =       13800.0000
      STREAM LEAKAGE =           0.0000        STREAM LEAKAGE =           0.0000

            TOTAL IN =   130316742.3058              TOTAL IN =     1416486.3294

          OUT:                                     OUT:
          ----                                     ----
             STORAGE =           0.0000               STORAGE =           0.0000
       CONSTANT HEAD =           0.0000         CONSTANT HEAD =           0.0000
               WELLS =    12420046.0000                 WELLS =      135000.5000
            RECHARGE =           0.0000              RECHARGE =           0.0000
      STREAM LEAKAGE =   117896697.9675        STREAM LEAKAGE =     1281485.8475

           TOTAL OUT =   130316743.9675             TOTAL OUT =     1416486.3475

            IN - OUT =          -1.6618              IN - OUT =      -1.8063E-02

 PERCENT DISCREPANCY =          -0.00     PERCENT DISCREPANCY =          -0.00






         TIME SUMMARY AT END OF TIME STEP    1 IN STRESS PERIOD    1
                    SECONDS     MINUTES      HOURS       DAYS        YEARS
                    -----------------------------------------------------------
   TIME STEP LENGTH 7.94880E+06 1.32480E+05  2208.0      92.000     0.25188    
 STRESS PERIOD TIME 7.94880E+06 1.32480E+05  2208.0      92.000     0.25188    
         TOTAL TIME 7.94880E+06 1.32480E+05  2208.0      92.000     0.25188    
1
1
                            STRESS PERIOD NO.    2, LENGTH =   91.00000    
                            -----------------------------------------------

                              NUMBER OF TIME STEPS =     1

                               MULTIPLIER FOR DELT =     1.500

                            INITIAL TIME STEP SIZE =   91.00000    

 WELL NO.  LAYER   ROW   COL   STRESS RATE         
 --------------------------------------------------
      1      1     22     22     -0.3000E+05
      2      1      2     29       0.000    
      3      1      5     21     -0.5500E+05

      3 WELLS

                 RECHARGE =  2.000000E-03

 REUSING STREAM SEGMENT DATA FROM LAST STRESS PERIOD
 
 SOLVING FOR HEAD 


     6 CALLS TO PCG ROUTINE FOR TIME STEP   1 IN STRESS PERIOD    2
    24 TOTAL ITERATIONS

 OUTPUT CONTROL FOR STRESS PERIOD    2   TIME STEP    1
    SAVE BUDGET
    SAVE HEAD FOR ALL LAYERS
    PRINT HEAD FOR ALL LAYERS
 UBDSV2 SAVING "STREAMFLOW OUT  " ON UNIT  50 AT TIME STEP  1, STRESS PERIOD   2



 STREAM LISTING     PERIOD      2   STEP        1

 LAYER ROW COL. STREAM  RCH.  FLOW INTO     FLOW TO   FLOW OUT OF   OVRLND.     DIRECT     STREAM       STREAM     STREAM     STREAM   STREAMBED  STREAMBED
                SEG.NO.  NO.  STRM. RCH.    AQUIFER    STRM. RCH.    RUNOFF     PRECIP       ET          HEAD       DEPTH      WIDTH   CONDCTNC.   GRADIENT

   1   13    1     1     1    1.0000E+05 -2.8488E+04   1.2849E+05  0.000E+00  0.000E+00  0.000E+00  4.84180E+01  1.567E-01  2.000E+01  2.000E+04 -1.424E+00
   1   13    2     1     2    1.2849E+05 -3.8358E+04   1.6685E+05  0.000E+00  0.000E+00  0.000E+00  4.79669E+01  1.828E-01  2.000E+01  2.000E+04 -1.918E+00
   1   14    3     1     3    1.6685E+05 -3.3808E+04   2.0065E+05  0.000E+00  0.000E+00  0.000E+00  4.75152E+01  2.084E-01  2.000E+01  2.000E+04 -1.690E+00
   1   15    4     1     4    2.0065E+05 -3.3009E+04   2.3366E+05  0.000E+00  0.000E+00  0.000E+00  4.70599E+01  2.304E-01  2.000E+01  2.000E+04 -1.650E+00
   1   16    5     1     5    2.3366E+05 -3.4455E+04   2.6812E+05  0.000E+00  0.000E+00  0.000E+00  4.66035E+01  2.512E-01  2.000E+01  2.000E+04 -1.723E+00
   1   16    6     1     6    2.6812E+05 -3.0095E+04   2.9821E+05  0.000E+00  0.000E+00  0.000E+00  4.61451E+01  2.701E-01  2.000E+01  2.000E+04 -1.505E+00
   1   16    7     1     7    2.9821E+05 -2.9906E+04   3.2812E+05  0.000E+00  0.000E+00  0.000E+00  4.56847E+01  2.869E-01  2.000E+01  2.000E+04 -1.495E+00
   1   16    8     1     8    3.2812E+05 -3.0083E+04   3.5820E+05  0.000E+00  0.000E+00  0.000E+00  4.52236E+01  3.031E-01  2.000E+01  2.000E+04 -1.504E+00
   1   16    9     1     9    3.5820E+05 -3.0153E+04   3.8835E+05  0.000E+00  0.000E+00  0.000E+00  4.47620E+01  3.188E-01  2.000E+01  2.000E+04 -1.508E+00
   1   16   10     1    10    3.8835E+05 -3.0164E+04   4.1852E+05  0.000E+00  0.000E+00  0.000E+00  4.42999E+01  3.340E-01  2.000E+01  2.000E+04 -1.508E+00
   1   16   11     1    11    4.1852E+05 -3.0750E+04   4.4927E+05  0.000E+00  0.000E+00  0.000E+00  4.38376E+01  3.489E-01  2.000E+01  2.000E+04 -1.538E+00
   1   16   12     1    12    4.4927E+05 -3.6285E+04   4.8555E+05  0.000E+00  0.000E+00  0.000E+00  4.33762E+01  3.649E-01  2.000E+01  2.000E+04 -1.814E+00
   1   15   13     1    13    4.8555E+05 -3.5010E+04   5.2056E+05  0.000E+00  0.000E+00  0.000E+00  4.29154E+01  3.813E-01  2.000E+01  2.000E+04 -1.750E+00
   1   14   14     1    14    5.2056E+05 -3.5504E+04   5.5607E+05  0.000E+00  0.000E+00  0.000E+00  4.24540E+01  3.971E-01  2.000E+01  2.000E+04 -1.775E+00
   1   13   15     1    15    5.5607E+05 -3.7519E+04   5.9359E+05  0.000E+00  0.000E+00  0.000E+00  4.19926E+01  4.131E-01  2.000E+01  2.000E+04 -1.876E+00
   1   12   16     1    16    5.9359E+05 -4.3093E+04   6.3668E+05  0.000E+00  0.000E+00  0.000E+00  4.15325E+01  4.302E-01  2.000E+01  2.000E+04 -2.155E+00
   1   12   17     1    17    6.3668E+05 -3.3436E+04   6.7011E+05  0.000E+00  0.000E+00  0.000E+00  4.10711E+01  4.461E-01  2.000E+01  2.000E+04 -1.672E+00
   1   12   18     1    18    6.7011E+05 -3.1563E+04   7.0168E+05  0.000E+00  0.000E+00  0.000E+00  4.06070E+01  4.593E-01  2.000E+01  2.000E+04 -1.578E+00
   1   12   19     1    19    7.0168E+05 -3.5183E+04   7.3686E+05  0.000E+00  0.000E+00  0.000E+00  4.01430E+01  4.726E-01  2.000E+01  2.000E+04 -1.759E+00
   1   13   20     1    20    7.3686E+05 -2.6027E+04   7.6289E+05  0.000E+00  0.000E+00  0.000E+00  3.96777E+01  4.845E-01  2.000E+01  2.000E+04 -1.301E+00
   1   14   21     1    21    7.6289E+05 -1.9254E+04   7.8214E+05  0.000E+00  0.000E+00  0.000E+00  3.92092E+01  4.933E-01  2.000E+01  2.000E+04 -9.627E-01
   1   14   22     1    22    7.8214E+05 -1.4989E+03   7.8364E+05  0.000E+00  0.000E+00  0.000E+00  3.87359E+01  4.972E-01  2.000E+01  2.000E+04 -7.495E-02
   1    9   30     2     1    5.0000E+04 -2.6372E+04   7.6372E+04  0.000E+00  0.000E+00  0.000E+00  4.02583E+01  1.333E-01  2.000E+01  2.000E+04 -1.319E+00
   1    9   29     2     2    7.6372E+04 -2.8741E+04   1.0511E+05  0.000E+00  0.000E+00  0.000E+00  4.00407E+01  1.657E-01  2.000E+01  2.000E+04 -1.437E+00
   1    9   28     2     3    1.0511E+05 -3.2774E+04   1.3789E+05  0.000E+00  0.000E+00  0.000E+00  3.98224E+01  1.974E-01  2.000E+01  2.000E+04 -1.639E+00
   1    9   27     2     4    1.3789E+05 -4.6181E+04   1.8407E+05  0.000E+00  0.000E+00  0.000E+00  3.96087E+01  2.337E-01  2.000E+01  2.000E+04 -2.309E+00
   1   10   26     2     5    1.8407E+05 -3.2193E+04   2.1626E+05  0.000E+00  0.000E+00  0.000E+00  3.93913E+01  2.663E-01  2.000E+01  2.000E+04 -1.610E+00
   1   11   25     2     6    2.1626E+05 -2.3967E+04   2.4023E+05  0.000E+00  0.000E+00  0.000E+00  3.91631E+01  2.881E-01  2.000E+01  2.000E+04 -1.198E+00
   1   12   24     2     7    2.4023E+05 -1.7643E+04   2.5787E+05  0.000E+00  0.000E+00  0.000E+00  3.89286E+01  3.036E-01  2.000E+01  2.000E+04 -8.821E-01
   1   13   23     2     8    2.5787E+05 -1.2619E+04   2.7049E+05  0.000E+00  0.000E+00  0.000E+00  3.86896E+01  3.146E-01  2.000E+01  2.000E+04 -6.310E-01
   1   14   22     2     9    2.7049E+05 -7.2835E+03   2.7777E+05  0.000E+00  0.000E+00  0.000E+00  3.84466E+01  3.216E-01  2.000E+01  2.000E+04 -3.642E-01
   1   14   22     3     1    1.0614E+06 -1.5157E+04   1.0766E+06  0.000E+00  0.000E+00  0.000E+00  3.80529E+01  4.974E-01  2.000E+01  2.000E+04 -7.579E-01
   1   15   23     3     2    1.0766E+06 -2.3224E+04   1.0998E+06  0.000E+00  0.000E+00  0.000E+00  3.71694E+01  5.027E-01  2.000E+01  2.000E+04 -1.161E+00
   1   15   24     3     3    1.0998E+06 -1.9417E+04   1.1192E+06  0.000E+00  0.000E+00  0.000E+00  3.62864E+01  5.086E-01  2.000E+01  2.000E+04 -9.708E-01
   1   15   25     3     4    1.1192E+06 -1.9143E+04   1.1384E+06  0.000E+00  0.000E+00  0.000E+00  3.54028E+01  5.139E-01  2.000E+01  2.000E+04 -9.572E-01
   1   15   26     3     5    1.1384E+06 -2.2063E+04   1.1604E+06  0.000E+00  0.000E+00  0.000E+00  3.45195E+01  5.195E-01  2.000E+01  2.000E+04 -1.103E+00
   1   16   27     3     6    1.1604E+06 -2.9153E+04   1.1896E+06  0.000E+00  0.000E+00  0.000E+00  3.36375E+01  5.264E-01  2.000E+01  2.000E+04 -1.458E+00
   1   17   28     3     7    1.1896E+06 -3.6188E+04   1.2258E+06  0.000E+00  0.000E+00  0.000E+00  3.27574E+01  5.351E-01  2.000E+01  2.000E+04 -1.809E+00
   1   18   29     3     8    1.2258E+06 -4.7156E+04   1.2729E+06  0.000E+00  0.000E+00  0.000E+00  3.18795E+01  5.461E-01  2.000E+01  2.000E+04 -2.358E+00
   1   18   30     3     9    1.2729E+06 -4.3740E+04   1.3167E+06  0.000E+00  0.000E+00  0.000E+00  3.10024E+01  5.580E-01  2.000E+01  2.000E+04 -2.187E+00



1
              HEAD IN LAYER   1 AT END OF TIME STEP   1 IN STRESS PERIOD    2
  ---------------------------------------------------------------------------

          1      2      3      4      5      6      7      8      9     10
         11     12     13     14     15     16     17     18     19     20
         21     22     23     24     25     26     27     28     29     30
 .........................................................................
   1  ****** ****** ****** ****** ****** ****** ****** ****** ****** ******
      ****** ****** ****** ****** ****** ****** ****** ****** ****** ******
      ****** ****** ****** ****** ****** ****** ****** ****** ****** ******
   2  ****** ****** ****** ****** ****** ****** ****** ****** ****** ******
      ****** ****** ****** ****** ****** ****** ****** ****** ****** ******
      ****** ****** ****** ****** ****** ****** ****** ****** ****** ******
   3  ****** ****** ****** ****** ****** ****** ****** ****** ****** ******
      ****** ****** ****** ****** ****** ****** ****** ****** ****** ******
      ****** ****** ****** ****** ****** ****** ****** ****** ****** ******
   4  ****** ****** ****** ****** ****** ****** ****** ****** ****** ******
      ****** ****** ****** ****** ****** ****** ****** ****** ****** ******
      ****** ****** ****** ****** ****** ****** ****** ****** ****** ******
   5  ****** ****** ****** ****** ****** ****** ****** ****** ****** ******
      ****** ****** ****** ****** ****** ****** ****** ****** ****** ******
      ****** ****** ****** ****** ****** ****** ****** ****** ****** ******
   6  ****** ****** ****** ****** ****** ****** ****** ****** ****** ******
      ****** ****** ****** ****** ****** ****** ****** ****** ****** ******
      ****** ****** ****** ****** ****** ****** ****** ****** ****** ******
   7  ****** ****** ****** ****** ****** ****** ****** ****** ****** ******
      ****** ****** ****** ****** ****** ****** ****** ****** ****** ******
      ****** ****** ****** ****** ****** ****** ****** ****** ****** ******
   8  ****** ****** ****** ****** ****** ****** ****** ****** ****** ******
      ****** ****** ****** ****** ****** ****** ****** ****** ****** ******
      ****** ****** ****** ****** ****** ****** ****** ****** ****** ******
   9  ****** ****** ****** ****** ****** ****** ****** ****** ****** ******
      ****** ****** ****** ****** ****** ****** ****** ****** ****** ******
      ****** ****** ****** ****** ****** ****** ****** ****** ****** ******
  10  ****** ****** ****** ****** ****** ****** ****** ****** ****** ******
      ****** ****** ****** ****** ****** ****** ****** ****** ****** ******
      ****** ****** ****** ****** ****** ****** ****** ****** ****** ******
  11  ****** ****** ****** ****** ****** ****** ****** ****** ****** ******
      ****** ****** ****** ****** ****** ****** ****** ****** ****** ******
      ****** ****** ****** ****** ****** ****** ****** ****** ****** ******
  12  ****** ****** ****** ****** ****** ****** ****** ****** ****** ******
      ****** ****** ****** ****** ****** ****** ****** ****** ****** ******
      ****** ****** ****** ****** ****** ****** ****** ****** ****** ******
  13  ****** ****** ****** ****** ****** ****** ****** ****** ****** ******
      ****** ****** ****** ****** ****** ****** ****** ****** ****** ******
      ****** ****** ****** ****** ****** ****** ****** ****** ****** ******
  14  ****** ****** ****** ****** ****** ****** ****** ****** ****** ******
      ****** ****** ****** ****** ****** ****** ****** ****** ****** ******
      ****** ****** ****** ****** ****** ****** ****** ****** ****** ******
  15  ****** ****** ****** ****** ****** ****** ****** ****** ****** ******
      ****** ****** ****** ****** ****** ****** ****** ****** ****** ******
      ****** ****** ****** ****** ****** ****** ****** ****** ****** ******
  16  ****** ****** ****** ****** ****** ****** ****** ****** ****** ******
      ****** ****** ****** ****** ****** ****** ****** ****** ****** ******
      ****** ****** ****** ****** ****** ****** ****** ****** ****** ******
  17  ****** ****** ****** ****** ****** ****** ****** ****** ****** ******
      ****** ****** ****** ****** ****** ****** ****** ****** ****** ******
      ****** ****** ****** ****** ****** ****** ****** ****** ****** ******
  18  ****** ****** ****** ****** ****** ****** ****** ****** ****** ******
      ****** ****** ****** ****** ****** ****** ****** ****** ****** ******
      ****** ****** ****** ****** ****** ****** ****** ****** ****** ******
  19  ****** ****** ****** ****** ****** ****** ****** ****** ****** ******
      ****** ****** ****** ****** ****** ****** ****** ****** ****** ******
      ****** ****** ****** ****** ****** ****** ****** ****** ****** ******
  20  ****** ****** ****** ****** ****** ****** ****** ****** ****** ******
      ****** ****** ****** ****** ****** ****** ****** ****** ****** ******
      ****** ****** ****** ****** ****** ****** ****** ****** ****** ******
  21  ****** ****** ****** ****** ****** ****** ****** ****** ****** ******
      ****** ****** ****** ****** ****** ****** ****** ****** ****** ******
      ****** ****** ****** ****** ****** ****** ****** ****** ****** ******
  22  ****** ****** ****** ****** ****** ****** ****** ****** ****** ******
      ****** ****** ****** ****** ****** ****** ****** ****** ****** ******
      ****** ****** ****** ****** ****** ****** ****** ****** ****** ******
  23  ****** ****** ****** ****** ****** ****** ****** ****** ****** ******
      ****** ****** ****** ****** ****** ****** ****** ****** ****** ******
      ****** ****** ****** ****** ****** ****** ****** ****** ****** ******
  24  ****** ****** ****** ****** ****** ****** ****** ****** ****** ******
      ****** ****** ****** ****** ****** ****** ****** ****** ****** ******
      ****** ****** ****** ****** ****** ****** ****** ****** ****** ******
  25  ****** ****** ****** ****** ****** ****** ****** ****** ****** ******
      ****** ****** ****** ****** ****** ****** ****** ****** ****** ******
      ****** ****** ****** ****** ****** ****** ****** ****** ****** ******

 HEAD WILL BE SAVED ON UNIT   51 AT END OF TIME STEP    1, STRESS PERIOD    2
1
  VOLUMETRIC BUDGET FOR ENTIRE MODEL AT END OF TIME STEP    1, STRESS PERIOD   2
  ------------------------------------------------------------------------------

     CUMULATIVE VOLUMES      L**3       RATES FOR THIS TIME STEP      L**3/T
     ------------------                 ------------------------

           IN:                                      IN:
           ---                                      ---
             STORAGE =    20010503.7177               STORAGE =        7101.7185
       CONSTANT HEAD =   217951313.2143         CONSTANT HEAD =     1189762.8378
               WELLS =           0.0000                 WELLS =           0.0000
            RECHARGE =     6292800.0000              RECHARGE =       55200.0000
      STREAM LEAKAGE =           0.0000        STREAM LEAKAGE =           0.0000

            TOTAL IN =   244254616.9320              TOTAL IN =     1252064.5563

          OUT:                                     OUT:
          ----                                     ----
             STORAGE =       37147.2002               STORAGE =         408.2110
       CONSTANT HEAD =           0.0000         CONSTANT HEAD =           0.0000
               WELLS =    20155091.5000                 WELLS =       85000.5000
            RECHARGE =           0.0000              RECHARGE =           0.0000
      STREAM LEAKAGE =   224062385.3261        STREAM LEAKAGE =     1166655.9050

           TOTAL OUT =   244254624.0263             TOTAL OUT =     1252064.6160

            IN - OUT =          -7.0943              IN - OUT =      -5.9699E-02

 PERCENT DISCREPANCY =          -0.00     PERCENT DISCREPANCY =          -0.00






         TIME SUMMARY AT END OF TIME STEP    1 IN STRESS PERIOD    2
                    SECONDS     MINUTES      HOURS       DAYS        YEARS
                    -----------------------------------------------------------
   TIME STEP LENGTH 7.86240E+06 1.31040E+05  2184.0      91.000     0.24914    
 STRESS PERIOD TIME 7.86240E+06 1.31040E+05  2184.0      91.000     0.24914    
         TOTAL TIME 1.58112E+07 2.63520E+05  4392.0      183.00     0.50103    
1
1
                            STRESS PERIOD NO.    3, LENGTH =   91.00000    
                            -----------------------------------------------

                              NUMBER OF TIME STEPS =     1

                               MULTIPLIER FOR DELT =     1.500

                            INITIAL TIME STEP SIZE =   91.00000    

 WELL NO.  LAYER   ROW   COL   STRESS RATE         
 --------------------------------------------------
      1      1     22     22     -0.3000E+05
      2      1      2     29     -0.5000E+05
      3      1      5     21     -0.5000E+05

      3 WELLS

                 RECHARGE =   0.00000    

 REUSING STREAM SEGMENT DATA FROM LAST STRESS PERIOD
 
 SOLVING FOR HEAD 


     6 CALLS TO PCG ROUTINE FOR TIME STEP   1 IN STRESS PERIOD    3
    23 TOTAL ITERATIONS

 OUTPUT CONTROL FOR STRESS PERIOD    3   TIME STEP    1
    SAVE BUDGET
    SAVE HEAD FOR ALL LAYERS
    PRINT HEAD FOR ALL LAYERS
 UBDSV2 SAVING "STREAMFLOW OUT  " ON UNIT  50 AT TIME STEP  1, STRESS PERIOD   3



 STREAM LISTING     PERIOD      3   STEP        1

 LAYER ROW COL. STREAM  RCH.  FLOW INTO     FLOW TO   FLOW OUT OF   OVRLND.     DIRECT     STREAM       STREAM     STREAM     STREAM   STREAMBED  STREAMBED
                SEG.NO.  NO.  STRM. RCH.    AQUIFER    STRM. RCH.    RUNOFF     PRECIP       ET          HEAD       DEPTH      WIDTH   CONDCTNC.   GRADIENT

   1   13    1     1     1    1.0000E+05 -2.7459E+04   1.2746E+05  0.000E+00  0.000E+00  0.000E+00  4.84176E+01  1.563E-01  2.000E+01  2.000E+04 -1.373E+00
   1   13    2     1     2    1.2746E+05 -3.7121E+04   1.6458E+05  0.000E+00  0.000E+00  0.000E+00  4.79656E+01  1.815E-01  2.000E+01  2.000E+04 -1.856E+00
   1   14    3     1     3    1.6458E+05 -3.2612E+04   1.9719E+05  0.000E+00  0.000E+00  0.000E+00  4.75132E+01  2.064E-01  2.000E+01  2.000E+04 -1.631E+00
   1   15    4     1     4    1.9719E+05 -3.1869E+04   2.2906E+05  0.000E+00  0.000E+00  0.000E+00  4.70573E+01  2.278E-01  2.000E+01  2.000E+04 -1.593E+00
   1   16    5     1     5    2.2906E+05 -3.3438E+04   2.6250E+05  0.000E+00  0.000E+00  0.000E+00  4.66004E+01  2.481E-01  2.000E+01  2.000E+04 -1.672E+00
   1   16    6     1     6    2.6250E+05 -2.9208E+04   2.9171E+05  0.000E+00  0.000E+00  0.000E+00  4.61416E+01  2.666E-01  2.000E+01  2.000E+04 -1.460E+00
   1   16    7     1     7    2.9171E+05 -2.9025E+04   3.2073E+05  0.000E+00  0.000E+00  0.000E+00  4.56808E+01  2.831E-01  2.000E+01  2.000E+04 -1.451E+00
   1   16    8     1     8    3.2073E+05 -2.9199E+04   3.4993E+05  0.000E+00  0.000E+00  0.000E+00  4.52194E+01  2.990E-01  2.000E+01  2.000E+04 -1.460E+00
   1   16    9     1     9    3.4993E+05 -2.9270E+04   3.7920E+05  0.000E+00  0.000E+00  0.000E+00  4.47575E+01  3.143E-01  2.000E+01  2.000E+04 -1.463E+00
   1   16   10     1    10    3.7920E+05 -2.9284E+04   4.0849E+05  0.000E+00  0.000E+00  0.000E+00  4.42952E+01  3.292E-01  2.000E+01  2.000E+04 -1.464E+00
   1   16   11     1    11    4.0849E+05 -2.9860E+04   4.3835E+05  0.000E+00  0.000E+00  0.000E+00  4.38325E+01  3.439E-01  2.000E+01  2.000E+04 -1.493E+00
   1   16   12     1    12    4.3835E+05 -3.5248E+04   4.7359E+05  0.000E+00  0.000E+00  0.000E+00  4.33709E+01  3.595E-01  2.000E+01  2.000E+04 -1.762E+00
   1   15   13     1    13    4.7359E+05 -3.3857E+04   5.0745E+05  0.000E+00  0.000E+00  0.000E+00  4.29097E+01  3.756E-01  2.000E+01  2.000E+04 -1.693E+00
   1   14   14     1    14    5.0745E+05 -3.4313E+04   5.4176E+05  0.000E+00  0.000E+00  0.000E+00  4.24479E+01  3.910E-01  2.000E+01  2.000E+04 -1.716E+00
   1   13   15     1    15    5.4176E+05 -3.6347E+04   5.7811E+05  0.000E+00  0.000E+00  0.000E+00  4.19862E+01  4.066E-01  2.000E+01  2.000E+04 -1.817E+00
   1   12   16     1    16    5.7811E+05 -4.1985E+04   6.2010E+05  0.000E+00  0.000E+00  0.000E+00  4.15257E+01  4.235E-01  2.000E+01  2.000E+04 -2.099E+00
   1   12   17     1    17    6.2010E+05 -3.2562E+04   6.5266E+05  0.000E+00  0.000E+00  0.000E+00  4.10641E+01  4.391E-01  2.000E+01  2.000E+04 -1.628E+00
   1   12   18     1    18    6.5266E+05 -3.0742E+04   6.8340E+05  0.000E+00  0.000E+00  0.000E+00  4.05998E+01  4.521E-01  2.000E+01  2.000E+04 -1.537E+00
   1   12   19     1    19    6.8340E+05 -3.4297E+04   7.1770E+05  0.000E+00  0.000E+00  0.000E+00  4.01356E+01  4.651E-01  2.000E+01  2.000E+04 -1.715E+00
   1   13   20     1    20    7.1770E+05 -2.5171E+04   7.4287E+05  0.000E+00  0.000E+00  0.000E+00  3.96701E+01  4.769E-01  2.000E+01  2.000E+04 -1.259E+00
   1   14   21     1    21    7.4287E+05 -1.8497E+04   7.6136E+05  0.000E+00  0.000E+00  0.000E+00  3.92013E+01  4.854E-01  2.000E+01  2.000E+04 -9.248E-01
   1   14   22     1    22    7.6136E+05 -1.2155E+03   7.6258E+05  0.000E+00  0.000E+00  0.000E+00  3.87278E+01  4.892E-01  2.000E+01  2.000E+04 -6.078E-02
   1    9   30     2     1    5.0000E+04 -2.4783E+04   7.4783E+04  0.000E+00  0.000E+00  0.000E+00  4.02573E+01  1.323E-01  2.000E+01  2.000E+04 -1.239E+00
   1    9   29     2     2    7.4783E+04 -2.7212E+04   1.0200E+05  0.000E+00  0.000E+00  0.000E+00  4.00381E+01  1.631E-01  2.000E+01  2.000E+04 -1.361E+00
   1    9   28     2     3    1.0200E+05 -3.1312E+04   1.3331E+05  0.000E+00  0.000E+00  0.000E+00  3.98186E+01  1.936E-01  2.000E+01  2.000E+04 -1.566E+00
   1    9   27     2     4    1.3331E+05 -4.4610E+04   1.7792E+05  0.000E+00  0.000E+00  0.000E+00  3.96040E+01  2.290E-01  2.000E+01  2.000E+04 -2.231E+00
   1   10   26     2     5    1.7792E+05 -3.1020E+04   2.0894E+05  0.000E+00  0.000E+00  0.000E+00  3.93859E+01  2.609E-01  2.000E+01  2.000E+04 -1.551E+00
   1   11   25     2     6    2.0894E+05 -2.3010E+04   2.3195E+05  0.000E+00  0.000E+00  0.000E+00  3.91572E+01  2.822E-01  2.000E+01  2.000E+04 -1.150E+00
   1   12   24     2     7    2.3195E+05 -1.6860E+04   2.4881E+05  0.000E+00  0.000E+00  0.000E+00  3.89222E+01  2.972E-01  2.000E+01  2.000E+04 -8.430E-01
   1   13   23     2     8    2.4881E+05 -1.2015E+04   2.6082E+05  0.000E+00  0.000E+00  0.000E+00  3.86828E+01  3.078E-01  2.000E+01  2.000E+04 -6.008E-01
   1   14   22     2     9    2.6082E+05 -6.9791E+03   2.6780E+05  0.000E+00  0.000E+00  0.000E+00  3.84397E+01  3.147E-01  2.000E+01  2.000E+04 -3.490E-01
   1   14   22     3     1    1.0304E+06 -1.4889E+04   1.0453E+06  0.000E+00  0.000E+00  0.000E+00  3.80442E+01  4.886E-01  2.000E+01  2.000E+04 -7.444E-01
   1   15   23     3     2    1.0453E+06 -2.2520E+04   1.0678E+06  0.000E+00  0.000E+00  0.000E+00  3.71606E+01  4.939E-01  2.000E+01  2.000E+04 -1.126E+00
   1   15   24     3     3    1.0678E+06 -1.8835E+04   1.0866E+06  0.000E+00  0.000E+00  0.000E+00  3.62774E+01  4.997E-01  2.000E+01  2.000E+04 -9.418E-01
   1   15   25     3     4    1.0866E+06 -1.8561E+04   1.1052E+06  0.000E+00  0.000E+00  0.000E+00  3.53937E+01  5.049E-01  2.000E+01  2.000E+04 -9.281E-01
   1   15   26     3     5    1.1052E+06 -2.1375E+04   1.1266E+06  0.000E+00  0.000E+00  0.000E+00  3.45104E+01  5.104E-01  2.000E+01  2.000E+04 -1.069E+00
   1   16   27     3     6    1.1266E+06 -2.8327E+04   1.1549E+06  0.000E+00  0.000E+00  0.000E+00  3.36283E+01  5.171E-01  2.000E+01  2.000E+04 -1.416E+00
   1   17   28     3     7    1.1549E+06 -3.5350E+04   1.1902E+06  0.000E+00  0.000E+00  0.000E+00  3.27480E+01  5.258E-01  2.000E+01  2.000E+04 -1.768E+00
   1   18   29     3     8    1.1902E+06 -4.6380E+04   1.2366E+06  0.000E+00  0.000E+00  0.000E+00  3.18700E+01  5.367E-01  2.000E+01  2.000E+04 -2.319E+00
   1   18   30     3     9    1.2366E+06 -4.3093E+04   1.2797E+06  0.000E+00  0.000E+00  0.000E+00  3.09929E+01  5.485E-01  2.000E+01  2.000E+04 -2.155E+00



1
              HEAD IN LAYER   1 AT END OF TIME STEP   1 IN STRESS PERIOD    3
  ---------------------------------------------------------------------------

          1      2      3      4      5      6      7      8      9     10
         11     12     13     14     15     16     17     18     19     20
         21     22     23     24     25     26     27     28     29     30
 .........................................................................
   1  ****** ****** ****** ****** ****** ****** ****** ****** ****** ******
      ****** ****** ****** ****** ****** ****** ****** ****** ****** ******
      ****** ****** ****** ****** ****** ****** ****** ****** ****** ******
   2  ****** ****** ****** ****** ****** ****** ****** ****** ****** ******
      ****** ****** ****** ****** ****** ****** ****** ****** ****** ******
      ****** ****** ****** ****** ****** ****** ****** ****** ****** ******
   3  ****** ****** ****** ****** ****** ****** ****** ****** ****** ******
      ****** ****** ****** ****** ****** ****** ****** ****** ****** ******
      ****** ****** ****** ****** ****** ****** ****** ****** ****** ******
   4  ****** ****** ****** ****** ****** ****** ****** ****** ****** ******
      ****** ****** ****** ****** ****** ****** ****** ****** ****** ******
      ****** ****** ****** ****** ****** ****** ****** ****** ****** ******
   5  ****** ****** ****** ****** ****** ****** ****** ****** ****** ******
      ****** ****** ****** ****** ****** ****** ****** ****** ****** ******
      ****** ****** ****** ****** ****** ****** ****** ****** ****** ******
   6  ****** ****** ****** ****** ****** ****** ****** ****** ****** ******
      ****** ****** ****** ****** ****** ****** ****** ****** ****** ******
      ****** ****** ****** ****** ****** ****** ****** ****** ****** ******
   7  ****** ****** ****** ****** ****** ****** ****** ****** ****** ******
      ****** ****** ****** ****** ****** ****** ****** ****** ****** ******
      ****** ****** ****** ****** ****** ****** ****** ****** ****** ******
   8  ****** ****** ****** ****** ****** ****** ****** ****** ****** ******
      ****** ****** ****** ****** ****** ****** ****** ****** ****** ******
      ****** ****** ****** ****** ****** ****** ****** ****** ****** ******
   9  ****** ****** ****** ****** ****** ****** ****** ****** ****** ******
      ****** ****** ****** ****** ****** ****** ****** ****** ****** ******
      ****** ****** ****** ****** ****** ****** ****** ****** ****** ******
  10  ****** ****** ****** ****** ****** ****** ****** ****** ****** ******
      ****** ****** ****** ****** ****** ****** ****** ****** ****** ******
      ****** ****** ****** ****** ****** ****** ****** ****** ****** ******
  11  ****** ****** ****** ****** ****** ****** ****** ****** ****** ******
      ****** ****** ****** ****** ****** ****** ****** ****** ****** ******
      ****** ****** ****** ****** ****** ****** ****** ****** ****** ******
  12  ****** ****** ****** ****** ****** ****** ****** ****** ****** ******
      ****** ****** ****** ****** ****** ****** ****** ****** ****** ******
      ****** ****** ****** ****** ****** ****** ****** ****** ****** ******
  13  ****** ****** ****** ****** ****** ****** ****** ****** ****** ******
      ****** ****** ****** ****** ****** ****** ****** ****** ****** ******
      ****** ****** ****** ****** ****** ****** ****** ****** ****** ******
  14  ****** ****** ****** ****** ****** ****** ****** ****** ****** ******
      ****** ****** ****** ****** ****** ****** ****** ****** ****** ******
      ****** ****** ****** ****** ****** ****** ****** ****** ****** ******
  15  ****** ****** ****** ****** ****** ****** ****** ****** ****** ******
      ****** ****** ****** ****** ****** ****** ****** ****** ****** ******
      ****** ****** ****** ****** ****** ****** ****** ****** ****** ******
  16  ****** ****** ****** ****** ****** ****** ****** ****** ****** ******
      ****** ****** ****** ****** ****** ****** ****** ****** ****** ******
      ****** ****** ****** ****** ****** ****** ****** ****** ****** ******
  17  ****** ****** ****** ****** ****** ****** ****** ****** ****** ******
      ****** ****** ****** ****** ****** ****** ****** ****** ****** ******
      ****** ****** ****** ****** ****** ****** ****** ****** ****** ******
  18  ****** ****** ****** ****** ****** ****** ****** ****** ****** ******
      ****** ****** ****** ****** ****** ****** ****** ****** ****** ******
      ****** ****** ****** ****** ****** ****** ****** ****** ****** ******
  19  ****** ****** ****** ****** ****** ****** ****** ****** ****** ******
      ****** ****** ****** ****** ****** ****** ****** ****** ****** ******
      ****** ****** ****** ****** ****** ****** ****** ****** ****** ******
  20  ****** ****** ****** ****** ****** ****** ****** ****** ****** ******
      ****** ****** ****** ****** ****** ****** ****** ****** ****** ******
      ****** ****** ****** ****** ****** ****** ****** ****** ****** ******
  21  ****** ****** ****** ****** ****** ****** ****** ****** ****** ******
      ****** ****** ****** ****** ****** ****** ****** ****** ****** ******
      ****** ****** ****** ****** ****** ****** ****** ****** ****** ******
  22  ****** ****** ****** ****** ****** ****** ****** ****** ****** ******
      ****** ****** ****** ****** ****** ****** ****** ****** ****** ******
      ****** ****** ****** ****** ****** ****** ****** ****** ****** ******
  23  ****** ****** ****** ****** ****** ****** ****** ****** ****** ******
      ****** ****** ****** ****** ****** ****** ****** ****** ****** ******
      ****** ****** ****** ****** ****** ****** ****** ****** ****** ******
  24  ****** ****** ****** ****** ****** ****** ****** ****** ****** ******
      ****** ****** ****** ****** ****** ****** ****** ****** ****** ******
      ****** ****** ****** ****** ****** ****** ****** ****** ****** ******
  25  ****** ****** ****** ****** ****** ****** ****** ****** ****** ******
      ****** ****** ****** ****** ****** ****** ****** ****** ****** ******
      ****** ****** ****** ****** ****** ****** ****** ****** ****** ******

 HEAD WILL BE SAVED ON UNIT   51 AT END OF TIME STEP    1, STRESS PERIOD    3
1
  VOLUMETRIC BUDGET FOR ENTIRE MODEL AT END OF TIME STEP    1, STRESS PERIOD   3
  ------------------------------------------------------------------------------

     CUMULATIVE VOLUMES      L**3       RATES FOR THIS TIME STEP      L**3/T
     ------------------                 ------------------------

           IN:                                      IN:
           ---                                      ---
             STORAGE =    20338727.4306               STORAGE =        3606.8540
       CONSTANT HEAD =   332257217.8355         CONSTANT HEAD =     1256108.8420
               WELLS =           0.0000                 WELLS =           0.0000
            RECHARGE =     6292800.0000              RECHARGE =           0.0000
      STREAM LEAKAGE =           0.0000        STREAM LEAKAGE =           0.0000

            TOTAL IN =   358888745.2660              TOTAL IN =     1259715.6960

          OUT:                                     OUT:
          ----                                     ----
             STORAGE =       37551.5797               STORAGE =           4.4437
       CONSTANT HEAD =           0.0000         CONSTANT HEAD =           0.0000
               WELLS =    31985091.5000                 WELLS =      130000.0000
            RECHARGE =           0.0000              RECHARGE =           0.0000
      STREAM LEAKAGE =   326866113.3387        STREAM LEAKAGE =     1129711.2968

           TOTAL OUT =   358888756.4183             TOTAL OUT =     1259715.7406

            IN - OUT =         -11.1523              IN - OUT =      -4.4593E-02

 PERCENT DISCREPANCY =          -0.00     PERCENT DISCREPANCY =          -0.00






         TIME SUMMARY AT END OF TIME STEP    1 IN STRESS PERIOD    3
                    SECONDS     MINUTES      HOURS       DAYS        YEARS
                    -----------------------------------------------------------
   TIME STEP LENGTH 7.86240E+06 1.31040E+05  2184.0      91.000     0.24914    
 STRESS PERIOD TIME 7.86240E+06 1.31040E+05  2184.0      91.000     0.24914    
         TOTAL TIME 2.36736E+07 3.94560E+05  6576.0      274.00     0.75017    
1
1
                            STRESS PERIOD NO.    4, LENGTH =   91.00000    
                            -----------------------------------------------

                              NUMBER OF TIME STEPS =     1

                               MULTIPLIER FOR DELT =     1.500

                            INITIAL TIME STEP SIZE =   91.00000    

 WELL NO.  LAYER   ROW   COL   STRESS RATE         
 --------------------------------------------------
      1      1     22     22     -0.3000E+05
      2      1      2     29       0.000    
      3      1      5     21     -0.5000E+05

      3 WELLS

                 RECHARGE =  1.000000E-03

 REUSING STREAM SEGMENT DATA FROM LAST STRESS PERIOD
 
 SOLVING FOR HEAD 


     6 CALLS TO PCG ROUTINE FOR TIME STEP   1 IN STRESS PERIOD    4
    22 TOTAL ITERATIONS

 OUTPUT CONTROL FOR STRESS PERIOD    4   TIME STEP    1
    SAVE BUDGET
    SAVE HEAD FOR ALL LAYERS
    PRINT HEAD FOR ALL LAYERS
 UBDSV2 SAVING "STREAMFLOW OUT  " ON UNIT  50 AT TIME STEP  1, STRESS PERIOD   4



 STREAM LISTING     PERIOD      4   STEP        1

 LAYER ROW COL. STREAM  RCH.  FLOW INTO     FLOW TO   FLOW OUT OF   OVRLND.     DIRECT     STREAM       STREAM     STREAM     STREAM   STREAMBED  STREAMBED
                SEG.NO.  NO.  STRM. RCH.    AQUIFER    STRM. RCH.    RUNOFF     PRECIP       ET          HEAD       DEPTH      WIDTH   CONDCTNC.   GRADIENT

   1   13    1     1     1    1.0000E+05 -2.7842E+04   1.2784E+05  0.000E+00  0.000E+00  0.000E+00  4.84178E+01  1.564E-01  2.000E+01  2.000E+04 -1.392E+00
   1   13    2     1     2    1.2784E+05 -3.7575E+04   1.6542E+05  0.000E+00  0.000E+00  0.000E+00  4.79661E+01  1.820E-01  2.000E+01  2.000E+04 -1.879E+00
   1   14    3     1     3    1.6542E+05 -3.3063E+04   1.9848E+05  0.000E+00  0.000E+00  0.000E+00  4.75140E+01  2.072E-01  2.000E+01  2.000E+04 -1.653E+00
   1   15    4     1     4    1.9848E+05 -3.2307E+04   2.3079E+05  0.000E+00  0.000E+00  0.000E+00  4.70583E+01  2.287E-01  2.000E+01  2.000E+04 -1.615E+00
   1   16    5     1     5    2.3079E+05 -3.3837E+04   2.6462E+05  0.000E+00  0.000E+00  0.000E+00  4.66016E+01  2.493E-01  2.000E+01  2.000E+04 -1.692E+00
   1   16    6     1     6    2.6462E+05 -2.9554E+04   2.9418E+05  0.000E+00  0.000E+00  0.000E+00  4.61430E+01  2.680E-01  2.000E+01  2.000E+04 -1.478E+00
   1   16    7     1     7    2.9418E+05 -2.9368E+04   3.2355E+05  0.000E+00  0.000E+00  0.000E+00  4.56823E+01  2.846E-01  2.000E+01  2.000E+04 -1.468E+00
   1   16    8     1     8    3.2355E+05 -2.9543E+04   3.5309E+05  0.000E+00  0.000E+00  0.000E+00  4.52210E+01  3.006E-01  2.000E+01  2.000E+04 -1.477E+00
   1   16    9     1     9    3.5309E+05 -2.9613E+04   3.8270E+05  0.000E+00  0.000E+00  0.000E+00  4.47592E+01  3.161E-01  2.000E+01  2.000E+04 -1.481E+00
   1   16   10     1    10    3.8270E+05 -2.9628E+04   4.1233E+05  0.000E+00  0.000E+00  0.000E+00  4.42970E+01  3.311E-01  2.000E+01  2.000E+04 -1.481E+00
   1   16   11     1    11    4.1233E+05 -3.0208E+04   4.4254E+05  0.000E+00  0.000E+00  0.000E+00  4.38345E+01  3.458E-01  2.000E+01  2.000E+04 -1.510E+00
   1   16   12     1    12    4.4254E+05 -3.5655E+04   4.7819E+05  0.000E+00  0.000E+00  0.000E+00  4.33729E+01  3.616E-01  2.000E+01  2.000E+04 -1.783E+00
   1   15   13     1    13    4.7819E+05 -3.4306E+04   5.1250E+05  0.000E+00  0.000E+00  0.000E+00  4.29119E+01  3.778E-01  2.000E+01  2.000E+04 -1.715E+00
   1   14   14     1    14    5.1250E+05 -3.4780E+04   5.4728E+05  0.000E+00  0.000E+00  0.000E+00  4.24502E+01  3.934E-01  2.000E+01  2.000E+04 -1.739E+00
   1   13   15     1    15    5.4728E+05 -3.6819E+04   5.8410E+05  0.000E+00  0.000E+00  0.000E+00  4.19887E+01  4.091E-01  2.000E+01  2.000E+04 -1.841E+00
   1   12   16     1    16    5.8410E+05 -4.2459E+04   6.2656E+05  0.000E+00  0.000E+00  0.000E+00  4.15284E+01  4.261E-01  2.000E+01  2.000E+04 -2.123E+00
   1   12   17     1    17    6.2656E+05 -3.2958E+04   6.5951E+05  0.000E+00  0.000E+00  0.000E+00  4.10668E+01  4.418E-01  2.000E+01  2.000E+04 -1.648E+00
   1   12   18     1    18    6.5951E+05 -3.1137E+04   6.9065E+05  0.000E+00  0.000E+00  0.000E+00  4.06027E+01  4.549E-01  2.000E+01  2.000E+04 -1.557E+00
   1   12   19     1    19    6.9065E+05 -3.4758E+04   7.2541E+05  0.000E+00  0.000E+00  0.000E+00  4.01386E+01  4.681E-01  2.000E+01  2.000E+04 -1.738E+00
   1   13   20     1    20    7.2541E+05 -2.5585E+04   7.5099E+05  0.000E+00  0.000E+00  0.000E+00  3.96732E+01  4.800E-01  2.000E+01  2.000E+04 -1.279E+00
   1   14   21     1    21    7.5099E+05 -1.8834E+04   7.6983E+05  0.000E+00  0.000E+00  0.000E+00  3.92045E+01  4.886E-01  2.000E+01  2.000E+04 -9.417E-01
   1   14   22     1    22    7.6983E+05 -1.3655E+03   7.7119E+05  0.000E+00  0.000E+00  0.000E+00  3.87311E+01  4.925E-01  2.000E+01  2.000E+04 -6.827E-02
   1    9   30     2     1    5.0000E+04 -2.6034E+04   7.6034E+04  0.000E+00  0.000E+00  0.000E+00  4.02581E+01  1.331E-01  2.000E+01  2.000E+04 -1.302E+00
   1    9   29     2     2    7.6034E+04 -2.8411E+04   1.0445E+05  0.000E+00  0.000E+00  0.000E+00  4.00401E+01  1.651E-01  2.000E+01  2.000E+04 -1.421E+00
   1    9   28     2     3    1.0445E+05 -3.2453E+04   1.3690E+05  0.000E+00  0.000E+00  0.000E+00  3.98216E+01  1.966E-01  2.000E+01  2.000E+04 -1.623E+00
   1    9   27     2     4    1.3690E+05 -4.5835E+04   1.8273E+05  0.000E+00  0.000E+00  0.000E+00  3.96077E+01  2.327E-01  2.000E+01  2.000E+04 -2.292E+00
   1   10   26     2     5    1.8273E+05 -3.1825E+04   2.1456E+05  0.000E+00  0.000E+00  0.000E+00  3.93901E+01  2.651E-01  2.000E+01  2.000E+04 -1.591E+00
   1   11   25     2     6    2.1456E+05 -2.3604E+04   2.3816E+05  0.000E+00  0.000E+00  0.000E+00  3.91617E+01  2.867E-01  2.000E+01  2.000E+04 -1.180E+00
   1   12   24     2     7    2.3816E+05 -1.7308E+04   2.5547E+05  0.000E+00  0.000E+00  0.000E+00  3.89270E+01  3.020E-01  2.000E+01  2.000E+04 -8.654E-01
   1   13   23     2     8    2.5547E+05 -1.2332E+04   2.6780E+05  0.000E+00  0.000E+00  0.000E+00  3.86877E+01  3.127E-01  2.000E+01  2.000E+04 -6.166E-01
   1   14   22     2     9    2.6780E+05 -7.0947E+03   2.7490E+05  0.000E+00  0.000E+00  0.000E+00  3.84447E+01  3.197E-01  2.000E+01  2.000E+04 -3.547E-01
   1   14   22     3     1    1.0461E+06 -1.5015E+04   1.0611E+06  0.000E+00  0.000E+00  0.000E+00  3.80486E+01  4.931E-01  2.000E+01  2.000E+04 -7.508E-01
   1   15   23     3     2    1.0611E+06 -2.2814E+04   1.0839E+06  0.000E+00  0.000E+00  0.000E+00  3.71650E+01  4.984E-01  2.000E+01  2.000E+04 -1.141E+00
   1   15   24     3     3    1.0839E+06 -1.9086E+04   1.1030E+06  0.000E+00  0.000E+00  0.000E+00  3.62820E+01  5.042E-01  2.000E+01  2.000E+04 -9.543E-01
   1   15   25     3     4    1.1030E+06 -1.8818E+04   1.1218E+06  0.000E+00  0.000E+00  0.000E+00  3.53983E+01  5.094E-01  2.000E+01  2.000E+04 -9.409E-01
   1   15   26     3     5    1.1218E+06 -2.1683E+04   1.1435E+06  0.000E+00  0.000E+00  0.000E+00  3.45149E+01  5.149E-01  2.000E+01  2.000E+04 -1.084E+00
   1   16   27     3     6    1.1435E+06 -2.8684E+04   1.1722E+06  0.000E+00  0.000E+00  0.000E+00  3.36329E+01  5.218E-01  2.000E+01  2.000E+04 -1.434E+00
   1   17   28     3     7    1.1722E+06 -3.5707E+04   1.2079E+06  0.000E+00  0.000E+00  0.000E+00  3.27527E+01  5.304E-01  2.000E+01  2.000E+04 -1.785E+00
   1   18   29     3     8    1.2079E+06 -4.6707E+04   1.2546E+06  0.000E+00  0.000E+00  0.000E+00  3.18747E+01  5.414E-01  2.000E+01  2.000E+04 -2.335E+00
   1   18   30     3     9    1.2546E+06 -4.3369E+04   1.2980E+06  0.000E+00  0.000E+00  0.000E+00  3.09976E+01  5.532E-01  2.000E+01  2.000E+04 -2.168E+00



1
              HEAD IN LAYER   1 AT END OF TIME STEP   1 IN STRESS PERIOD    4
  ---------------------------------------------------------------------------

          1      2      3      4      5      6      7      8      9     10
         11     12     13     14     15     16     17     18     19     20
         21     22     23     24     25     26     27     28     29     30
 .........................................................................
   1  ****** ****** ****** ****** ****** ****** ****** ****** ****** ******
      ****** ****** ****** ****** ****** ****** ****** ****** ****** ******
      ****** ****** ****** ****** ****** ****** ****** ****** ****** ******
   2  ****** ****** ****** ****** ****** ****** ****** ****** ****** ******
      ****** ****** ****** ****** ****** ****** ****** ****** ****** ******
      ****** ****** ****** ****** ****** ****** ****** ****** ****** ******
   3  ****** ****** ****** ****** ****** ****** ****** ****** ****** ******
      ****** ****** ****** ****** ****** ****** ****** ****** ****** ******
      ****** ****** ****** ****** ****** ****** ****** ****** ****** ******
   4  ****** ****** ****** ****** ****** ****** ****** ****** ****** ******
      ****** ****** ****** ****** ****** ****** ****** ****** ****** ******
      ****** ****** ****** ****** ****** ****** ****** ****** ****** ******
   5  ****** ****** ****** ****** ****** ****** ****** ****** ****** ******
      ****** ****** ****** ****** ****** ****** ****** ****** ****** ******
      ****** ****** ****** ****** ****** ****** ****** ****** ****** ******
   6  ****** ****** ****** ****** ****** ****** ****** ****** ****** ******
      ****** ****** ****** ****** ****** ****** ****** ****** ****** ******
      ****** ****** ****** ****** ****** ****** ****** ****** ****** ******
   7  ****** ****** ****** ****** ****** ****** ****** ****** ****** ******
      ****** ****** ****** ****** ****** ****** ****** ****** ****** ******
      ****** ****** ****** ****** ****** ****** ****** ****** ****** ******
   8  ****** ****** ****** ****** ****** ****** ****** ****** ****** ******
      ****** ****** ****** ****** ****** ****** ****** ****** ****** ******
      ****** ****** ****** ****** ****** ****** ****** ****** ****** ******
   9  ****** ****** ****** ****** ****** ****** ****** ****** ****** ******
      ****** ****** ****** ****** ****** ****** ****** ****** ****** ******
      ****** ****** ****** ****** ****** ****** ****** ****** ****** ******
  10  ****** ****** ****** ****** ****** ****** ****** ****** ****** ******
      ****** ****** ****** ****** ****** ****** ****** ****** ****** ******
      ****** ****** ****** ****** ****** ****** ****** ****** ****** ******
  11  ****** ****** ****** ****** ****** ****** ****** ****** ****** ******
      ****** ****** ****** ****** ****** ****** ****** ****** ****** ******
      ****** ****** ****** ****** ****** ****** ****** ****** ****** ******
  12  ****** ****** ****** ****** ****** ****** ****** ****** ****** ******
      ****** ****** ****** ****** ****** ****** ****** ****** ****** ******
      ****** ****** ****** ****** ****** ****** ****** ****** ****** ******
  13  ****** ****** ****** ****** ****** ****** ****** ****** ****** ******
      ****** ****** ****** ****** ****** ****** ****** ****** ****** ******
      ****** ****** ****** ****** ****** ****** ****** ****** ****** ******
  14  ****** ****** ****** ****** ****** ****** ****** ****** ****** ******
      ****** ****** ****** ****** ****** ****** ****** ****** ****** ******
      ****** ****** ****** ****** ****** ****** ****** ****** ****** ******
  15  ****** ****** ****** ****** ****** ****** ****** ****** ****** ******
      ****** ****** ****** ****** ****** ****** ****** ****** ****** ******
      ****** ****** ****** ****** ****** ****** ****** ****** ****** ******
  16  ****** ****** ****** ****** ****** ****** ****** ****** ****** ******
      ****** ****** ****** ****** ****** ****** ****** ****** ****** ******
      ****** ****** ****** ****** ****** ****** ****** ****** ****** ******
  17  ****** ****** ****** ****** ****** ****** ****** ****** ****** ******
      ****** ****** ****** ****** ****** ****** ****** ****** ****** ******
      ****** ****** ****** ****** ****** ****** ****** ****** ****** ******
  18  ****** ****** ****** ****** ****** ****** ****** ****** ****** ******
      ****** ****** ****** ****** ****** ****** ****** ****** ****** ******
      ****** ****** ****** ****** ****** ****** ****** ****** ****** ******
  19  ****** ****** ****** ****** ****** ****** ****** ****** ****** ******
      ****** ****** ****** ****** ****** ****** ****** ****** ****** ******
      ****** ****** ****** ****** ****** ****** ****** ****** ****** ******
  20  ****** ****** ****** ****** ****** ****** ****** ****** ****** ******
      ****** ****** ****** ****** ****** ****** ****** ****** ****** ******
      ****** ****** ****** ****** ****** ****** ****** ****** ****** ******
  21  ****** ****** ****** ****** ****** ****** ****** ****** ****** ******
      ****** ****** ****** ****** ****** ****** ****** ****** ****** ******
      ****** ****** ****** ****** ****** ****** ****** ****** ****** ******
  22  ****** ****** ****** ****** ****** ****** ****** ****** ****** ******
      ****** ****** ****** ****** ****** ****** ****** ****** ****** ******
      ****** ****** ****** ****** ****** ****** ****** ****** ****** ******
  23  ****** ****** ****** ****** ****** ****** ****** ****** ****** ******
      ****** ****** ****** ****** ****** ****** ****** ****** ****** ******
      ****** ****** ****** ****** ****** ****** ****** ****** ****** ******
  24  ****** ****** ****** ****** ****** ****** ****** ****** ****** ******
      ****** ****** ****** ****** ****** ****** ****** ****** ****** ******
      ****** ****** ****** ****** ****** ****** ****** ****** ****** ******
  25  ****** ****** ****** ****** ****** ****** ****** ****** ****** ******
      ****** ****** ****** ****** ****** ****** ****** ****** ****** ******
      ****** ****** ****** ****** ****** ****** ****** ****** ****** ******

 HEAD WILL BE SAVED ON UNIT   51 AT END OF TIME STEP    1, STRESS PERIOD    4
1
  VOLUMETRIC BUDGET FOR ENTIRE MODEL AT END OF TIME STEP    1, STRESS PERIOD   4
  ------------------------------------------------------------------------------

     CUMULATIVE VOLUMES      L**3       RATES FOR THIS TIME STEP      L**3/T
     ------------------                 ------------------------

           IN:                                      IN:
           ---                                      ---
             STORAGE =    20338727.4306               STORAGE =           0.0000
       CONSTANT HEAD =   441673264.9391         CONSTANT HEAD =     1202374.1440
               WELLS =           0.0000                 WELLS =           0.0000
            RECHARGE =     8804400.0000              RECHARGE =       27600.0000
      STREAM LEAKAGE =           0.0000        STREAM LEAKAGE =           0.0000

            TOTAL IN =   470816392.3697              TOTAL IN =     1229974.1440

          OUT:                                     OUT:
          ----                                     ----
             STORAGE =      219607.7228               STORAGE =        2000.6170
       CONSTANT HEAD =           0.0000         CONSTANT HEAD =           0.0000
               WELLS =    39265091.5000                 WELLS =       80000.0000
            RECHARGE =           0.0000              RECHARGE =           0.0000
      STREAM LEAKAGE =   431331702.0353        STREAM LEAKAGE =     1147973.5022

           TOTAL OUT =   470816401.2581             TOTAL OUT =     1229974.1191

            IN - OUT =          -8.8884              IN - OUT =       2.4878E-02

 PERCENT DISCREPANCY =          -0.00     PERCENT DISCREPANCY =           0.00






         TIME SUMMARY AT END OF TIME STEP    1 IN STRESS PERIOD    4
                    SECONDS     MINUTES      HOURS       DAYS        YEARS
                    -----------------------------------------------------------
   TIME STEP LENGTH 7.86240E+06 1.31040E+05  2184.0      91.000     0.24914    
 STRESS PERIOD TIME 7.86240E+06 1.31040E+05  2184.0      91.000     0.24914    
         TOTAL TIME 3.15360E+07 5.25600E+05  8760.0      365.00     0.99932    
1
1
                            STRESS PERIOD NO.    5, LENGTH =   92.00000    
                            -----------------------------------------------

                              NUMBER OF TIME STEPS =     1

                               MULTIPLIER FOR DELT =     1.500

                            INITIAL TIME STEP SIZE =   92.00000    

 WELL NO.  LAYER   ROW   COL   STRESS RATE         
 --------------------------------------------------
      1      1     22     22     -0.3000E+05
      2      1      2     29     -0.5000E+05
      3      1      5     21     -0.5500E+05

      3 WELLS

                 RECHARGE =  5.000000E-04

 REUSING STREAM SEGMENT DATA FROM LAST STRESS PERIOD
 
 SOLVING FOR HEAD 


     6 CALLS TO PCG ROUTINE FOR TIME STEP   1 IN STRESS PERIOD    5
    22 TOTAL ITERATIONS

 OUTPUT CONTROL FOR STRESS PERIOD    5   TIME STEP    1
    SAVE BUDGET
    SAVE HEAD FOR ALL LAYERS
    PRINT HEAD FOR ALL LAYERS
 UBDSV2 SAVING "STREAMFLOW OUT  " ON UNIT  50 AT TIME STEP  1, STRESS PERIOD   5



 STREAM LISTING     PERIOD      5   STEP        1

 LAYER ROW COL. STREAM  RCH.  FLOW INTO     FLOW TO   FLOW OUT OF   OVRLND.     DIRECT     STREAM       STREAM     STREAM     STREAM   STREAMBED  STREAMBED
                SEG.NO.  NO.  STRM. RCH.    AQUIFER    STRM. RCH.    RUNOFF     PRECIP       ET          HEAD       DEPTH      WIDTH   CONDCTNC.   GRADIENT

   1   13    1     1     1    1.0000E+05 -2.7636E+04   1.2764E+05  0.000E+00  0.000E+00  0.000E+00  4.84177E+01  1.563E-01  2.000E+01  2.000E+04 -1.382E+00
   1   13    2     1     2    1.2764E+05 -3.7329E+04   1.6496E+05  0.000E+00  0.000E+00  0.000E+00  4.79658E+01  1.817E-01  2.000E+01  2.000E+04 -1.866E+00
   1   14    3     1     3    1.6496E+05 -3.2821E+04   1.9779E+05  0.000E+00  0.000E+00  0.000E+00  4.75136E+01  2.068E-01  2.000E+01  2.000E+04 -1.641E+00
   1   15    4     1     4    1.9779E+05 -3.2074E+04   2.2986E+05  0.000E+00  0.000E+00  0.000E+00  4.70578E+01  2.282E-01  2.000E+01  2.000E+04 -1.604E+00
   1   16    5     1     5    2.2986E+05 -3.3628E+04   2.6349E+05  0.000E+00  0.000E+00  0.000E+00  4.66009E+01  2.487E-01  2.000E+01  2.000E+04 -1.681E+00
   1   16    6     1     6    2.6349E+05 -2.9370E+04   2.9286E+05  0.000E+00  0.000E+00  0.000E+00  4.61422E+01  2.672E-01  2.000E+01  2.000E+04 -1.469E+00
   1   16    7     1     7    2.9286E+05 -2.9185E+04   3.2204E+05  0.000E+00  0.000E+00  0.000E+00  4.56815E+01  2.838E-01  2.000E+01  2.000E+04 -1.459E+00
   1   16    8     1     8    3.2204E+05 -2.9358E+04   3.5140E+05  0.000E+00  0.000E+00  0.000E+00  4.52202E+01  2.997E-01  2.000E+01  2.000E+04 -1.468E+00
   1   16    9     1     9    3.5140E+05 -2.9428E+04   3.8083E+05  0.000E+00  0.000E+00  0.000E+00  4.47583E+01  3.151E-01  2.000E+01  2.000E+04 -1.471E+00
   1   16   10     1    10    3.8083E+05 -2.9441E+04   4.1027E+05  0.000E+00  0.000E+00  0.000E+00  4.42960E+01  3.301E-01  2.000E+01  2.000E+04 -1.472E+00
   1   16   11     1    11    4.1027E+05 -3.0019E+04   4.4029E+05  0.000E+00  0.000E+00  0.000E+00  4.38334E+01  3.448E-01  2.000E+01  2.000E+04 -1.501E+00
   1   16   12     1    12    4.4029E+05 -3.5435E+04   4.7572E+05  0.000E+00  0.000E+00  0.000E+00  4.33718E+01  3.605E-01  2.000E+01  2.000E+04 -1.772E+00
   1   15   13     1    13    4.7572E+05 -3.4054E+04   5.0978E+05  0.000E+00  0.000E+00  0.000E+00  4.29107E+01  3.766E-01  2.000E+01  2.000E+04 -1.703E+00
   1   14   14     1    14    5.0978E+05 -3.4505E+04   5.4428E+05  0.000E+00  0.000E+00  0.000E+00  4.24489E+01  3.921E-01  2.000E+01  2.000E+04 -1.725E+00
   1   13   15     1    15    5.4428E+05 -3.6518E+04   5.8080E+05  0.000E+00  0.000E+00  0.000E+00  4.19873E+01  4.078E-01  2.000E+01  2.000E+04 -1.826E+00
   1   12   16     1    16    5.8080E+05 -4.2106E+04   6.2291E+05  0.000E+00  0.000E+00  0.000E+00  4.15269E+01  4.246E-01  2.000E+01  2.000E+04 -2.105E+00
   1   12   17     1    17    6.2291E+05 -3.2644E+04   6.5555E+05  0.000E+00  0.000E+00  0.000E+00  4.10653E+01  4.403E-01  2.000E+01  2.000E+04 -1.632E+00
   1   12   18     1    18    6.5555E+05 -3.0800E+04   6.8635E+05  0.000E+00  0.000E+00  0.000E+00  4.06010E+01  4.533E-01  2.000E+01  2.000E+04 -1.540E+00
   1   12   19     1    19    6.8635E+05 -3.4330E+04   7.2068E+05  0.000E+00  0.000E+00  0.000E+00  4.01368E+01  4.663E-01  2.000E+01  2.000E+04 -1.716E+00
   1   13   20     1    20    7.2068E+05 -2.5256E+04   7.4594E+05  0.000E+00  0.000E+00  0.000E+00  3.96713E+01  4.781E-01  2.000E+01  2.000E+04 -1.263E+00
   1   14   21     1    21    7.4594E+05 -1.8609E+04   7.6454E+05  0.000E+00  0.000E+00  0.000E+00  3.92025E+01  4.866E-01  2.000E+01  2.000E+04 -9.304E-01
   1   14   22     1    22    7.6454E+05 -1.2502E+03   7.6579E+05  0.000E+00  0.000E+00  0.000E+00  3.87291E+01  4.904E-01  2.000E+01  2.000E+04 -6.251E-02
   1    9   30     2     1    5.0000E+04 -2.4875E+04   7.4875E+04  0.000E+00  0.000E+00  0.000E+00  4.02574E+01  1.324E-01  2.000E+01  2.000E+04 -1.244E+00
   1    9   29     2     2    7.4875E+04 -2.7294E+04   1.0217E+05  0.000E+00  0.000E+00  0.000E+00  4.00382E+01  1.632E-01  2.000E+01  2.000E+04 -1.365E+00
   1    9   28     2     3    1.0217E+05 -3.1376E+04   1.3355E+05  0.000E+00  0.000E+00  0.000E+00  3.98188E+01  1.938E-01  2.000E+01  2.000E+04 -1.569E+00
   1    9   27     2     4    1.3355E+05 -4.4636E+04   1.7818E+05  0.000E+00  0.000E+00  0.000E+00  3.96042E+01  2.292E-01  2.000E+01  2.000E+04 -2.232E+00
   1   10   26     2     5    1.7818E+05 -3.1052E+04   2.0923E+05  0.000E+00  0.000E+00  0.000E+00  3.93861E+01  2.611E-01  2.000E+01  2.000E+04 -1.553E+00
   1   11   25     2     6    2.0923E+05 -2.3046E+04   2.3228E+05  0.000E+00  0.000E+00  0.000E+00  3.91574E+01  2.824E-01  2.000E+01  2.000E+04 -1.152E+00
   1   12   24     2     7    2.3228E+05 -1.6905E+04   2.4918E+05  0.000E+00  0.000E+00  0.000E+00  3.89225E+01  2.975E-01  2.000E+01  2.000E+04 -8.452E-01
   1   13   23     2     8    2.4918E+05 -1.2069E+04   2.6125E+05  0.000E+00  0.000E+00  0.000E+00  3.86831E+01  3.081E-01  2.000E+01  2.000E+04 -6.034E-01
   1   14   22     2     9    2.6125E+05 -7.0318E+03   2.6828E+05  0.000E+00  0.000E+00  0.000E+00  3.84400E+01  3.150E-01  2.000E+01  2.000E+04 -3.516E-01
   1   14   22     3     1    1.0341E+06 -1.4927E+04   1.0490E+06  0.000E+00  0.000E+00  0.000E+00  3.80452E+01  4.897E-01  2.000E+01  2.000E+04 -7.464E-01
   1   15   23     3     2    1.0490E+06 -2.2650E+04   1.0717E+06  0.000E+00  0.000E+00  0.000E+00  3.71616E+01  4.950E-01  2.000E+01  2.000E+04 -1.133E+00
   1   15   24     3     3    1.0717E+06 -1.8944E+04   1.0906E+06  0.000E+00  0.000E+00  0.000E+00  3.62785E+01  5.008E-01  2.000E+01  2.000E+04 -9.472E-01
   1   15   25     3     4    1.0906E+06 -1.8671E+04   1.1093E+06  0.000E+00  0.000E+00  0.000E+00  3.53949E+01  5.060E-01  2.000E+01  2.000E+04 -9.335E-01
   1   15   26     3     5    1.1093E+06 -2.1503E+04   1.1308E+06  0.000E+00  0.000E+00  0.000E+00  3.45115E+01  5.115E-01  2.000E+01  2.000E+04 -1.075E+00
   1   16   27     3     6    1.1308E+06 -2.8486E+04   1.1593E+06  0.000E+00  0.000E+00  0.000E+00  3.36294E+01  5.183E-01  2.000E+01  2.000E+04 -1.424E+00
   1   17   28     3     7    1.1593E+06 -3.5515E+04   1.1948E+06  0.000E+00  0.000E+00  0.000E+00  3.27492E+01  5.270E-01  2.000E+01  2.000E+04 -1.776E+00
   1   18   29     3     8    1.1948E+06 -4.6536E+04   1.2413E+06  0.000E+00  0.000E+00  0.000E+00  3.18712E+01  5.379E-01  2.000E+01  2.000E+04 -2.327E+00
   1   18   30     3     9    1.2413E+06 -4.3223E+04   1.2845E+06  0.000E+00  0.000E+00  0.000E+00  3.09941E+01  5.497E-01  2.000E+01  2.000E+04 -2.161E+00



1
              HEAD IN LAYER   1 AT END OF TIME STEP   1 IN STRESS PERIOD    5
  ---------------------------------------------------------------------------

          1      2      3      4      5      6      7      8      9     10
         11     12     13     14     15     16     17     18     19     20
         21     22     23     24     25     26     27     28     29     30
 .........................................................................
   1  ****** ****** ****** ****** ****** ****** ****** ****** ****** ******
      ****** ****** ****** ****** ****** ****** ****** ****** ****** ******
      ****** ****** ****** ****** ****** ****** ****** ****** ****** ******
   2  ****** ****** ****** ****** ****** ****** ****** ****** ****** ******
      ****** ****** ****** ****** ****** ****** ****** ****** ****** ******
      ****** ****** ****** ****** ****** ****** ****** ****** ****** ******
   3  ****** ****** ****** ****** ****** ****** ****** ****** ****** ******
      ****** ****** ****** ****** ****** ****** ****** ****** ****** ******
      ****** ****** ****** ****** ****** ****** ****** ****** ****** ******
   4  ****** ****** ****** ****** ****** ****** ****** ****** ****** ******
      ****** ****** ****** ****** ****** ****** ****** ****** ****** ******
      ****** ****** ****** ****** ****** ****** ****** ****** ****** ******
   5  ****** ****** ****** ****** ****** ****** ****** ****** ****** ******
      ****** ****** ****** ****** ****** ****** ****** ****** ****** ******
      ****** ****** ****** ****** ****** ****** ****** ****** ****** ******
   6  ****** ****** ****** ****** ****** ****** ****** ****** ****** ******
      ****** ****** ****** ****** ****** ****** ****** ****** ****** ******
      ****** ****** ****** ****** ****** ****** ****** ****** ****** ******
   7  ****** ****** ****** ****** ****** ****** ****** ****** ****** ******
      ****** ****** ****** ****** ****** ****** ****** ****** ****** ******
      ****** ****** ****** ****** ****** ****** ****** ****** ****** ******
   8  ****** ****** ****** ****** ****** ****** ****** ****** ****** ******
      ****** ****** ****** ****** ****** ****** ****** ****** ****** ******
      ****** ****** ****** ****** ****** ****** ****** ****** ****** ******
   9  ****** ****** ****** ****** ****** ****** ****** ****** ****** ******
      ****** ****** ****** ****** ****** ****** ****** ****** ****** ******
      ****** ****** ****** ****** ****** ****** ****** ****** ****** ******
  10  ****** ****** ****** ****** ****** ****** ****** ****** ****** ******
      ****** ****** ****** ****** ****** ****** ****** ****** ****** ******
      ****** ****** ****** ****** ****** ****** ****** ****** ****** ******
  11  ****** ****** ****** ****** ****** ****** ****** ****** ****** ******
      ****** ****** ****** ****** ****** ****** ****** ****** ****** ******
      ****** ****** ****** ****** ****** ****** ****** ****** ****** ******
  12  ****** ****** ****** ****** ****** ****** ****** ****** ****** ******
      ****** ****** ****** ****** ****** ****** ****** ****** ****** ******
      ****** ****** ****** ****** ****** ****** ****** ****** ****** ******
  13  ****** ****** ****** ****** ****** ****** ****** ****** ****** ******
      ****** ****** ****** ****** ****** ****** ****** ****** ****** ******
      ****** ****** ****** ****** ****** ****** ****** ****** ****** ******
  14  ****** ****** ****** ****** ****** ****** ****** ****** ****** ******
      ****** ****** ****** ****** ****** ****** ****** ****** ****** ******
      ****** ****** ****** ****** ****** ****** ****** ****** ****** ******
  15  ****** ****** ****** ****** ****** ****** ****** ****** ****** ******
      ****** ****** ****** ****** ****** ****** ****** ****** ****** ******
      ****** ****** ****** ****** ****** ****** ****** ****** ****** ******
  16  ****** ****** ****** ****** ****** ****** ****** ****** ****** ******
      ****** ****** ****** ****** ****** ****** ****** ****** ****** ******
      ****** ****** ****** ****** ****** ****** ****** ****** ****** ******
  17  ****** ****** ****** ****** ****** ****** ****** ****** ****** ******
      ****** ****** ****** ****** ****** ****** ****** ****** ****** ******
      ****** ****** ****** ****** ****** ****** ****** ****** ****** ******
  18  ****** ****** ****** ****** ****** ****** ****** ****** ****** ******
      ****** ****** ****** ****** ****** ****** ****** ****** ****** ******
      ****** ****** ****** ****** ****** ****** ****** ****** ****** ******
  19  ****** ****** ****** ****** ****** ****** ****** ****** ****** ******
      ****** ****** ****** ****** ****** ****** ****** ****** ****** ******
      ****** ****** ****** ****** ****** ****** ****** ****** ****** ******
  20  ****** ****** ****** ****** ****** ****** ****** ****** ****** ******
      ****** ****** ****** ****** ****** ****** ****** ****** ****** ******
      ****** ****** ****** ****** ****** ****** ****** ****** ****** ******
  21  ****** ****** ****** ****** ****** ****** ****** ****** ****** ******
      ****** ****** ****** ****** ****** ****** ****** ****** ****** ******
      ****** ****** ****** ****** ****** ****** ****** ****** ****** ******
  22  ****** ****** ****** ****** ****** ****** ****** ****** ****** ******
      ****** ****** ****** ****** ****** ****** ****** ****** ****** ******
      ****** ****** ****** ****** ****** ****** ****** ****** ****** ******
  23  ****** ****** ****** ****** ****** ****** ****** ****** ****** ******
      ****** ****** ****** ****** ****** ****** ****** ****** ****** ******
      ****** ****** ****** ****** ****** ****** ****** ****** ****** ******
  24  ****** ****** ****** ****** ****** ****** ****** ****** ****** ******
      ****** ****** ****** ****** ****** ****** ****** ****** ****** ******
      ****** ****** ****** ****** ****** ****** ****** ****** ****** ******
  25  ****** ****** ****** ****** ****** ****** ****** ****** ****** ******
      ****** ****** ****** ****** ****** ****** ****** ****** ****** ******
      ****** ****** ****** ****** ****** ****** ****** ****** ****** ******

 HEAD WILL BE SAVED ON UNIT   51 AT END OF TIME STEP    1, STRESS PERIOD    5
1
  VOLUMETRIC BUDGET FOR ENTIRE MODEL AT END OF TIME STEP    1, STRESS PERIOD   5
  ------------------------------------------------------------------------------

     CUMULATIVE VOLUMES      L**3       RATES FOR THIS TIME STEP      L**3/T
     ------------------                 ------------------------

           IN:                                      IN:
           ---                                      ---
             STORAGE =    20497305.1886               STORAGE =        1723.6713
       CONSTANT HEAD =   557042234.2473         CONSTANT HEAD =     1254010.5360
               WELLS =           0.0000                 WELLS =           0.0000
            RECHARGE =    10074000.0000              RECHARGE =       13800.0000
      STREAM LEAKAGE =           0.0000        STREAM LEAKAGE =           0.0000

            TOTAL IN =   587613539.4360              TOTAL IN =     1269534.2072

          OUT:                                     OUT:
          ----                                     ----
             STORAGE =      219607.7228               STORAGE =           0.0000
       CONSTANT HEAD =           0.0000         CONSTANT HEAD =           0.0000
               WELLS =    51685137.5000                 WELLS =      135000.5000
            RECHARGE =           0.0000              RECHARGE =           0.0000
      STREAM LEAKAGE =   535708804.7627        STREAM LEAKAGE =     1134533.7253

           TOTAL OUT =   587613549.9855             TOTAL OUT =     1269534.2253

            IN - OUT =         -10.5495              IN - OUT =      -1.8055E-02

 PERCENT DISCREPANCY =          -0.00     PERCENT DISCREPANCY =          -0.00






         TIME SUMMARY AT END OF TIME STEP    1 IN STRESS PERIOD    5
                    SECONDS     MINUTES      HOURS       DAYS        YEARS
                    -----------------------------------------------------------
   TIME STEP LENGTH 7.94880E+06 1.32480E+05  2208.0      92.000     0.25188    
 STRESS PERIOD TIME 7.94880E+06 1.32480E+05  2208.0      92.000     0.25188    
         TOTAL TIME 3.94848E+07 6.58080E+05  10968.      457.00      1.2512    
1
1
                            STRESS PERIOD NO.    6, LENGTH =   91.00000    
                            -----------------------------------------------

                              NUMBER OF TIME STEPS =     1

                               MULTIPLIER FOR DELT =     1.500

                            INITIAL TIME STEP SIZE =   91.00000    

 WELL NO.  LAYER   ROW   COL   STRESS RATE         
 --------------------------------------------------
      1      1     22     22     -0.3000E+05
      2      1      2     29       0.000    
      3      1      5     21     -0.5500E+05

      3 WELLS

                 RECHARGE =  2.000000E-03

 REUSING STREAM SEGMENT DATA FROM LAST STRESS PERIOD
 
 SOLVING FOR HEAD 


     6 CALLS TO PCG ROUTINE FOR TIME STEP   1 IN STRESS PERIOD    6
    22 TOTAL ITERATIONS

 OUTPUT CONTROL FOR STRESS PERIOD    6   TIME STEP    1
    SAVE BUDGET
    SAVE HEAD FOR ALL LAYERS
    PRINT HEAD FOR ALL LAYERS
 UBDSV2 SAVING "STREAMFLOW OUT  " ON UNIT  50 AT TIME STEP  1, STRESS PERIOD   6



 STREAM LISTING     PERIOD      6   STEP        1

 LAYER ROW COL. STREAM  RCH.  FLOW INTO     FLOW TO   FLOW OUT OF   OVRLND.     DIRECT     STREAM       STREAM     STREAM     STREAM   STREAMBED  STREAMBED
                SEG.NO.  NO.  STRM. RCH.    AQUIFER    STRM. RCH.    RUNOFF     PRECIP       ET          HEAD       DEPTH      WIDTH   CONDCTNC.   GRADIENT

   1   13    1     1     1    1.0000E+05 -2.8289E+04   1.2829E+05  0.000E+00  0.000E+00  0.000E+00  4.84180E+01  1.566E-01  2.000E+01  2.000E+04 -1.414E+00
   1   13    2     1     2    1.2829E+05 -3.8108E+04   1.6640E+05  0.000E+00  0.000E+00  0.000E+00  4.79666E+01  1.825E-01  2.000E+01  2.000E+04 -1.905E+00
   1   14    3     1     3    1.6640E+05 -3.3584E+04   1.9998E+05  0.000E+00  0.000E+00  0.000E+00  4.75148E+01  2.080E-01  2.000E+01  2.000E+04 -1.679E+00
   1   15    4     1     4    1.9998E+05 -3.2807E+04   2.3279E+05  0.000E+00  0.000E+00  0.000E+00  4.70594E+01  2.299E-01  2.000E+01  2.000E+04 -1.640E+00
   1   16    5     1     5    2.3279E+05 -3.4289E+04   2.6708E+05  0.000E+00  0.000E+00  0.000E+00  4.66029E+01  2.506E-01  2.000E+01  2.000E+04 -1.714E+00
   1   16    6     1     6    2.6708E+05 -2.9945E+04   2.9702E+05  0.000E+00  0.000E+00  0.000E+00  4.61445E+01  2.695E-01  2.000E+01  2.000E+04 -1.497E+00
   1   16    7     1     7    2.9702E+05 -2.9755E+04   3.2678E+05  0.000E+00  0.000E+00  0.000E+00  4.56840E+01  2.862E-01  2.000E+01  2.000E+04 -1.488E+00
   1   16    8     1     8    3.2678E+05 -2.9930E+04   3.5671E+05  0.000E+00  0.000E+00  0.000E+00  4.52228E+01  3.024E-01  2.000E+01  2.000E+04 -1.496E+00
   1   16    9     1     9    3.5671E+05 -2.9999E+04   3.8671E+05  0.000E+00  0.000E+00  0.000E+00  4.47612E+01  3.180E-01  2.000E+01  2.000E+04 -1.500E+00
   1   16   10     1    10    3.8671E+05 -3.0012E+04   4.1672E+05  0.000E+00  0.000E+00  0.000E+00  4.42991E+01  3.332E-01  2.000E+01  2.000E+04 -1.501E+00
   1   16   11     1    11    4.1672E+05 -3.0597E+04   4.4731E+05  0.000E+00  0.000E+00  0.000E+00  4.38367E+01  3.480E-01  2.000E+01  2.000E+04 -1.530E+00
   1   16   12     1    12    4.4731E+05 -3.6109E+04   4.8342E+05  0.000E+00  0.000E+00  0.000E+00  4.33753E+01  3.639E-01  2.000E+01  2.000E+04 -1.805E+00
   1   15   13     1    13    4.8342E+05 -3.4800E+04   5.1822E+05  0.000E+00  0.000E+00  0.000E+00  4.29144E+01  3.803E-01  2.000E+01  2.000E+04 -1.740E+00
   1   14   14     1    14    5.1822E+05 -3.5278E+04   5.5350E+05  0.000E+00  0.000E+00  0.000E+00  4.24529E+01  3.961E-01  2.000E+01  2.000E+04 -1.764E+00
   1   13   15     1    15    5.5350E+05 -3.7290E+04   5.9079E+05  0.000E+00  0.000E+00  0.000E+00  4.19915E+01  4.119E-01  2.000E+01  2.000E+04 -1.865E+00
   1   12   16     1    16    5.9079E+05 -4.2866E+04   6.3366E+05  0.000E+00  0.000E+00  0.000E+00  4.15313E+01  4.290E-01  2.000E+01  2.000E+04 -2.143E+00
   1   12   17     1    17    6.3366E+05 -3.3265E+04   6.6692E+05  0.000E+00  0.000E+00  0.000E+00  4.10698E+01  4.448E-01  2.000E+01  2.000E+04 -1.663E+00
   1   12   18     1    18    6.6692E+05 -3.1407E+04   6.9833E+05  0.000E+00  0.000E+00  0.000E+00  4.06057E+01  4.580E-01  2.000E+01  2.000E+04 -1.570E+00
   1   12   19     1    19    6.9833E+05 -3.5016E+04   7.3334E+05  0.000E+00  0.000E+00  0.000E+00  4.01417E+01  4.712E-01  2.000E+01  2.000E+04 -1.751E+00
   1   13   20     1    20    7.3334E+05 -2.5884E+04   7.5923E+05  0.000E+00  0.000E+00  0.000E+00  3.96763E+01  4.831E-01  2.000E+01  2.000E+04 -1.294E+00
   1   14   21     1    21    7.5923E+05 -1.9134E+04   7.7836E+05  0.000E+00  0.000E+00  0.000E+00  3.92077E+01  4.918E-01  2.000E+01  2.000E+04 -9.567E-01
   1   14   22     1    22    7.7836E+05 -1.4635E+03   7.7983E+05  0.000E+00  0.000E+00  0.000E+00  3.87344E+01  4.958E-01  2.000E+01  2.000E+04 -7.318E-02
   1    9   30     2     1    5.0000E+04 -2.6284E+04   7.6284E+04  0.000E+00  0.000E+00  0.000E+00  4.02583E+01  1.333E-01  2.000E+01  2.000E+04 -1.314E+00
   1    9   29     2     2    7.6284E+04 -2.8652E+04   1.0494E+05  0.000E+00  0.000E+00  0.000E+00  4.00405E+01  1.655E-01  2.000E+01  2.000E+04 -1.433E+00
   1    9   28     2     3    1.0494E+05 -3.2680E+04   1.3762E+05  0.000E+00  0.000E+00  0.000E+00  3.98222E+01  1.972E-01  2.000E+01  2.000E+04 -1.634E+00
   1    9   27     2     4    1.3762E+05 -4.6058E+04   1.8367E+05  0.000E+00  0.000E+00  0.000E+00  3.96084E+01  2.334E-01  2.000E+01  2.000E+04 -2.303E+00
   1   10   26     2     5    1.8367E+05 -3.2062E+04   2.1574E+05  0.000E+00  0.000E+00  0.000E+00  3.93910E+01  2.660E-01  2.000E+01  2.000E+04 -1.603E+00
   1   11   25     2     6    2.1574E+05 -2.3839E+04   2.3957E+05  0.000E+00  0.000E+00  0.000E+00  3.91627E+01  2.877E-01  2.000E+01  2.000E+04 -1.192E+00
   1   12   24     2     7    2.3957E+05 -1.7531E+04   2.5711E+05  0.000E+00  0.000E+00  0.000E+00  3.89281E+01  3.031E-01  2.000E+01  2.000E+04 -8.765E-01
   1   13   23     2     8    2.5711E+05 -1.2532E+04   2.6964E+05  0.000E+00  0.000E+00  0.000E+00  3.86890E+01  3.140E-01  2.000E+01  2.000E+04 -6.266E-01
   1   14   22     2     9    2.6964E+05 -7.2315E+03   2.7687E+05  0.000E+00  0.000E+00  0.000E+00  3.84460E+01  3.210E-01  2.000E+01  2.000E+04 -3.616E-01
   1   14   22     3     1    1.0567E+06 -1.5119E+04   1.0718E+06  0.000E+00  0.000E+00  0.000E+00  3.80516E+01  4.961E-01  2.000E+01  2.000E+04 -7.560E-01
   1   15   23     3     2    1.0718E+06 -2.3120E+04   1.0949E+06  0.000E+00  0.000E+00  0.000E+00  3.71680E+01  5.014E-01  2.000E+01  2.000E+04 -1.156E+00
   1   15   24     3     3    1.0949E+06 -1.9338E+04   1.1143E+06  0.000E+00  0.000E+00  0.000E+00  3.62850E+01  5.073E-01  2.000E+01  2.000E+04 -9.669E-01
   1   15   25     3     4    1.1143E+06 -1.9068E+04   1.1333E+06  0.000E+00  0.000E+00  0.000E+00  3.54014E+01  5.125E-01  2.000E+01  2.000E+04 -9.534E-01
   1   15   26     3     5    1.1333E+06 -2.1974E+04   1.1553E+06  0.000E+00  0.000E+00  0.000E+00  3.45181E+01  5.181E-01  2.000E+01  2.000E+04 -1.099E+00
   1   16   27     3     6    1.1553E+06 -2.9042E+04   1.1844E+06  0.000E+00  0.000E+00  0.000E+00  3.36361E+01  5.250E-01  2.000E+01  2.000E+04 -1.452E+00
   1   17   28     3     7    1.1844E+06 -3.6076E+04   1.2204E+06  0.000E+00  0.000E+00  0.000E+00  3.27560E+01  5.337E-01  2.000E+01  2.000E+04 -1.804E+00
   1   18   29     3     8    1.2204E+06 -4.7055E+04   1.2675E+06  0.000E+00  0.000E+00  0.000E+00  3.18781E+01  5.447E-01  2.000E+01  2.000E+04 -2.353E+00
   1   18   30     3     9    1.2675E+06 -4.3659E+04   1.3111E+06  0.000E+00  0.000E+00  0.000E+00  3.10010E+01  5.566E-01  2.000E+01  2.000E+04 -2.183E+00



1
              HEAD IN LAYER   1 AT END OF TIME STEP   1 IN STRESS PERIOD    6
  ---------------------------------------------------------------------------

          1      2      3      4      5      6      7      8      9     10
         11     12     13     14     15     16     17     18     19     20
         21     22     23     24     25     26     27     28     29     30
 .........................................................................
   1  ****** ****** ****** ****** ****** ****** ****** ****** ****** ******
      ****** ****** ****** ****** ****** ****** ****** ****** ****** ******
      ****** ****** ****** ****** ****** ****** ****** ****** ****** ******
   2  ****** ****** ****** ****** ****** ****** ****** ****** ****** ******
      ****** ****** ****** ****** ****** ****** ****** ****** ****** ******
      ****** ****** ****** ****** ****** ****** ****** ****** ****** ******
   3  ****** ****** ****** ****** ****** ****** ****** ****** ****** ******
      ****** ****** ****** ****** ****** ****** ****** ****** ****** ******
      ****** ****** ****** ****** ****** ****** ****** ****** ****** ******
   4  ****** ****** ****** ****** ****** ****** ****** ****** ****** ******
      ****** ****** ****** ****** ****** ****** ****** ****** ****** ******
      ****** ****** ****** ****** ****** ****** ****** ****** ****** ******
   5  ****** ****** ****** ****** ****** ****** ****** ****** ****** ******
      ****** ****** ****** ****** ****** ****** ****** ****** ****** ******
      ****** ****** ****** ****** ****** ****** ****** ****** ****** ******
   6  ****** ****** ****** ****** ****** ****** ****** ****** ****** ******
      ****** ****** ****** ****** ****** ****** ****** ****** ****** ******
      ****** ****** ****** ****** ****** ****** ****** ****** ****** ******
   7  ****** ****** ****** ****** ****** ****** ****** ****** ****** ******
      ****** ****** ****** ****** ****** ****** ****** ****** ****** ******
      ****** ****** ****** ****** ****** ****** ****** ****** ****** ******
   8  ****** ****** ****** ****** ****** ****** ****** ****** ****** ******
      ****** ****** ****** ****** ****** ****** ****** ****** ****** ******
      ****** ****** ****** ****** ****** ****** ****** ****** ****** ******
   9  ****** ****** ****** ****** ****** ****** ****** ****** ****** ******
      ****** ****** ****** ****** ****** ****** ****** ****** ****** ******
      ****** ****** ****** ****** ****** ****** ****** ****** ****** ******
  10  ****** ****** ****** ****** ****** ****** ****** ****** ****** ******
      ****** ****** ****** ****** ****** ****** ****** ****** ****** ******
      ****** ****** ****** ****** ****** ****** ****** ****** ****** ******
  11  ****** ****** ****** ****** ****** ****** ****** ****** ****** ******
      ****** ****** ****** ****** ****** ****** ****** ****** ****** ******
      ****** ****** ****** ****** ****** ****** ****** ****** ****** ******
  12  ****** ****** ****** ****** ****** ****** ****** ****** ****** ******
      ****** ****** ****** ****** ****** ****** ****** ****** ****** ******
      ****** ****** ****** ****** ****** ****** ****** ****** ****** ******
  13  ****** ****** ****** ****** ****** ****** ****** ****** ****** ******
      ****** ****** ****** ****** ****** ****** ****** ****** ****** ******
      ****** ****** ****** ****** ****** ****** ****** ****** ****** ******
  14  ****** ****** ****** ****** ****** ****** ****** ****** ****** ******
      ****** ****** ****** ****** ****** ****** ****** ****** ****** ******
      ****** ****** ****** ****** ****** ****** ****** ****** ****** ******
  15  ****** ****** ****** ****** ****** ****** ****** ****** ****** ******
      ****** ****** ****** ****** ****** ****** ****** ****** ****** ******
      ****** ****** ****** ****** ****** ****** ****** ****** ****** ******
  16  ****** ****** ****** ****** ****** ****** ****** ****** ****** ******
      ****** ****** ****** ****** ****** ****** ****** ****** ****** ******
      ****** ****** ****** ****** ****** ****** ****** ****** ****** ******
  17  ****** ****** ****** ****** ****** ****** ****** ****** ****** ******
      ****** ****** ****** ****** ****** ****** ****** ****** ****** ******
      ****** ****** ****** ****** ****** ****** ****** ****** ****** ******
  18  ****** ****** ****** ****** ****** ****** ****** ****** ****** ******
      ****** ****** ****** ****** ****** ****** ****** ****** ****** ******
      ****** ****** ****** ****** ****** ****** ****** ****** ****** ******
  19  ****** ****** ****** ****** ****** ****** ****** ****** ****** ******
      ****** ****** ****** ****** ****** ****** ****** ****** ****** ******
      ****** ****** ****** ****** ****** ****** ****** ****** ****** ******
  20  ****** ****** ****** ****** ****** ****** ****** ****** ****** ******
      ****** ****** ****** ****** ****** ****** ****** ****** ****** ******
      ****** ****** ****** ****** ****** ****** ****** ****** ****** ******
  21  ****** ****** ****** ****** ****** ****** ****** ****** ****** ******
      ****** ****** ****** ****** ****** ****** ****** ****** ****** ******
      ****** ****** ****** ****** ****** ****** ****** ****** ****** ******
  22  ****** ****** ****** ****** ****** ****** ****** ****** ****** ******
      ****** ****** ****** ****** ****** ****** ****** ****** ****** ******
      ****** ****** ****** ****** ****** ****** ****** ****** ****** ******
  23  ****** ****** ****** ****** ****** ****** ****** ****** ****** ******
      ****** ****** ****** ****** ****** ****** ****** ****** ****** ******
      ****** ****** ****** ****** ****** ****** ****** ****** ****** ******
  24  ****** ****** ****** ****** ****** ****** ****** ****** ****** ******
      ****** ****** ****** ****** ****** ****** ****** ****** ****** ******
      ****** ****** ****** ****** ****** ****** ****** ****** ****** ******
  25  ****** ****** ****** ****** ****** ****** ****** ****** ****** ******
      ****** ****** ****** ****** ****** ****** ****** ****** ****** ******
      ****** ****** ****** ****** ****** ****** ****** ****** ****** ******

 HEAD WILL BE SAVED ON UNIT   51 AT END OF TIME STEP    1, STRESS PERIOD    6
1
  VOLUMETRIC BUDGET FOR ENTIRE MODEL AT END OF TIME STEP    1, STRESS PERIOD   6
  ------------------------------------------------------------------------------

     CUMULATIVE VOLUMES      L**3       RATES FOR THIS TIME STEP      L**3/T
     ------------------                 ------------------------

           IN:                                      IN:
           ---                                      ---
             STORAGE =    20497305.1886               STORAGE =           0.0000
       CONSTANT HEAD =   665670502.9367         CONSTANT HEAD =     1193717.2383
               WELLS =           0.0000                 WELLS =           0.0000
            RECHARGE =    15097200.0000              RECHARGE =       55200.0000
      STREAM LEAKAGE =           0.0000        STREAM LEAKAGE =           0.0000

            TOTAL IN =   701265008.1254              TOTAL IN =     1248917.2383

          OUT:                                     OUT:
          ----                                     ----
             STORAGE =      471671.8653               STORAGE =        2769.9356
       CONSTANT HEAD =           0.0000         CONSTANT HEAD =           0.0000
               WELLS =    59420183.0000                 WELLS =       85000.5000
            RECHARGE =           0.0000              RECHARGE =           0.0000
      STREAM LEAKAGE =   641373160.3035        STREAM LEAKAGE =     1161146.7642

           TOTAL OUT =   701265015.1688             TOTAL OUT =     1248917.1998

            IN - OUT =          -7.0434              IN - OUT =       3.8528E-02

 PERCENT DISCREPANCY =          -0.00     PERCENT DISCREPANCY =           0.00






         TIME SUMMARY AT END OF TIME STEP    1 IN STRESS PERIOD    6
                    SECONDS     MINUTES      HOURS       DAYS        YEARS
                    -----------------------------------------------------------
   TIME STEP LENGTH 7.86240E+06 1.31040E+05  2184.0      91.000     0.24914    
 STRESS PERIOD TIME 7.86240E+06 1.31040E+05  2184.0      91.000     0.24914    
         TOTAL TIME 4.73472E+07 7.89120E+05  13152.      548.00      1.5003    
1
1
                            STRESS PERIOD NO.    7, LENGTH =   91.00000    
                            -----------------------------------------------

                              NUMBER OF TIME STEPS =     1

                               MULTIPLIER FOR DELT =     1.500

                            INITIAL TIME STEP SIZE =   91.00000    

 WELL NO.  LAYER   ROW   COL   STRESS RATE         
 --------------------------------------------------
      1      1     22     22     -0.3000E+05
      2      1      2     29     -0.5000E+05
      3      1      5     21     -0.5000E+05

      3 WELLS

                 RECHARGE =   0.00000    

 REUSING STREAM SEGMENT DATA FROM LAST STRESS PERIOD
 
 SOLVING FOR HEAD 


     6 CALLS TO PCG ROUTINE FOR TIME STEP   1 IN STRESS PERIOD    7
    23 TOTAL ITERATIONS

 OUTPUT CONTROL FOR STRESS PERIOD    7   TIME STEP    1
    SAVE BUDGET
    SAVE HEAD FOR ALL LAYERS
    PRINT HEAD FOR ALL LAYERS
 UBDSV2 SAVING "STREAMFLOW OUT  " ON UNIT  50 AT TIME STEP  1, STRESS PERIOD   7



 STREAM LISTING     PERIOD      7   STEP        1

 LAYER ROW COL. STREAM  RCH.  FLOW INTO     FLOW TO   FLOW OUT OF   OVRLND.     DIRECT     STREAM       STREAM     STREAM     STREAM   STREAMBED  STREAMBED
                SEG.NO.  NO.  STRM. RCH.    AQUIFER    STRM. RCH.    RUNOFF     PRECIP       ET          HEAD       DEPTH      WIDTH   CONDCTNC.   GRADIENT

   1   13    1     1     1    1.0000E+05 -2.7446E+04   1.2745E+05  0.000E+00  0.000E+00  0.000E+00  4.84176E+01  1.563E-01  2.000E+01  2.000E+04 -1.372E+00
   1   13    2     1     2    1.2745E+05 -3.7104E+04   1.6455E+05  0.000E+00  0.000E+00  0.000E+00  4.79656E+01  1.815E-01  2.000E+01  2.000E+04 -1.855E+00
   1   14    3     1     3    1.6455E+05 -3.2598E+04   1.9715E+05  0.000E+00  0.000E+00  0.000E+00  4.75132E+01  2.064E-01  2.000E+01  2.000E+04 -1.630E+00
   1   15    4     1     4    1.9715E+05 -3.1857E+04   2.2900E+05  0.000E+00  0.000E+00  0.000E+00  4.70573E+01  2.277E-01  2.000E+01  2.000E+04 -1.593E+00
   1   16    5     1     5    2.2900E+05 -3.3429E+04   2.6243E+05  0.000E+00  0.000E+00  0.000E+00  4.66004E+01  2.481E-01  2.000E+01  2.000E+04 -1.671E+00
   1   16    6     1     6    2.6243E+05 -2.9199E+04   2.9163E+05  0.000E+00  0.000E+00  0.000E+00  4.61416E+01  2.666E-01  2.000E+01  2.000E+04 -1.460E+00
   1   16    7     1     7    2.9163E+05 -2.9016E+04   3.2065E+05  0.000E+00  0.000E+00  0.000E+00  4.56808E+01  2.831E-01  2.000E+01  2.000E+04 -1.451E+00
   1   16    8     1     8    3.2065E+05 -2.9190E+04   3.4984E+05  0.000E+00  0.000E+00  0.000E+00  4.52194E+01  2.989E-01  2.000E+01  2.000E+04 -1.460E+00
   1   16    9     1     9    3.4984E+05 -2.9261E+04   3.7910E+05  0.000E+00  0.000E+00  0.000E+00  4.47575E+01  3.143E-01  2.000E+01  2.000E+04 -1.463E+00
   1   16   10     1    10    3.7910E+05 -2.9275E+04   4.0838E+05  0.000E+00  0.000E+00  0.000E+00  4.42951E+01  3.292E-01  2.000E+01  2.000E+04 -1.464E+00
   1   16   11     1    11    4.0838E+05 -2.9851E+04   4.3823E+05  0.000E+00  0.000E+00  0.000E+00  4.38324E+01  3.438E-01  2.000E+01  2.000E+04 -1.493E+00
   1   16   12     1    12    4.3823E+05 -3.5238E+04   4.7346E+05  0.000E+00  0.000E+00  0.000E+00  4.33708E+01  3.594E-01  2.000E+01  2.000E+04 -1.762E+00
   1   15   13     1    13    4.7346E+05 -3.3845E+04   5.0731E+05  0.000E+00  0.000E+00  0.000E+00  4.29096E+01  3.755E-01  2.000E+01  2.000E+04 -1.692E+00
   1   14   14     1    14    5.0731E+05 -3.4300E+04   5.4161E+05  0.000E+00  0.000E+00  0.000E+00  4.24478E+01  3.910E-01  2.000E+01  2.000E+04 -1.715E+00
   1   13   15     1    15    5.4161E+05 -3.6334E+04   5.7794E+05  0.000E+00  0.000E+00  0.000E+00  4.19861E+01  4.066E-01  2.000E+01  2.000E+04 -1.817E+00
   1   12   16     1    16    5.7794E+05 -4.1972E+04   6.1991E+05  0.000E+00  0.000E+00  0.000E+00  4.15257E+01  4.234E-01  2.000E+01  2.000E+04 -2.099E+00
   1   12   17     1    17    6.1991E+05 -3.2552E+04   6.5247E+05  0.000E+00  0.000E+00  0.000E+00  4.10640E+01  4.390E-01  2.000E+01  2.000E+04 -1.628E+00
   1   12   18     1    18    6.5247E+05 -3.0733E+04   6.8320E+05  0.000E+00  0.000E+00  0.000E+00  4.05997E+01  4.520E-01  2.000E+01  2.000E+04 -1.537E+00
   1   12   19     1    19    6.8320E+05 -3.4288E+04   7.1749E+05  0.000E+00  0.000E+00  0.000E+00  4.01355E+01  4.651E-01  2.000E+01  2.000E+04 -1.714E+00
   1   13   20     1    20    7.1749E+05 -2.5164E+04   7.4265E+05  0.000E+00  0.000E+00  0.000E+00  3.96700E+01  4.768E-01  2.000E+01  2.000E+04 -1.258E+00
   1   14   21     1    21    7.4265E+05 -1.8491E+04   7.6114E+05  0.000E+00  0.000E+00  0.000E+00  3.92012E+01  4.853E-01  2.000E+01  2.000E+04 -9.246E-01
   1   14   22     1    22    7.6114E+05 -1.2141E+03   7.6236E+05  0.000E+00  0.000E+00  0.000E+00  3.87278E+01  4.891E-01  2.000E+01  2.000E+04 -6.070E-02
   1    9   30     2     1    5.0000E+04 -2.4780E+04   7.4780E+04  0.000E+00  0.000E+00  0.000E+00  4.02573E+01  1.323E-01  2.000E+01  2.000E+04 -1.239E+00
   1    9   29     2     2    7.4780E+04 -2.7208E+04   1.0199E+05  0.000E+00  0.000E+00  0.000E+00  4.00381E+01  1.631E-01  2.000E+01  2.000E+04 -1.360E+00
   1    9   28     2     3    1.0199E+05 -3.1309E+04   1.3330E+05  0.000E+00  0.000E+00  0.000E+00  3.98186E+01  1.936E-01  2.000E+01  2.000E+04 -1.565E+00
   1    9   27     2     4    1.3330E+05 -4.4605E+04   1.7790E+05  0.000E+00  0.000E+00  0.000E+00  3.96040E+01  2.290E-01  2.000E+01  2.000E+04 -2.230E+00
   1   10   26     2     5    1.7790E+05 -3.1014E+04   2.0892E+05  0.000E+00  0.000E+00  0.000E+00  3.93859E+01  2.609E-01  2.000E+01  2.000E+04 -1.551E+00
   1   11   25     2     6    2.0892E+05 -2.3004E+04   2.3192E+05  0.000E+00  0.000E+00  0.000E+00  3.91572E+01  2.822E-01  2.000E+01  2.000E+04 -1.150E+00
   1   12   24     2     7    2.3192E+05 -1.6855E+04   2.4877E+05  0.000E+00  0.000E+00  0.000E+00  3.89222E+01  2.972E-01  2.000E+01  2.000E+04 -8.428E-01
   1   13   23     2     8    2.4877E+05 -1.2011E+04   2.6079E+05  0.000E+00  0.000E+00  0.000E+00  3.86828E+01  3.078E-01  2.000E+01  2.000E+04 -6.006E-01
   1   14   22     2     9    2.6079E+05 -6.9764E+03   2.6776E+05  0.000E+00  0.000E+00  0.000E+00  3.84396E+01  3.146E-01  2.000E+01  2.000E+04 -3.488E-01
   1   14   22     3     1    1.0301E+06 -1.4887E+04   1.0450E+06  0.000E+00  0.000E+00  0.000E+00  3.80441E+01  4.885E-01  2.000E+01  2.000E+04 -7.443E-01
   1   15   23     3     2    1.0450E+06 -2.2515E+04   1.0675E+06  0.000E+00  0.000E+00  0.000E+00  3.71605E+01  4.938E-01  2.000E+01  2.000E+04 -1.126E+00
   1   15   24     3     3    1.0675E+06 -1.8832E+04   1.0864E+06  0.000E+00  0.000E+00  0.000E+00  3.62774E+01  4.996E-01  2.000E+01  2.000E+04 -9.416E-01
   1   15   25     3     4    1.0864E+06 -1.8559E+04   1.1049E+06  0.000E+00  0.000E+00  0.000E+00  3.53937E+01  5.048E-01  2.000E+01  2.000E+04 -9.279E-01
   1   15   26     3     5    1.1049E+06 -2.1372E+04   1.1263E+06  0.000E+00  0.000E+00  0.000E+00  3.45103E+01  5.103E-01  2.000E+01  2.000E+04 -1.069E+00
   1   16   27     3     6    1.1263E+06 -2.8323E+04   1.1546E+06  0.000E+00  0.000E+00  0.000E+00  3.36282E+01  5.171E-01  2.000E+01  2.000E+04 -1.416E+00
   1   17   28     3     7    1.1546E+06 -3.5346E+04   1.1900E+06  0.000E+00  0.000E+00  0.000E+00  3.27479E+01  5.257E-01  2.000E+01  2.000E+04 -1.767E+00
   1   18   29     3     8    1.1900E+06 -4.6376E+04   1.2363E+06  0.000E+00  0.000E+00  0.000E+00  3.18699E+01  5.366E-01  2.000E+01  2.000E+04 -2.319E+00
   1   18   30     3     9    1.2363E+06 -4.3090E+04   1.2794E+06  0.000E+00  0.000E+00  0.000E+00  3.09928E+01  5.484E-01  2.000E+01  2.000E+04 -2.154E+00



1
              HEAD IN LAYER   1 AT END OF TIME STEP   1 IN STRESS PERIOD    7
  ---------------------------------------------------------------------------

          1      2      3      4      5      6      7      8      9     10
         11     12     13     14     15     16     17     18     19     20
         21     22     23     24     25     26     27     28     29     30
 .........................................................................
   1  ****** ****** ****** ****** ****** ****** ****** ****** ****** ******
      ****** ****** ****** ****** ****** ****** ****** ****** ****** ******
      ****** ****** ****** ****** ****** ****** ****** ****** ****** ******
   2  ****** ****** ****** ****** ****** ****** ****** ****** ****** ******
      ****** ****** ****** ****** ****** ****** ****** ****** ****** ******
      ****** ****** ****** ****** ****** ****** ****** ****** ****** ******
   3  ****** ****** ****** ****** ****** ****** ****** ****** ****** ******
      ****** ****** ****** ****** ****** ****** ****** ****** ****** ******
      ****** ****** ****** ****** ****** ****** ****** ****** ****** ******
   4  ****** ****** ****** ****** ****** ****** ****** ****** ****** ******
      ****** ****** ****** ****** ****** ****** ****** ****** ****** ******
      ****** ****** ****** ****** ****** ****** ****** ****** ****** ******
   5  ****** ****** ****** ****** ****** ****** ****** ****** ****** ******
      ****** ****** ****** ****** ****** ****** ****** ****** ****** ******
      ****** ****** ****** ****** ****** ****** ****** ****** ****** ******
   6  ****** ****** ****** ****** ****** ****** ****** ****** ****** ******
      ****** ****** ****** ****** ****** ****** ****** ****** ****** ******
      ****** ****** ****** ****** ****** ****** ****** ****** ****** ******
   7  ****** ****** ****** ****** ****** ****** ****** ****** ****** ******
      ****** ****** ****** ****** ****** ****** ****** ****** ****** ******
      ****** ****** ****** ****** ****** ****** ****** ****** ****** ******
   8  ****** ****** ****** ****** ****** ****** ****** ****** ****** ******
      ****** ****** ****** ****** ****** ****** ****** ****** ****** ******
      ****** ****** ****** ****** ****** ****** ****** ****** ****** ******
   9  ****** ****** ****** ****** ****** ****** ****** ****** ****** ******
      ****** ****** ****** ****** ****** ****** ****** ****** ****** ******
      ****** ****** ****** ****** ****** ****** ****** ****** ****** ******
  10  ****** ****** ****** ****** ****** ****** ****** ****** ****** ******
      ****** ****** ****** ****** ****** ****** ****** ****** ****** ******
      ****** ****** ****** ****** ****** ****** ****** ****** ****** ******
  11  ****** ****** ****** ****** ****** ****** ****** ****** ****** ******
      ****** ****** ****** ****** ****** ****** ****** ****** ****** ******
      ****** ****** ****** ****** ****** ****** ****** ****** ****** ******
  12  ****** ****** ****** ****** ****** ****** ****** ****** ****** ******
      ****** ****** ****** ****** ****** ****** ****** ****** ****** ******
      ****** ****** ****** ****** ****** ****** ****** ****** ****** ******
  13  ****** ****** ****** ****** ****** ****** ****** ****** ****** ******
      ****** ****** ****** ****** ****** ****** ****** ****** ****** ******
      ****** ****** ****** ****** ****** ****** ****** ****** ****** ******
  14  ****** ****** ****** ****** ****** ****** ****** ****** ****** ******
      ****** ****** ****** ****** ****** ****** ****** ****** ****** ******
      ****** ****** ****** ****** ****** ****** ****** ****** ****** ******
  15  ****** ****** ****** ****** ****** ****** ****** ****** ****** ******
      ****** ****** ****** ****** ****** ****** ****** ****** ****** ******
      ****** ****** ****** ****** ****** ****** ****** ****** ****** ******
  16  ****** ****** ****** ****** ****** ****** ****** ****** ****** ******
      ****** ****** ****** ****** ****** ****** ****** ****** ****** ******
      ****** ****** ****** ****** ****** ****** ****** ****** ****** ******
  17  ****** ****** ****** ****** ****** ****** ****** ****** ****** ******
      ****** ****** ****** ****** ****** ****** ****** ****** ****** ******
      ****** ****** ****** ****** ****** ****** ****** ****** ****** ******
  18  ****** ****** ****** ****** ****** ****** ****** ****** ****** ******
      ****** ****** ****** ****** ****** ****** ****** ****** ****** ******
      ****** ****** ****** ****** ****** ****** ****** ****** ****** ******
  19  ****** ****** ****** ****** ****** ****** ****** ****** ****** ******
      ****** ****** ****** ****** ****** ****** ****** ****** ****** ******
      ****** ****** ****** ****** ****** ****** ****** ****** ****** ******
  20  ****** ****** ****** ****** ****** ****** ****** ****** ****** ******
      ****** ****** ****** ****** ****** ****** ****** ****** ****** ******
      ****** ****** ****** ****** ****** ****** ****** ****** ****** ******
  21  ****** ****** ****** ****** ****** ****** ****** ****** ****** ******
      ****** ****** ****** ****** ****** ****** ****** ****** ****** ******
      ****** ****** ****** ****** ****** ****** ****** ****** ****** ******
  22  ****** ****** ****** ****** ****** ****** ****** ****** ****** ******
      ****** ****** ****** ****** ****** ****** ****** ****** ****** ******
      ****** ****** ****** ****** ****** ****** ****** ****** ****** ******
  23  ****** ****** ****** ****** ****** ****** ****** ****** ****** ******
      ****** ****** ****** ****** ****** ****** ****** ****** ****** ******
      ****** ****** ****** ****** ****** ****** ****** ****** ****** ******
  24  ****** ****** ****** ****** ****** ****** ****** ****** ****** ******
      ****** ****** ****** ****** ****** ****** ****** ****** ****** ******
      ****** ****** ****** ****** ****** ****** ****** ****** ****** ******
  25  ****** ****** ****** ****** ****** ****** ****** ****** ****** ******
      ****** ****** ****** ****** ****** ****** ****** ****** ****** ******
      ****** ****** ****** ****** ****** ****** ****** ****** ****** ******

 HEAD WILL BE SAVED ON UNIT   51 AT END OF TIME STEP    1, STRESS PERIOD    7
1
  VOLUMETRIC BUDGET FOR ENTIRE MODEL AT END OF TIME STEP    1, STRESS PERIOD   7
  ------------------------------------------------------------------------------

     CUMULATIVE VOLUMES      L**3       RATES FOR THIS TIME STEP      L**3/T
     ------------------                 ------------------------

           IN:                                      IN:
           ---                                      ---
             STORAGE =    20776659.6012               STORAGE =        3069.8287
       CONSTANT HEAD =   779998772.2806         CONSTANT HEAD =     1256354.6082
               WELLS =           0.0000                 WELLS =           0.0000
            RECHARGE =    15097200.0000              RECHARGE =           0.0000
      STREAM LEAKAGE =           0.0000        STREAM LEAKAGE =           0.0000

            TOTAL IN =   815872631.8818              TOTAL IN =     1259424.4369

          OUT:                                     OUT:
          ----                                     ----
             STORAGE =      472247.9291               STORAGE =           6.3304
       CONSTANT HEAD =           0.0000         CONSTANT HEAD =           0.0000
               WELLS =    71250183.0000                 WELLS =      130000.0000
            RECHARGE =           0.0000              RECHARGE =           0.0000
      STREAM LEAKAGE =   744150211.4270        STREAM LEAKAGE =     1129418.1442

           TOTAL OUT =   815872642.3561             TOTAL OUT =     1259424.4746

            IN - OUT =         -10.4743              IN - OUT =      -3.7702E-02

 PERCENT DISCREPANCY =          -0.00     PERCENT DISCREPANCY =          -0.00






         TIME SUMMARY AT END OF TIME STEP    1 IN STRESS PERIOD    7
                    SECONDS     MINUTES      HOURS       DAYS        YEARS
                    -----------------------------------------------------------
   TIME STEP LENGTH 7.86240E+06 1.31040E+05  2184.0      91.000     0.24914    
 STRESS PERIOD TIME 7.86240E+06 1.31040E+05  2184.0      91.000     0.24914    
         TOTAL TIME 5.52096E+07 9.20160E+05  15336.      639.00      1.7495    
1
1
                            STRESS PERIOD NO.    8, LENGTH =   91.00000    
                            -----------------------------------------------

                              NUMBER OF TIME STEPS =     1

                               MULTIPLIER FOR DELT =     1.500

                            INITIAL TIME STEP SIZE =   91.00000    

 WELL NO.  LAYER   ROW   COL   STRESS RATE         
 --------------------------------------------------
      1      1     22     22     -0.3000E+05
      2      1      2     29       0.000    
      3      1      5     21     -0.5000E+05

      3 WELLS

                 RECHARGE =  1.000000E-03

 REUSING STREAM SEGMENT DATA FROM LAST STRESS PERIOD
 
 SOLVING FOR HEAD 


     6 CALLS TO PCG ROUTINE FOR TIME STEP   1 IN STRESS PERIOD    8
    22 TOTAL ITERATIONS

 OUTPUT CONTROL FOR STRESS PERIOD    8   TIME STEP    1
    SAVE BUDGET
    SAVE HEAD FOR ALL LAYERS
    PRINT HEAD FOR ALL LAYERS
 UBDSV2 SAVING "STREAMFLOW OUT  " ON UNIT  50 AT TIME STEP  1, STRESS PERIOD   8



 STREAM LISTING     PERIOD      8   STEP        1

 LAYER ROW COL. STREAM  RCH.  FLOW INTO     FLOW TO   FLOW OUT OF   OVRLND.     DIRECT     STREAM       STREAM     STREAM     STREAM   STREAMBED  STREAMBED
                SEG.NO.  NO.  STRM. RCH.    AQUIFER    STRM. RCH.    RUNOFF     PRECIP       ET          HEAD       DEPTH      WIDTH   CONDCTNC.   GRADIENT

   1   13    1     1     1    1.0000E+05 -2.7841E+04   1.2784E+05  0.000E+00  0.000E+00  0.000E+00  4.84178E+01  1.564E-01  2.000E+01  2.000E+04 -1.392E+00
   1   13    2     1     2    1.2784E+05 -3.7574E+04   1.6541E+05  0.000E+00  0.000E+00  0.000E+00  4.79661E+01  1.820E-01  2.000E+01  2.000E+04 -1.879E+00
   1   14    3     1     3    1.6541E+05 -3.3062E+04   1.9848E+05  0.000E+00  0.000E+00  0.000E+00  4.75140E+01  2.072E-01  2.000E+01  2.000E+04 -1.653E+00
   1   15    4     1     4    1.9848E+05 -3.2306E+04   2.3078E+05  0.000E+00  0.000E+00  0.000E+00  4.70583E+01  2.287E-01  2.000E+01  2.000E+04 -1.615E+00
   1   16    5     1     5    2.3078E+05 -3.3836E+04   2.6462E+05  0.000E+00  0.000E+00  0.000E+00  4.66015E+01  2.493E-01  2.000E+01  2.000E+04 -1.692E+00
   1   16    6     1     6    2.6462E+05 -2.9553E+04   2.9417E+05  0.000E+00  0.000E+00  0.000E+00  4.61430E+01  2.680E-01  2.000E+01  2.000E+04 -1.478E+00
   1   16    7     1     7    2.9417E+05 -2.9367E+04   3.2354E+05  0.000E+00  0.000E+00  0.000E+00  4.56823E+01  2.846E-01  2.000E+01  2.000E+04 -1.468E+00
   1   16    8     1     8    3.2354E+05 -2.9542E+04   3.5308E+05  0.000E+00  0.000E+00  0.000E+00  4.52210E+01  3.005E-01  2.000E+01  2.000E+04 -1.477E+00
   1   16    9     1     9    3.5308E+05 -2.9613E+04   3.8269E+05  0.000E+00  0.000E+00  0.000E+00  4.47592E+01  3.160E-01  2.000E+01  2.000E+04 -1.481E+00
   1   16   10     1    10    3.8269E+05 -2.9627E+04   4.1232E+05  0.000E+00  0.000E+00  0.000E+00  4.42970E+01  3.311E-01  2.000E+01  2.000E+04 -1.481E+00
   1   16   11     1    11    4.1232E+05 -3.0208E+04   4.4253E+05  0.000E+00  0.000E+00  0.000E+00  4.38344E+01  3.458E-01  2.000E+01  2.000E+04 -1.510E+00
   1   16   12     1    12    4.4253E+05 -3.5654E+04   4.7818E+05  0.000E+00  0.000E+00  0.000E+00  4.33729E+01  3.616E-01  2.000E+01  2.000E+04 -1.783E+00
   1   15   13     1    13    4.7818E+05 -3.4306E+04   5.1249E+05  0.000E+00  0.000E+00  0.000E+00  4.29119E+01  3.778E-01  2.000E+01  2.000E+04 -1.715E+00
   1   14   14     1    14    5.1249E+05 -3.4780E+04   5.4727E+05  0.000E+00  0.000E+00  0.000E+00  4.24502E+01  3.934E-01  2.000E+01  2.000E+04 -1.739E+00
   1   13   15     1    15    5.4727E+05 -3.6818E+04   5.8409E+05  0.000E+00  0.000E+00  0.000E+00  4.19887E+01  4.091E-01  2.000E+01  2.000E+04 -1.841E+00
   1   12   16     1    16    5.8409E+05 -4.2458E+04   6.2654E+05  0.000E+00  0.000E+00  0.000E+00  4.15284E+01  4.261E-01  2.000E+01  2.000E+04 -2.123E+00
   1   12   17     1    17    6.2654E+05 -3.2957E+04   6.5950E+05  0.000E+00  0.000E+00  0.000E+00  4.10668E+01  4.418E-01  2.000E+01  2.000E+04 -1.648E+00
   1   12   18     1    18    6.5950E+05 -3.1136E+04   6.9064E+05  0.000E+00  0.000E+00  0.000E+00  4.06026E+01  4.549E-01  2.000E+01  2.000E+04 -1.557E+00
   1   12   19     1    19    6.9064E+05 -3.4757E+04   7.2540E+05  0.000E+00  0.000E+00  0.000E+00  4.01386E+01  4.681E-01  2.000E+01  2.000E+04 -1.738E+00
   1   13   20     1    20    7.2540E+05 -2.5585E+04   7.5098E+05  0.000E+00  0.000E+00  0.000E+00  3.96732E+01  4.800E-01  2.000E+01  2.000E+04 -1.279E+00
   1   14   21     1    21    7.5098E+05 -1.8834E+04   7.6981E+05  0.000E+00  0.000E+00  0.000E+00  3.92045E+01  4.886E-01  2.000E+01  2.000E+04 -9.417E-01
   1   14   22     1    22    7.6981E+05 -1.3654E+03   7.7118E+05  0.000E+00  0.000E+00  0.000E+00  3.87311E+01  4.925E-01  2.000E+01  2.000E+04 -6.827E-02
   1    9   30     2     1    5.0000E+04 -2.6034E+04   7.6034E+04  0.000E+00  0.000E+00  0.000E+00  4.02581E+01  1.331E-01  2.000E+01  2.000E+04 -1.302E+00
   1    9   29     2     2    7.6034E+04 -2.8411E+04   1.0444E+05  0.000E+00  0.000E+00  0.000E+00  4.00401E+01  1.651E-01  2.000E+01  2.000E+04 -1.421E+00
   1    9   28     2     3    1.0444E+05 -3.2453E+04   1.3690E+05  0.000E+00  0.000E+00  0.000E+00  3.98216E+01  1.966E-01  2.000E+01  2.000E+04 -1.623E+00
   1    9   27     2     4    1.3690E+05 -4.5834E+04   1.8273E+05  0.000E+00  0.000E+00  0.000E+00  3.96077E+01  2.327E-01  2.000E+01  2.000E+04 -2.292E+00
   1   10   26     2     5    1.8273E+05 -3.1824E+04   2.1456E+05  0.000E+00  0.000E+00  0.000E+00  3.93901E+01  2.651E-01  2.000E+01  2.000E+04 -1.591E+00
   1   11   25     2     6    2.1456E+05 -2.3604E+04   2.3816E+05  0.000E+00  0.000E+00  0.000E+00  3.91617E+01  2.867E-01  2.000E+01  2.000E+04 -1.180E+00
   1   12   24     2     7    2.3816E+05 -1.7308E+04   2.5547E+05  0.000E+00  0.000E+00  0.000E+00  3.89270E+01  3.020E-01  2.000E+01  2.000E+04 -8.654E-01
   1   13   23     2     8    2.5547E+05 -1.2332E+04   2.6780E+05  0.000E+00  0.000E+00  0.000E+00  3.86877E+01  3.127E-01  2.000E+01  2.000E+04 -6.166E-01
   1   14   22     2     9    2.6780E+05 -7.0945E+03   2.7490E+05  0.000E+00  0.000E+00  0.000E+00  3.84447E+01  3.197E-01  2.000E+01  2.000E+04 -3.547E-01
   1   14   22     3     1    1.0461E+06 -1.5015E+04   1.0611E+06  0.000E+00  0.000E+00  0.000E+00  3.80486E+01  4.931E-01  2.000E+01  2.000E+04 -7.508E-01
   1   15   23     3     2    1.0611E+06 -2.2813E+04   1.0839E+06  0.000E+00  0.000E+00  0.000E+00  3.71650E+01  4.984E-01  2.000E+01  2.000E+04 -1.141E+00
   1   15   24     3     3    1.0839E+06 -1.9086E+04   1.1030E+06  0.000E+00  0.000E+00  0.000E+00  3.62819E+01  5.042E-01  2.000E+01  2.000E+04 -9.543E-01
   1   15   25     3     4    1.1030E+06 -1.8818E+04   1.1218E+06  0.000E+00  0.000E+00  0.000E+00  3.53983E+01  5.094E-01  2.000E+01  2.000E+04 -9.409E-01
   1   15   26     3     5    1.1218E+06 -2.1683E+04   1.1435E+06  0.000E+00  0.000E+00  0.000E+00  3.45149E+01  5.149E-01  2.000E+01  2.000E+04 -1.084E+00
   1   16   27     3     6    1.1435E+06 -2.8683E+04   1.1722E+06  0.000E+00  0.000E+00  0.000E+00  3.36329E+01  5.218E-01  2.000E+01  2.000E+04 -1.434E+00
   1   17   28     3     7    1.1722E+06 -3.5707E+04   1.2079E+06  0.000E+00  0.000E+00  0.000E+00  3.27527E+01  5.304E-01  2.000E+01  2.000E+04 -1.785E+00
   1   18   29     3     8    1.2079E+06 -4.6707E+04   1.2546E+06  0.000E+00  0.000E+00  0.000E+00  3.18747E+01  5.414E-01  2.000E+01  2.000E+04 -2.335E+00
   1   18   30     3     9    1.2546E+06 -4.3369E+04   1.2980E+06  0.000E+00  0.000E+00  0.000E+00  3.09976E+01  5.532E-01  2.000E+01  2.000E+04 -2.168E+00



1
              HEAD IN LAYER   1 AT END OF TIME STEP   1 IN STRESS PERIOD    8
  ---------------------------------------------------------------------------

          1      2      3      4      5      6      7      8      9     10
         11     12     13     14     15     16     17     18     19     20
         21     22     23     24     25     26     27     28     29     30
 .........................................................................
   1  ****** ****** ****** ****** ****** ****** ****** ****** ****** ******
      ****** ****** ****** ****** ****** ****** ****** ****** ****** ******
      ****** ****** ****** ****** ****** ****** ****** ****** ****** ******
   2  ****** ****** ****** ****** ****** ****** ****** ****** ****** ******
      ****** ****** ****** ****** ****** ****** ****** ****** ****** ******
      ****** ****** ****** ****** ****** ****** ****** ****** ****** ******
   3  ****** ****** ****** ****** ****** ****** ****** ****** ****** ******
      ****** ****** ****** ****** ****** ****** ****** ****** ****** ******
      ****** ****** ****** ****** ****** ****** ****** ****** ****** ******
   4  ****** ****** ****** ****** ****** ****** ****** ****** ****** ******
      ****** ****** ****** ****** ****** ****** ****** ****** ****** ******
      ****** ****** ****** ****** ****** ****** ****** ****** ****** ******
   5  ****** ****** ****** ****** ****** ****** ****** ****** ****** ******
      ****** ****** ****** ****** ****** ****** ****** ****** ****** ******
      ****** ****** ****** ****** ****** ****** ****** ****** ****** ******
   6  ****** ****** ****** ****** ****** ****** ****** ****** ****** ******
      ****** ****** ****** ****** ****** ****** ****** ****** ****** ******
      ****** ****** ****** ****** ****** ****** ****** ****** ****** ******
   7  ****** ****** ****** ****** ****** ****** ****** ****** ****** ******
      ****** ****** ****** ****** ****** ****** ****** ****** ****** ******
      ****** ****** ****** ****** ****** ****** ****** ****** ****** ******
   8  ****** ****** ****** ****** ****** ****** ****** ****** ****** ******
      ****** ****** ****** ****** ****** ****** ****** ****** ****** ******
      ****** ****** ****** ****** ****** ****** ****** ****** ****** ******
   9  ****** ****** ****** ****** ****** ****** ****** ****** ****** ******
      ****** ****** ****** ****** ****** ****** ****** ****** ****** ******
      ****** ****** ****** ****** ****** ****** ****** ****** ****** ******
  10  ****** ****** ****** ****** ****** ****** ****** ****** ****** ******
      ****** ****** ****** ****** ****** ****** ****** ****** ****** ******
      ****** ****** ****** ****** ****** ****** ****** ****** ****** ******
  11  ****** ****** ****** ****** ****** ****** ****** ****** ****** ******
      ****** ****** ****** ****** ****** ****** ****** ****** ****** ******
      ****** ****** ****** ****** ****** ****** ****** ****** ****** ******
  12  ****** ****** ****** ****** ****** ****** ****** ****** ****** ******
      ****** ****** ****** ****** ****** ****** ****** ****** ****** ******
      ****** ****** ****** ****** ****** ****** ****** ****** ****** ******
  13  ****** ****** ****** ****** ****** ****** ****** ****** ****** ******
      ****** ****** ****** ****** ****** ****** ****** ****** ****** ******
      ****** ****** ****** ****** ****** ****** ****** ****** ****** ******
  14  ****** ****** ****** ****** ****** ****** ****** ****** ****** ******
      ****** ****** ****** ****** ****** ****** ****** ****** ****** ******
      ****** ****** ****** ****** ****** ****** ****** ****** ****** ******
  15  ****** ****** ****** ****** ****** ****** ****** ****** ****** ******
      ****** ****** ****** ****** ****** ****** ****** ****** ****** ******
      ****** ****** ****** ****** ****** ****** ****** ****** ****** ******
  16  ****** ****** ****** ****** ****** ****** ****** ****** ****** ******
      ****** ****** ****** ****** ****** ****** ****** ****** ****** ******
      ****** ****** ****** ****** ****** ****** ****** ****** ****** ******
  17  ****** ****** ****** ****** ****** ****** ****** ****** ****** ******
      ****** ****** ****** ****** ****** ****** ****** ****** ****** ******
      ****** ****** ****** ****** ****** ****** ****** ****** ****** ******
  18  ****** ****** ****** ****** ****** ****** ****** ****** ****** ******
      ****** ****** ****** ****** ****** ****** ****** ****** ****** ******
      ****** ****** ****** ****** ****** ****** ****** ****** ****** ******
  19  ****** ****** ****** ****** ****** ****** ****** ****** ****** ******
      ****** ****** ****** ****** ****** ****** ****** ****** ****** ******
      ****** ****** ****** ****** ****** ****** ****** ****** ****** ******
  20  ****** ****** ****** ****** ****** ****** ****** ****** ****** ******
      ****** ****** ****** ****** ****** ****** ****** ****** ****** ******
      ****** ****** ****** ****** ****** ****** ****** ****** ****** ******
  21  ****** ****** ****** ****** ****** ****** ****** ****** ****** ******
      ****** ****** ****** ****** ****** ****** ****** ****** ****** ******
      ****** ****** ****** ****** ****** ****** ****** ****** ****** ******
  22  ****** ****** ****** ****** ****** ****** ****** ****** ****** ******
      ****** ****** ****** ****** ****** ****** ****** ****** ****** ******
      ****** ****** ****** ****** ****** ****** ****** ****** ****** ******
  23  ****** ****** ****** ****** ****** ****** ****** ****** ****** ******
      ****** ****** ****** ****** ****** ****** ****** ****** ****** ******
      ****** ****** ****** ****** ****** ****** ****** ****** ****** ******
  24  ****** ****** ****** ****** ****** ****** ****** ****** ****** ******
      ****** ****** ****** ****** ****** ****** ****** ****** ****** ******
      ****** ****** ****** ****** ****** ****** ****** ****** ****** ******
  25  ****** ****** ****** ****** ****** ****** ****** ****** ****** ******
      ****** ****** ****** ****** ****** ****** ****** ****** ****** ******
      ****** ****** ****** ****** ****** ****** ****** ****** ****** ******

 HEAD WILL BE SAVED ON UNIT   51 AT END OF TIME STEP    1, STRESS PERIOD    8
1
  VOLUMETRIC BUDGET FOR ENTIRE MODEL AT END OF TIME STEP    1, STRESS PERIOD   8
  ------------------------------------------------------------------------------

     CUMULATIVE VOLUMES      L**3       RATES FOR THIS TIME STEP      L**3/T
     ------------------                 ------------------------

           IN:                                      IN:
           ---                                      ---
             STORAGE =    20776659.6012               STORAGE =           0.0000
       CONSTANT HEAD =   889416239.3402         CONSTANT HEAD =     1202389.7479
               WELLS =           0.0000                 WELLS =           0.0000
            RECHARGE =    17608800.0000              RECHARGE =       27600.0000
      STREAM LEAKAGE =           0.0000        STREAM LEAKAGE =           0.0000

            TOTAL IN =   927801698.9414              TOTAL IN =     1229989.7479

          OUT:                                     OUT:
          ----                                     ----
             STORAGE =      657330.0571               STORAGE =        2033.8695
       CONSTANT HEAD =           0.0000         CONSTANT HEAD =           0.0000
               WELLS =    78530183.0000                 WELLS =       80000.0000
            RECHARGE =           0.0000              RECHARGE =           0.0000
      STREAM LEAKAGE =   848614194.0454        STREAM LEAKAGE =     1147955.8529

           TOTAL OUT =   927801707.1024             TOTAL OUT =     1229989.7225

            IN - OUT =          -8.1610              IN - OUT =       2.5421E-02

 PERCENT DISCREPANCY =          -0.00     PERCENT DISCREPANCY =           0.00






         TIME SUMMARY AT END OF TIME STEP    1 IN STRESS PERIOD    8
                    SECONDS     MINUTES      HOURS       DAYS        YEARS
                    -----------------------------------------------------------
   TIME STEP LENGTH 7.86240E+06 1.31040E+05  2184.0      91.000     0.24914    
 STRESS PERIOD TIME 7.86240E+06 1.31040E+05  2184.0      91.000     0.24914    
         TOTAL TIME 6.30720E+07 1.05120E+06  17520.      730.00      1.9986    
1
1
                            STRESS PERIOD NO.    9, LENGTH =   92.00000    
                            -----------------------------------------------

                              NUMBER OF TIME STEPS =     1

                               MULTIPLIER FOR DELT =     1.500

                            INITIAL TIME STEP SIZE =   92.00000    

 WELL NO.  LAYER   ROW   COL   STRESS RATE         
 --------------------------------------------------
      1      1     22     22     -0.3000E+05
      2      1      2     29     -0.5000E+05
      3      1      5     21     -0.5500E+05

      3 WELLS

                 RECHARGE =  5.000000E-04

 REUSING STREAM SEGMENT DATA FROM LAST STRESS PERIOD
 
 SOLVING FOR HEAD 


     6 CALLS TO PCG ROUTINE FOR TIME STEP   1 IN STRESS PERIOD    9
    22 TOTAL ITERATIONS

 OUTPUT CONTROL FOR STRESS PERIOD    9   TIME STEP    1
    SAVE BUDGET
    SAVE HEAD FOR ALL LAYERS
    PRINT HEAD FOR ALL LAYERS
 UBDSV2 SAVING "STREAMFLOW OUT  " ON UNIT  50 AT TIME STEP  1, STRESS PERIOD   9



 STREAM LISTING     PERIOD      9   STEP        1

 LAYER ROW COL. STREAM  RCH.  FLOW INTO     FLOW TO   FLOW OUT OF   OVRLND.     DIRECT     STREAM       STREAM     STREAM     STREAM   STREAMBED  STREAMBED
                SEG.NO.  NO.  STRM. RCH.    AQUIFER    STRM. RCH.    RUNOFF     PRECIP       ET          HEAD       DEPTH      WIDTH   CONDCTNC.   GRADIENT

   1   13    1     1     1    1.0000E+05 -2.7636E+04   1.2764E+05  0.000E+00  0.000E+00  0.000E+00  4.84177E+01  1.563E-01  2.000E+01  2.000E+04 -1.382E+00
   1   13    2     1     2    1.2764E+05 -3.7328E+04   1.6496E+05  0.000E+00  0.000E+00  0.000E+00  4.79658E+01  1.817E-01  2.000E+01  2.000E+04 -1.866E+00
   1   14    3     1     3    1.6496E+05 -3.2821E+04   1.9779E+05  0.000E+00  0.000E+00  0.000E+00  4.75136E+01  2.068E-01  2.000E+01  2.000E+04 -1.641E+00
   1   15    4     1     4    1.9779E+05 -3.2074E+04   2.2986E+05  0.000E+00  0.000E+00  0.000E+00  4.70578E+01  2.282E-01  2.000E+01  2.000E+04 -1.604E+00
   1   16    5     1     5    2.2986E+05 -3.3628E+04   2.6349E+05  0.000E+00  0.000E+00  0.000E+00  4.66009E+01  2.487E-01  2.000E+01  2.000E+04 -1.681E+00
   1   16    6     1     6    2.6349E+05 -2.9370E+04   2.9286E+05  0.000E+00  0.000E+00  0.000E+00  4.61422E+01  2.672E-01  2.000E+01  2.000E+04 -1.469E+00
   1   16    7     1     7    2.9286E+05 -2.9185E+04   3.2204E+05  0.000E+00  0.000E+00  0.000E+00  4.56815E+01  2.838E-01  2.000E+01  2.000E+04 -1.459E+00
   1   16    8     1     8    3.2204E+05 -2.9358E+04   3.5140E+05  0.000E+00  0.000E+00  0.000E+00  4.52202E+01  2.997E-01  2.000E+01  2.000E+04 -1.468E+00
   1   16    9     1     9    3.5140E+05 -2.9428E+04   3.8083E+05  0.000E+00  0.000E+00  0.000E+00  4.47583E+01  3.151E-01  2.000E+01  2.000E+04 -1.471E+00
   1   16   10     1    10    3.8083E+05 -2.9441E+04   4.1027E+05  0.000E+00  0.000E+00  0.000E+00  4.42960E+01  3.301E-01  2.000E+01  2.000E+04 -1.472E+00
   1   16   11     1    11    4.1027E+05 -3.0019E+04   4.4029E+05  0.000E+00  0.000E+00  0.000E+00  4.38334E+01  3.448E-01  2.000E+01  2.000E+04 -1.501E+00
   1   16   12     1    12    4.4029E+05 -3.5435E+04   4.7572E+05  0.000E+00  0.000E+00  0.000E+00  4.33718E+01  3.605E-01  2.000E+01  2.000E+04 -1.772E+00
   1   15   13     1    13    4.7572E+05 -3.4054E+04   5.0978E+05  0.000E+00  0.000E+00  0.000E+00  4.29107E+01  3.766E-01  2.000E+01  2.000E+04 -1.703E+00
   1   14   14     1    14    5.0978E+05 -3.4505E+04   5.4428E+05  0.000E+00  0.000E+00  0.000E+00  4.24489E+01  3.921E-01  2.000E+01  2.000E+04 -1.725E+00
   1   13   15     1    15    5.4428E+05 -3.6518E+04   5.8080E+05  0.000E+00  0.000E+00  0.000E+00  4.19873E+01  4.078E-01  2.000E+01  2.000E+04 -1.826E+00
   1   12   16     1    16    5.8080E+05 -4.2105E+04   6.2290E+05  0.000E+00  0.000E+00  0.000E+00  4.15269E+01  4.246E-01  2.000E+01  2.000E+04 -2.105E+00
   1   12   17     1    17    6.2290E+05 -3.2644E+04   6.5555E+05  0.000E+00  0.000E+00  0.000E+00  4.10653E+01  4.403E-01  2.000E+01  2.000E+04 -1.632E+00
   1   12   18     1    18    6.5555E+05 -3.0800E+04   6.8635E+05  0.000E+00  0.000E+00  0.000E+00  4.06010E+01  4.532E-01  2.000E+01  2.000E+04 -1.540E+00
   1   12   19     1    19    6.8635E+05 -3.4330E+04   7.2068E+05  0.000E+00  0.000E+00  0.000E+00  4.01368E+01  4.663E-01  2.000E+01  2.000E+04 -1.716E+00
   1   13   20     1    20    7.2068E+05 -2.5256E+04   7.4593E+05  0.000E+00  0.000E+00  0.000E+00  3.96713E+01  4.781E-01  2.000E+01  2.000E+04 -1.263E+00
   1   14   21     1    21    7.4593E+05 -1.8609E+04   7.6454E+05  0.000E+00  0.000E+00  0.000E+00  3.92025E+01  4.866E-01  2.000E+01  2.000E+04 -9.304E-01
   1   14   22     1    22    7.6454E+05 -1.2502E+03   7.6579E+05  0.000E+00  0.000E+00  0.000E+00  3.87291E+01  4.904E-01  2.000E+01  2.000E+04 -6.251E-02
   1    9   30     2     1    5.0000E+04 -2.4875E+04   7.4875E+04  0.000E+00  0.000E+00  0.000E+00  4.02574E+01  1.324E-01  2.000E+01  2.000E+04 -1.244E+00
   1    9   29     2     2    7.4875E+04 -2.7294E+04   1.0217E+05  0.000E+00  0.000E+00  0.000E+00  4.00382E+01  1.632E-01  2.000E+01  2.000E+04 -1.365E+00
   1    9   28     2     3    1.0217E+05 -3.1376E+04   1.3355E+05  0.000E+00  0.000E+00  0.000E+00  3.98188E+01  1.938E-01  2.000E+01  2.000E+04 -1.569E+00
   1    9   27     2     4    1.3355E+05 -4.4636E+04   1.7818E+05  0.000E+00  0.000E+00  0.000E+00  3.96042E+01  2.292E-01  2.000E+01  2.000E+04 -2.232E+00
   1   10   26     2     5    1.7818E+05 -3.1052E+04   2.0923E+05  0.000E+00  0.000E+00  0.000E+00  3.93861E+01  2.611E-01  2.000E+01  2.000E+04 -1.553E+00
   1   11   25     2     6    2.0923E+05 -2.3046E+04   2.3228E+05  0.000E+00  0.000E+00  0.000E+00  3.91574E+01  2.824E-01  2.000E+01  2.000E+04 -1.152E+00
   1   12   24     2     7    2.3228E+05 -1.6905E+04   2.4918E+05  0.000E+00  0.000E+00  0.000E+00  3.89225E+01  2.975E-01  2.000E+01  2.000E+04 -8.452E-01
   1   13   23     2     8    2.4918E+05 -1.2069E+04   2.6125E+05  0.000E+00  0.000E+00  0.000E+00  3.86831E+01  3.081E-01  2.000E+01  2.000E+04 -6.034E-01
   1   14   22     2     9    2.6125E+05 -7.0318E+03   2.6828E+05  0.000E+00  0.000E+00  0.000E+00  3.84400E+01  3.150E-01  2.000E+01  2.000E+04 -3.516E-01
   1   14   22     3     1    1.0341E+06 -1.4927E+04   1.0490E+06  0.000E+00  0.000E+00  0.000E+00  3.80452E+01  4.897E-01  2.000E+01  2.000E+04 -7.463E-01
   1   15   23     3     2    1.0490E+06 -2.2650E+04   1.0717E+06  0.000E+00  0.000E+00  0.000E+00  3.71616E+01  4.950E-01  2.000E+01  2.000E+04 -1.133E+00
   1   15   24     3     3    1.0717E+06 -1.8944E+04   1.0906E+06  0.000E+00  0.000E+00  0.000E+00  3.62785E+01  5.008E-01  2.000E+01  2.000E+04 -9.472E-01
   1   15   25     3     4    1.0906E+06 -1.8671E+04   1.1093E+06  0.000E+00  0.000E+00  0.000E+00  3.53949E+01  5.060E-01  2.000E+01  2.000E+04 -9.335E-01
   1   15   26     3     5    1.1093E+06 -2.1503E+04   1.1308E+06  0.000E+00  0.000E+00  0.000E+00  3.45115E+01  5.115E-01  2.000E+01  2.000E+04 -1.075E+00
   1   16   27     3     6    1.1308E+06 -2.8486E+04   1.1593E+06  0.000E+00  0.000E+00  0.000E+00  3.36294E+01  5.183E-01  2.000E+01  2.000E+04 -1.424E+00
   1   17   28     3     7    1.1593E+06 -3.5515E+04   1.1948E+06  0.000E+00  0.000E+00  0.000E+00  3.27492E+01  5.270E-01  2.000E+01  2.000E+04 -1.776E+00
   1   18   29     3     8    1.1948E+06 -4.6536E+04   1.2413E+06  0.000E+00  0.000E+00  0.000E+00  3.18712E+01  5.379E-01  2.000E+01  2.000E+04 -2.327E+00
   1   18   30     3     9    1.2413E+06 -4.3223E+04   1.2845E+06  0.000E+00  0.000E+00  0.000E+00  3.09941E+01  5.497E-01  2.000E+01  2.000E+04 -2.161E+00



1
              HEAD IN LAYER   1 AT END OF TIME STEP   1 IN STRESS PERIOD    9
  ---------------------------------------------------------------------------

          1      2      3      4      5      6      7      8      9     10
         11     12     13     14     15     16     17     18     19     20
         21     22     23     24     25     26     27     28     29     30
 .........................................................................
   1  ****** ****** ****** ****** ****** ****** ****** ****** ****** ******
      ****** ****** ****** ****** ****** ****** ****** ****** ****** ******
      ****** ****** ****** ****** ****** ****** ****** ****** ****** ******
   2  ****** ****** ****** ****** ****** ****** ****** ****** ****** ******
      ****** ****** ****** ****** ****** ****** ****** ****** ****** ******
      ****** ****** ****** ****** ****** ****** ****** ****** ****** ******
   3  ****** ****** ****** ****** ****** ****** ****** ****** ****** ******
      ****** ****** ****** ****** ****** ****** ****** ****** ****** ******
      ****** ****** ****** ****** ****** ****** ****** ****** ****** ******
   4  ****** ****** ****** ****** ****** ****** ****** ****** ****** ******
      ****** ****** ****** ****** ****** ****** ****** ****** ****** ******
      ****** ****** ****** ****** ****** ****** ****** ****** ****** ******
   5  ****** ****** ****** ****** ****** ****** ****** ****** ****** ******
      ****** ****** ****** ****** ****** ****** ****** ****** ****** ******
      ****** ****** ****** ****** ****** ****** ****** ****** ****** ******
   6  ****** ****** ****** ****** ****** ****** ****** ****** ****** ******
      ****** ****** ****** ****** ****** ****** ****** ****** ****** ******
      ****** ****** ****** ****** ****** ****** ****** ****** ****** ******
   7  ****** ****** ****** ****** ****** ****** ****** ****** ****** ******
      ****** ****** ****** ****** ****** ****** ****** ****** ****** ******
      ****** ****** ****** ****** ****** ****** ****** ****** ****** ******
   8  ****** ****** ****** ****** ****** ****** ****** ****** ****** ******
      ****** ****** ****** ****** ****** ****** ****** ****** ****** ******
      ****** ****** ****** ****** ****** ****** ****** ****** ****** ******
   9  ****** ****** ****** ****** ****** ****** ****** ****** ****** ******
      ****** ****** ****** ****** ****** ****** ****** ****** ****** ******
      ****** ****** ****** ****** ****** ****** ****** ****** ****** ******
  10  ****** ****** ****** ****** ****** ****** ****** ****** ****** ******
      ****** ****** ****** ****** ****** ****** ****** ****** ****** ******
      ****** ****** ****** ****** ****** ****** ****** ****** ****** ******
  11  ****** ****** ****** ****** ****** ****** ****** ****** ****** ******
      ****** ****** ****** ****** ****** ****** ****** ****** ****** ******
      ****** ****** ****** ****** ****** ****** ****** ****** ****** ******
  12  ****** ****** ****** ****** ****** ****** ****** ****** ****** ******
      ****** ****** ****** ****** ****** ****** ****** ****** ****** ******
      ****** ****** ****** ****** ****** ****** ****** ****** ****** ******
  13  ****** ****** ****** ****** ****** ****** ****** ****** ****** ******
      ****** ****** ****** ****** ****** ****** ****** ****** ****** ******
      ****** ****** ****** ****** ****** ****** ****** ****** ****** ******
  14  ****** ****** ****** ****** ****** ****** ****** ****** ****** ******
      ****** ****** ****** ****** ****** ****** ****** ****** ****** ******
      ****** ****** ****** ****** ****** ****** ****** ****** ****** ******
  15  ****** ****** ****** ****** ****** ****** ****** ****** ****** ******
      ****** ****** ****** ****** ****** ****** ****** ****** ****** ******
      ****** ****** ****** ****** ****** ****** ****** ****** ****** ******
  16  ****** ****** ****** ****** ****** ****** ****** ****** ****** ******
      ****** ****** ****** ****** ****** ****** ****** ****** ****** ******
      ****** ****** ****** ****** ****** ****** ****** ****** ****** ******
  17  ****** ****** ****** ****** ****** ****** ****** ****** ****** ******
      ****** ****** ****** ****** ****** ****** ****** ****** ****** ******
      ****** ****** ****** ****** ****** ****** ****** ****** ****** ******
  18  ****** ****** ****** ****** ****** ****** ****** ****** ****** ******
      ****** ****** ****** ****** ****** ****** ****** ****** ****** ******
      ****** ****** ****** ****** ****** ****** ****** ****** ****** ******
  19  ****** ****** ****** ****** ****** ****** ****** ****** ****** ******
      ****** ****** ****** ****** ****** ****** ****** ****** ****** ******
      ****** ****** ****** ****** ****** ****** ****** ****** ****** ******
  20  ****** ****** ****** ****** ****** ****** ****** ****** ****** ******
      ****** ****** ****** ****** ****** ****** ****** ****** ****** ******
      ****** ****** ****** ****** ****** ****** ****** ****** ****** ******
  21  ****** ****** ****** ****** ****** ****** ****** ****** ****** ******
      ****** ****** ****** ****** ****** ****** ****** ****** ****** ******
      ****** ****** ****** ****** ****** ****** ****** ****** ****** ******
  22  ****** ****** ****** ****** ****** ****** ****** ****** ****** ******
      ****** ****** ****** ****** ****** ****** ****** ****** ****** ******
      ****** ****** ****** ****** ****** ****** ****** ****** ****** ******
  23  ****** ****** ****** ****** ****** ****** ****** ****** ****** ******
      ****** ****** ****** ****** ****** ****** ****** ****** ****** ******
      ****** ****** ****** ****** ****** ****** ****** ****** ****** ******
  24  ****** ****** ****** ****** ****** ****** ****** ****** ****** ******
      ****** ****** ****** ****** ****** ****** ****** ****** ****** ******
      ****** ****** ****** ****** ****** ****** ****** ****** ****** ******
  25  ****** ****** ****** ****** ****** ****** ****** ****** ****** ******
      ****** ****** ****** ****** ****** ****** ****** ****** ****** ******
      ****** ****** ****** ****** ****** ****** ****** ****** ****** ******

 HEAD WILL BE SAVED ON UNIT   51 AT END OF TIME STEP    1, STRESS PERIOD    9
1
  VOLUMETRIC BUDGET FOR ENTIRE MODEL AT END OF TIME STEP    1, STRESS PERIOD   9
  ------------------------------------------------------------------------------

     CUMULATIVE VOLUMES      L**3       RATES FOR THIS TIME STEP      L**3/T
     ------------------                 ------------------------

           IN:                                      IN:
           ---                                      ---
             STORAGE =    20935041.4174               STORAGE =        1721.5415
       CONSTANT HEAD =  1004785301.5902         CONSTANT HEAD =     1254011.5462
               WELLS =           0.0000                 WELLS =           0.0000
            RECHARGE =    18878400.0000              RECHARGE =       13800.0000
      STREAM LEAKAGE =           0.0000        STREAM LEAKAGE =           0.0000

            TOTAL IN =  1044598743.0076              TOTAL IN =     1269533.0877

          OUT:                                     OUT:
          ----                                     ----
             STORAGE =      657330.0571               STORAGE =           0.0000
       CONSTANT HEAD =           0.0000         CONSTANT HEAD =           0.0000
               WELLS =    90950229.0000                 WELLS =      135000.5000
            RECHARGE =           0.0000              RECHARGE =           0.0000
      STREAM LEAKAGE =   952991193.7683        STREAM LEAKAGE =     1134532.6057

           TOTAL OUT =  1044598752.8254             TOTAL OUT =     1269533.1057

            IN - OUT =          -9.8178              IN - OUT =      -1.8008E-02

 PERCENT DISCREPANCY =          -0.00     PERCENT DISCREPANCY =          -0.00






         TIME SUMMARY AT END OF TIME STEP    1 IN STRESS PERIOD    9
                    SECONDS     MINUTES      HOURS       DAYS        YEARS
                    -----------------------------------------------------------
   TIME STEP LENGTH 7.94880E+06 1.32480E+05  2208.0      92.000     0.25188    
 STRESS PERIOD TIME 7.94880E+06 1.32480E+05  2208.0      92.000     0.25188    
         TOTAL TIME 7.10208E+07 1.18368E+06  19728.      822.00      2.2505    
1
1
                            STRESS PERIOD NO.   10, LENGTH =   91.00000    
                            -----------------------------------------------

                              NUMBER OF TIME STEPS =     1

                               MULTIPLIER FOR DELT =     1.500

                            INITIAL TIME STEP SIZE =   91.00000    

 WELL NO.  LAYER   ROW   COL   STRESS RATE         
 --------------------------------------------------
      1      1     22     22     -0.3000E+05
      2      1      2     29       0.000    
      3      1      5     21     -0.5500E+05

      3 WELLS

                 RECHARGE =  2.000000E-03

 REUSING STREAM SEGMENT DATA FROM LAST STRESS PERIOD
 
 SOLVING FOR HEAD 


     6 CALLS TO PCG ROUTINE FOR TIME STEP   1 IN STRESS PERIOD   10
    22 TOTAL ITERATIONS

 OUTPUT CONTROL FOR STRESS PERIOD   10   TIME STEP    1
    SAVE BUDGET
    SAVE HEAD FOR ALL LAYERS
    PRINT HEAD FOR ALL LAYERS
 UBDSV2 SAVING "STREAMFLOW OUT  " ON UNIT  50 AT TIME STEP  1, STRESS PERIOD  10



 STREAM LISTING     PERIOD     10   STEP        1

 LAYER ROW COL. STREAM  RCH.  FLOW INTO     FLOW TO   FLOW OUT OF   OVRLND.     DIRECT     STREAM       STREAM     STREAM     STREAM   STREAMBED  STREAMBED
                SEG.NO.  NO.  STRM. RCH.    AQUIFER    STRM. RCH.    RUNOFF     PRECIP       ET          HEAD       DEPTH      WIDTH   CONDCTNC.   GRADIENT

   1   13    1     1     1    1.0000E+05 -2.8289E+04   1.2829E+05  0.000E+00  0.000E+00  0.000E+00  4.84180E+01  1.566E-01  2.000E+01  2.000E+04 -1.414E+00
   1   13    2     1     2    1.2829E+05 -3.8108E+04   1.6640E+05  0.000E+00  0.000E+00  0.000E+00  4.79666E+01  1.825E-01  2.000E+01  2.000E+04 -1.905E+00
   1   14    3     1     3    1.6640E+05 -3.3584E+04   1.9998E+05  0.000E+00  0.000E+00  0.000E+00  4.75148E+01  2.080E-01  2.000E+01  2.000E+04 -1.679E+00
   1   15    4     1     4    1.9998E+05 -3.2807E+04   2.3279E+05  0.000E+00  0.000E+00  0.000E+00  4.70594E+01  2.299E-01  2.000E+01  2.000E+04 -1.640E+00
   1   16    5     1     5    2.3279E+05 -3.4289E+04   2.6708E+05  0.000E+00  0.000E+00  0.000E+00  4.66029E+01  2.506E-01  2.000E+01  2.000E+04 -1.714E+00
   1   16    6     1     6    2.6708E+05 -2.9945E+04   2.9702E+05  0.000E+00  0.000E+00  0.000E+00  4.61445E+01  2.695E-01  2.000E+01  2.000E+04 -1.497E+00
   1   16    7     1     7    2.9702E+05 -2.9755E+04   3.2678E+05  0.000E+00  0.000E+00  0.000E+00  4.56840E+01  2.862E-01  2.000E+01  2.000E+04 -1.488E+00
   1   16    8     1     8    3.2678E+05 -2.9930E+04   3.5671E+05  0.000E+00  0.000E+00  0.000E+00  4.52228E+01  3.024E-01  2.000E+01  2.000E+04 -1.496E+00
   1   16    9     1     9    3.5671E+05 -2.9999E+04   3.8671E+05  0.000E+00  0.000E+00  0.000E+00  4.47612E+01  3.180E-01  2.000E+01  2.000E+04 -1.500E+00
   1   16   10     1    10    3.8671E+05 -3.0012E+04   4.1672E+05  0.000E+00  0.000E+00  0.000E+00  4.42991E+01  3.332E-01  2.000E+01  2.000E+04 -1.501E+00
   1   16   11     1    11    4.1672E+05 -3.0597E+04   4.4731E+05  0.000E+00  0.000E+00  0.000E+00  4.38367E+01  3.480E-01  2.000E+01  2.000E+04 -1.530E+00
   1   16   12     1    12    4.4731E+05 -3.6109E+04   4.8342E+05  0.000E+00  0.000E+00  0.000E+00  4.33753E+01  3.639E-01  2.000E+01  2.000E+04 -1.805E+00
   1   15   13     1    13    4.8342E+05 -3.4800E+04   5.1822E+05  0.000E+00  0.000E+00  0.000E+00  4.29144E+01  3.803E-01  2.000E+01  2.000E+04 -1.740E+00
   1   14   14     1    14    5.1822E+05 -3.5278E+04   5.5350E+05  0.000E+00  0.000E+00  0.000E+00  4.24529E+01  3.961E-01  2.000E+01  2.000E+04 -1.764E+00
   1   13   15     1    15    5.5350E+05 -3.7290E+04   5.9079E+05  0.000E+00  0.000E+00  0.000E+00  4.19915E+01  4.119E-01  2.000E+01  2.000E+04 -1.865E+00
   1   12   16     1    16    5.9079E+05 -4.2866E+04   6.3366E+05  0.000E+00  0.000E+00  0.000E+00  4.15313E+01  4.290E-01  2.000E+01  2.000E+04 -2.143E+00
   1   12   17     1    17    6.3366E+05 -3.3265E+04   6.6692E+05  0.000E+00  0.000E+00  0.000E+00  4.10698E+01  4.448E-01  2.000E+01  2.000E+04 -1.663E+00
   1   12   18     1    18    6.6692E+05 -3.1407E+04   6.9833E+05  0.000E+00  0.000E+00  0.000E+00  4.06057E+01  4.580E-01  2.000E+01  2.000E+04 -1.570E+00
   1   12   19     1    19    6.9833E+05 -3.5016E+04   7.3334E+05  0.000E+00  0.000E+00  0.000E+00  4.01417E+01  4.712E-01  2.000E+01  2.000E+04 -1.751E+00
   1   13   20     1    20    7.3334E+05 -2.5884E+04   7.5923E+05  0.000E+00  0.000E+00  0.000E+00  3.96763E+01  4.831E-01  2.000E+01  2.000E+04 -1.294E+00
   1   14   21     1    21    7.5923E+05 -1.9134E+04   7.7836E+05  0.000E+00  0.000E+00  0.000E+00  3.92077E+01  4.918E-01  2.000E+01  2.000E+04 -9.567E-01
   1   14   22     1    22    7.7836E+05 -1.4635E+03   7.7983E+05  0.000E+00  0.000E+00  0.000E+00  3.87344E+01  4.958E-01  2.000E+01  2.000E+04 -7.318E-02
   1    9   30     2     1    5.0000E+04 -2.6284E+04   7.6284E+04  0.000E+00  0.000E+00  0.000E+00  4.02583E+01  1.333E-01  2.000E+01  2.000E+04 -1.314E+00
   1    9   29     2     2    7.6284E+04 -2.8652E+04   1.0494E+05  0.000E+00  0.000E+00  0.000E+00  4.00405E+01  1.655E-01  2.000E+01  2.000E+04 -1.433E+00
   1    9   28     2     3    1.0494E+05 -3.2680E+04   1.3762E+05  0.000E+00  0.000E+00  0.000E+00  3.98222E+01  1.972E-01  2.000E+01  2.000E+04 -1.634E+00
   1    9   27     2     4    1.3762E+05 -4.6058E+04   1.8367E+05  0.000E+00  0.000E+00  0.000E+00  3.96084E+01  2.334E-01  2.000E+01  2.000E+04 -2.303E+00
   1   10   26     2     5    1.8367E+05 -3.2062E+04   2.1574E+05  0.000E+00  0.000E+00  0.000E+00  3.93910E+01  2.660E-01  2.000E+01  2.000E+04 -1.603E+00
   1   11   25     2     6    2.1574E+05 -2.3839E+04   2.3957E+05  0.000E+00  0.000E+00  0.000E+00  3.91627E+01  2.877E-01  2.000E+01  2.000E+04 -1.192E+00
   1   12   24     2     7    2.3957E+05 -1.7531E+04   2.5711E+05  0.000E+00  0.000E+00  0.000E+00  3.89281E+01  3.031E-01  2.000E+01  2.000E+04 -8.765E-01
   1   13   23     2     8    2.5711E+05 -1.2532E+04   2.6964E+05  0.000E+00  0.000E+00  0.000E+00  3.86890E+01  3.140E-01  2.000E+01  2.000E+04 -6.266E-01
   1   14   22     2     9    2.6964E+05 -7.2315E+03   2.7687E+05  0.000E+00  0.000E+00  0.000E+00  3.84460E+01  3.210E-01  2.000E+01  2.000E+04 -3.616E-01
   1   14   22     3     1    1.0567E+06 -1.5119E+04   1.0718E+06  0.000E+00  0.000E+00  0.000E+00  3.80516E+01  4.961E-01  2.000E+01  2.000E+04 -7.560E-01
   1   15   23     3     2    1.0718E+06 -2.3120E+04   1.0949E+06  0.000E+00  0.000E+00  0.000E+00  3.71680E+01  5.014E-01  2.000E+01  2.000E+04 -1.156E+00
   1   15   24     3     3    1.0949E+06 -1.9338E+04   1.1143E+06  0.000E+00  0.000E+00  0.000E+00  3.62850E+01  5.073E-01  2.000E+01  2.000E+04 -9.669E-01
   1   15   25     3     4    1.1143E+06 -1.9068E+04   1.1333E+06  0.000E+00  0.000E+00  0.000E+00  3.54014E+01  5.125E-01  2.000E+01  2.000E+04 -9.534E-01
   1   15   26     3     5    1.1333E+06 -2.1974E+04   1.1553E+06  0.000E+00  0.000E+00  0.000E+00  3.45181E+01  5.181E-01  2.000E+01  2.000E+04 -1.099E+00
   1   16   27     3     6    1.1553E+06 -2.9042E+04   1.1844E+06  0.000E+00  0.000E+00  0.000E+00  3.36361E+01  5.250E-01  2.000E+01  2.000E+04 -1.452E+00
   1   17   28     3     7    1.1844E+06 -3.6076E+04   1.2204E+06  0.000E+00  0.000E+00  0.000E+00  3.27560E+01  5.337E-01  2.000E+01  2.000E+04 -1.804E+00
   1   18   29     3     8    1.2204E+06 -4.7055E+04   1.2675E+06  0.000E+00  0.000E+00  0.000E+00  3.18781E+01  5.447E-01  2.000E+01  2.000E+04 -2.353E+00
   1   18   30     3     9    1.2675E+06 -4.3659E+04   1.3111E+06  0.000E+00  0.000E+00  0.000E+00  3.10010E+01  5.566E-01  2.000E+01  2.000E+04 -2.183E+00



1
              HEAD IN LAYER   1 AT END OF TIME STEP   1 IN STRESS PERIOD   10
  ---------------------------------------------------------------------------

          1      2      3      4      5      6      7      8      9     10
         11     12     13     14     15     16     17     18     19     20
         21     22     23     24     25     26     27     28     29     30
 .........................................................................
   1  ****** ****** ****** ****** ****** ****** ****** ****** ****** ******
      ****** ****** ****** ****** ****** ****** ****** ****** ****** ******
      ****** ****** ****** ****** ****** ****** ****** ****** ****** ******
   2  ****** ****** ****** ****** ****** ****** ****** ****** ****** ******
      ****** ****** ****** ****** ****** ****** ****** ****** ****** ******
      ****** ****** ****** ****** ****** ****** ****** ****** ****** ******
   3  ****** ****** ****** ****** ****** ****** ****** ****** ****** ******
      ****** ****** ****** ****** ****** ****** ****** ****** ****** ******
      ****** ****** ****** ****** ****** ****** ****** ****** ****** ******
   4  ****** ****** ****** ****** ****** ****** ****** ****** ****** ******
      ****** ****** ****** ****** ****** ****** ****** ****** ****** ******
      ****** ****** ****** ****** ****** ****** ****** ****** ****** ******
   5  ****** ****** ****** ****** ****** ****** ****** ****** ****** ******
      ****** ****** ****** ****** ****** ****** ****** ****** ****** ******
      ****** ****** ****** ****** ****** ****** ****** ****** ****** ******
   6  ****** ****** ****** ****** ****** ****** ****** ****** ****** ******
      ****** ****** ****** ****** ****** ****** ****** ****** ****** ******
      ****** ****** ****** ****** ****** ****** ****** ****** ****** ******
   7  ****** ****** ****** ****** ****** ****** ****** ****** ****** ******
      ****** ****** ****** ****** ****** ****** ****** ****** ****** ******
      ****** ****** ****** ****** ****** ****** ****** ****** ****** ******
   8  ****** ****** ****** ****** ****** ****** ****** ****** ****** ******
      ****** ****** ****** ****** ****** ****** ****** ****** ****** ******
      ****** ****** ****** ****** ****** ****** ****** ****** ****** ******
   9  ****** ****** ****** ****** ****** ****** ****** ****** ****** ******
      ****** ****** ****** ****** ****** ****** ****** ****** ****** ******
      ****** ****** ****** ****** ****** ****** ****** ****** ****** ******
  10  ****** ****** ****** ****** ****** ****** ****** ****** ****** ******
      ****** ****** ****** ****** ****** ****** ****** ****** ****** ******
      ****** ****** ****** ****** ****** ****** ****** ****** ****** ******
  11  ****** ****** ****** ****** ****** ****** ****** ****** ****** ******
      ****** ****** ****** ****** ****** ****** ****** ****** ****** ******
      ****** ****** ****** ****** ****** ****** ****** ****** ****** ******
  12  ****** ****** ****** ****** ****** ****** ****** ****** ****** ******
      ****** ****** ****** ****** ****** ****** ****** ****** ****** ******
      ****** ****** ****** ****** ****** ****** ****** ****** ****** ******
  13  ****** ****** ****** ****** ****** ****** ****** ****** ****** ******
      ****** ****** ****** ****** ****** ****** ****** ****** ****** ******
      ****** ****** ****** ****** ****** ****** ****** ****** ****** ******
  14  ****** ****** ****** ****** ****** ****** ****** ****** ****** ******
      ****** ****** ****** ****** ****** ****** ****** ****** ****** ******
      ****** ****** ****** ****** ****** ****** ****** ****** ****** ******
  15  ****** ****** ****** ****** ****** ****** ****** ****** ****** ******
      ****** ****** ****** ****** ****** ****** ****** ****** ****** ******
      ****** ****** ****** ****** ****** ****** ****** ****** ****** ******
  16  ****** ****** ****** ****** ****** ****** ****** ****** ****** ******
      ****** ****** ****** ****** ****** ****** ****** ****** ****** ******
      ****** ****** ****** ****** ****** ****** ****** ****** ****** ******
  17  ****** ****** ****** ****** ****** ****** ****** ****** ****** ******
      ****** ****** ****** ****** ****** ****** ****** ****** ****** ******
      ****** ****** ****** ****** ****** ****** ****** ****** ****** ******
  18  ****** ****** ****** ****** ****** ****** ****** ****** ****** ******
      ****** ****** ****** ****** ****** ****** ****** ****** ****** ******
      ****** ****** ****** ****** ****** ****** ****** ****** ****** ******
  19  ****** ****** ****** ****** ****** ****** ****** ****** ****** ******
      ****** ****** ****** ****** ****** ****** ****** ****** ****** ******
      ****** ****** ****** ****** ****** ****** ****** ****** ****** ******
  20  ****** ****** ****** ****** ****** ****** ****** ****** ****** ******
      ****** ****** ****** ****** ****** ****** ****** ****** ****** ******
      ****** ****** ****** ****** ****** ****** ****** ****** ****** ******
  21  ****** ****** ****** ****** ****** ****** ****** ****** ****** ******
      ****** ****** ****** ****** ****** ****** ****** ****** ****** ******
      ****** ****** ****** ****** ****** ****** ****** ****** ****** ******
  22  ****** ****** ****** ****** ****** ****** ****** ****** ****** ******
      ****** ****** ****** ****** ****** ****** ****** ****** ****** ******
      ****** ****** ****** ****** ****** ****** ****** ****** ****** ******
  23  ****** ****** ****** ****** ****** ****** ****** ****** ****** ******
      ****** ****** ****** ****** ****** ****** ****** ****** ****** ******
      ****** ****** ****** ****** ****** ****** ****** ****** ****** ******
  24  ****** ****** ****** ****** ****** ****** ****** ****** ****** ******
      ****** ****** ****** ****** ****** ****** ****** ****** ****** ******
      ****** ****** ****** ****** ****** ****** ****** ****** ****** ******
  25  ****** ****** ****** ****** ****** ****** ****** ****** ****** ******
      ****** ****** ****** ****** ****** ****** ****** ****** ****** ******
      ****** ****** ****** ****** ****** ****** ****** ****** ****** ******

 HEAD WILL BE SAVED ON UNIT   51 AT END OF TIME STEP    1, STRESS PERIOD   10
1
  VOLUMETRIC BUDGET FOR ENTIRE MODEL AT END OF TIME STEP    1, STRESS PERIOD  10
  ------------------------------------------------------------------------------

     CUMULATIVE VOLUMES      L**3       RATES FOR THIS TIME STEP      L**3/T
     ------------------                 ------------------------

           IN:                                      IN:
           ---                                      ---
             STORAGE =    20935041.4174               STORAGE =           0.0000
       CONSTANT HEAD =  1113413576.4481         CONSTANT HEAD =     1193717.3061
               WELLS =           0.0000                 WELLS =           0.0000
            RECHARGE =    23901600.0000              RECHARGE =       55200.0000
      STREAM LEAKAGE =           0.0000        STREAM LEAKAGE =           0.0000

            TOTAL IN =  1158250217.8655              TOTAL IN =     1248917.3061

          OUT:                                     OUT:
          ----                                     ----
             STORAGE =      909407.1450               STORAGE =        2770.0779
       CONSTANT HEAD =           0.0000         CONSTANT HEAD =           0.0000
               WELLS =    98685274.5000                 WELLS =       85000.5000
            RECHARGE =           0.0000              RECHARGE =           0.0000
      STREAM LEAKAGE =  1058655542.5319        STREAM LEAKAGE =     1161146.6897

           TOTAL OUT =  1158250224.1770             TOTAL OUT =     1248917.2676

            IN - OUT =          -6.3115              IN - OUT =       3.8531E-02

 PERCENT DISCREPANCY =          -0.00     PERCENT DISCREPANCY =           0.00






         TIME SUMMARY AT END OF TIME STEP    1 IN STRESS PERIOD   10
                    SECONDS     MINUTES      HOURS       DAYS        YEARS
                    -----------------------------------------------------------
   TIME STEP LENGTH 7.86240E+06 1.31040E+05  2184.0      91.000     0.24914    
 STRESS PERIOD TIME 7.86240E+06 1.31040E+05  2184.0      91.000     0.24914    
         TOTAL TIME 7.88832E+07 1.31472E+06  21912.      913.00      2.4997    
1
1
                            STRESS PERIOD NO.   11, LENGTH =   91.00000    
                            -----------------------------------------------

                              NUMBER OF TIME STEPS =     1

                               MULTIPLIER FOR DELT =     1.500

                            INITIAL TIME STEP SIZE =   91.00000    

 WELL NO.  LAYER   ROW   COL   STRESS RATE         
 --------------------------------------------------
      1      1     22     22     -0.3000E+05
      2      1      2     29     -0.5000E+05
      3      1      5     21     -0.5000E+05

      3 WELLS

                 RECHARGE =   0.00000    

 REUSING STREAM SEGMENT DATA FROM LAST STRESS PERIOD
 
 SOLVING FOR HEAD 


     6 CALLS TO PCG ROUTINE FOR TIME STEP   1 IN STRESS PERIOD   11
    23 TOTAL ITERATIONS

 OUTPUT CONTROL FOR STRESS PERIOD   11   TIME STEP    1
    SAVE BUDGET
    SAVE HEAD FOR ALL LAYERS
    PRINT HEAD FOR ALL LAYERS
 UBDSV2 SAVING "STREAMFLOW OUT  " ON UNIT  50 AT TIME STEP  1, STRESS PERIOD  11



 STREAM LISTING     PERIOD     11   STEP        1

 LAYER ROW COL. STREAM  RCH.  FLOW INTO     FLOW TO   FLOW OUT OF   OVRLND.     DIRECT     STREAM       STREAM     STREAM     STREAM   STREAMBED  STREAMBED
                SEG.NO.  NO.  STRM. RCH.    AQUIFER    STRM. RCH.    RUNOFF     PRECIP       ET          HEAD       DEPTH      WIDTH   CONDCTNC.   GRADIENT

   1   13    1     1     1    1.0000E+05 -2.7446E+04   1.2745E+05  0.000E+00  0.000E+00  0.000E+00  4.84176E+01  1.563E-01  2.000E+01  2.000E+04 -1.372E+00
   1   13    2     1     2    1.2745E+05 -3.7104E+04   1.6455E+05  0.000E+00  0.000E+00  0.000E+00  4.79656E+01  1.815E-01  2.000E+01  2.000E+04 -1.855E+00
   1   14    3     1     3    1.6455E+05 -3.2598E+04   1.9715E+05  0.000E+00  0.000E+00  0.000E+00  4.75132E+01  2.064E-01  2.000E+01  2.000E+04 -1.630E+00
   1   15    4     1     4    1.9715E+05 -3.1857E+04   2.2900E+05  0.000E+00  0.000E+00  0.000E+00  4.70573E+01  2.277E-01  2.000E+01  2.000E+04 -1.593E+00
   1   16    5     1     5    2.2900E+05 -3.3429E+04   2.6243E+05  0.000E+00  0.000E+00  0.000E+00  4.66004E+01  2.481E-01  2.000E+01  2.000E+04 -1.671E+00
   1   16    6     1     6    2.6243E+05 -2.9199E+04   2.9163E+05  0.000E+00  0.000E+00  0.000E+00  4.61416E+01  2.666E-01  2.000E+01  2.000E+04 -1.460E+00
   1   16    7     1     7    2.9163E+05 -2.9016E+04   3.2065E+05  0.000E+00  0.000E+00  0.000E+00  4.56808E+01  2.831E-01  2.000E+01  2.000E+04 -1.451E+00
   1   16    8     1     8    3.2065E+05 -2.9190E+04   3.4984E+05  0.000E+00  0.000E+00  0.000E+00  4.52194E+01  2.989E-01  2.000E+01  2.000E+04 -1.460E+00
   1   16    9     1     9    3.4984E+05 -2.9261E+04   3.7910E+05  0.000E+00  0.000E+00  0.000E+00  4.47575E+01  3.143E-01  2.000E+01  2.000E+04 -1.463E+00
   1   16   10     1    10    3.7910E+05 -2.9275E+04   4.0838E+05  0.000E+00  0.000E+00  0.000E+00  4.42951E+01  3.292E-01  2.000E+01  2.000E+04 -1.464E+00
   1   16   11     1    11    4.0838E+05 -2.9851E+04   4.3823E+05  0.000E+00  0.000E+00  0.000E+00  4.38324E+01  3.438E-01  2.000E+01  2.000E+04 -1.493E+00
   1   16   12     1    12    4.3823E+05 -3.5238E+04   4.7346E+05  0.000E+00  0.000E+00  0.000E+00  4.33708E+01  3.594E-01  2.000E+01  2.000E+04 -1.762E+00
   1   15   13     1    13    4.7346E+05 -3.3845E+04   5.0731E+05  0.000E+00  0.000E+00  0.000E+00  4.29096E+01  3.755E-01  2.000E+01  2.000E+04 -1.692E+00
   1   14   14     1    14    5.0731E+05 -3.4300E+04   5.4161E+05  0.000E+00  0.000E+00  0.000E+00  4.24478E+01  3.910E-01  2.000E+01  2.000E+04 -1.715E+00
   1   13   15     1    15    5.4161E+05 -3.6334E+04   5.7794E+05  0.000E+00  0.000E+00  0.000E+00  4.19861E+01  4.066E-01  2.000E+01  2.000E+04 -1.817E+00
   1   12   16     1    16    5.7794E+05 -4.1972E+04   6.1991E+05  0.000E+00  0.000E+00  0.000E+00  4.15257E+01  4.234E-01  2.000E+01  2.000E+04 -2.099E+00
   1   12   17     1    17    6.1991E+05 -3.2552E+04   6.5247E+05  0.000E+00  0.000E+00  0.000E+00  4.10640E+01  4.390E-01  2.000E+01  2.000E+04 -1.628E+00
   1   12   18     1    18    6.5247E+05 -3.0733E+04   6.8320E+05  0.000E+00  0.000E+00  0.000E+00  4.05997E+01  4.520E-01  2.000E+01  2.000E+04 -1.537E+00
   1   12   19     1    19    6.8320E+05 -3.4288E+04   7.1749E+05  0.000E+00  0.000E+00  0.000E+00  4.01355E+01  4.651E-01  2.000E+01  2.000E+04 -1.714E+00
   1   13   20     1    20    7.1749E+05 -2.5164E+04   7.4265E+05  0.000E+00  0.000E+00  0.000E+00  3.96700E+01  4.768E-01  2.000E+01  2.000E+04 -1.258E+00
   1   14   21     1    21    7.4265E+05 -1.8491E+04   7.6114E+05  0.000E+00  0.000E+00  0.000E+00  3.92012E+01  4.853E-01  2.000E+01  2.000E+04 -9.246E-01
   1   14   22     1    22    7.6114E+05 -1.2141E+03   7.6236E+05  0.000E+00  0.000E+00  0.000E+00  3.87278E+01  4.891E-01  2.000E+01  2.000E+04 -6.070E-02
   1    9   30     2     1    5.0000E+04 -2.4780E+04   7.4780E+04  0.000E+00  0.000E+00  0.000E+00  4.02573E+01  1.323E-01  2.000E+01  2.000E+04 -1.239E+00
   1    9   29     2     2    7.4780E+04 -2.7208E+04   1.0199E+05  0.000E+00  0.000E+00  0.000E+00  4.00381E+01  1.631E-01  2.000E+01  2.000E+04 -1.360E+00
   1    9   28     2     3    1.0199E+05 -3.1309E+04   1.3330E+05  0.000E+00  0.000E+00  0.000E+00  3.98186E+01  1.936E-01  2.000E+01  2.000E+04 -1.565E+00
   1    9   27     2     4    1.3330E+05 -4.4605E+04   1.7790E+05  0.000E+00  0.000E+00  0.000E+00  3.96040E+01  2.290E-01  2.000E+01  2.000E+04 -2.230E+00
   1   10   26     2     5    1.7790E+05 -3.1014E+04   2.0892E+05  0.000E+00  0.000E+00  0.000E+00  3.93859E+01  2.609E-01  2.000E+01  2.000E+04 -1.551E+00
   1   11   25     2     6    2.0892E+05 -2.3004E+04   2.3192E+05  0.000E+00  0.000E+00  0.000E+00  3.91572E+01  2.822E-01  2.000E+01  2.000E+04 -1.150E+00
   1   12   24     2     7    2.3192E+05 -1.6855E+04   2.4877E+05  0.000E+00  0.000E+00  0.000E+00  3.89222E+01  2.972E-01  2.000E+01  2.000E+04 -8.428E-01
   1   13   23     2     8    2.4877E+05 -1.2011E+04   2.6079E+05  0.000E+00  0.000E+00  0.000E+00  3.86828E+01  3.078E-01  2.000E+01  2.000E+04 -6.006E-01
   1   14   22     2     9    2.6079E+05 -6.9764E+03   2.6776E+05  0.000E+00  0.000E+00  0.000E+00  3.84396E+01  3.146E-01  2.000E+01  2.000E+04 -3.488E-01
   1   14   22     3     1    1.0301E+06 -1.4887E+04   1.0450E+06  0.000E+00  0.000E+00  0.000E+00  3.80441E+01  4.885E-01  2.000E+01  2.000E+04 -7.443E-01
   1   15   23     3     2    1.0450E+06 -2.2515E+04   1.0675E+06  0.000E+00  0.000E+00  0.000E+00  3.71605E+01  4.938E-01  2.000E+01  2.000E+04 -1.126E+00
   1   15   24     3     3    1.0675E+06 -1.8832E+04   1.0864E+06  0.000E+00  0.000E+00  0.000E+00  3.62774E+01  4.996E-01  2.000E+01  2.000E+04 -9.416E-01
   1   15   25     3     4    1.0864E+06 -1.8559E+04   1.1049E+06  0.000E+00  0.000E+00  0.000E+00  3.53937E+01  5.048E-01  2.000E+01  2.000E+04 -9.279E-01
   1   15   26     3     5    1.1049E+06 -2.1372E+04   1.1263E+06  0.000E+00  0.000E+00  0.000E+00  3.45103E+01  5.103E-01  2.000E+01  2.000E+04 -1.069E+00
   1   16   27     3     6    1.1263E+06 -2.8323E+04   1.1546E+06  0.000E+00  0.000E+00  0.000E+00  3.36282E+01  5.171E-01  2.000E+01  2.000E+04 -1.416E+00
   1   17   28     3     7    1.1546E+06 -3.5346E+04   1.1900E+06  0.000E+00  0.000E+00  0.000E+00  3.27479E+01  5.257E-01  2.000E+01  2.000E+04 -1.767E+00
   1   18   29     3     8    1.1900E+06 -4.6376E+04   1.2363E+06  0.000E+00  0.000E+00  0.000E+00  3.18699E+01  5.366E-01  2.000E+01  2.000E+04 -2.319E+00
   1   18   30     3     9    1.2363E+06 -4.3090E+04   1.2794E+06  0.000E+00  0.000E+00  0.000E+00  3.09928E+01  5.484E-01  2.000E+01  2.000E+04 -2.154E+00



1
              HEAD IN LAYER   1 AT END OF TIME STEP   1 IN STRESS PERIOD   11
  ---------------------------------------------------------------------------

          1      2      3      4      5      6      7      8      9     10
         11     12     13     14     15     16     17     18     19     20
         21     22     23     24     25     26     27     28     29     30
 .........................................................................
   1  ****** ****** ****** ****** ****** ****** ****** ****** ****** ******
      ****** ****** ****** ****** ****** ****** ****** ****** ****** ******
      ****** ****** ****** ****** ****** ****** ****** ****** ****** ******
   2  ****** ****** ****** ****** ****** ****** ****** ****** ****** ******
      ****** ****** ****** ****** ****** ****** ****** ****** ****** ******
      ****** ****** ****** ****** ****** ****** ****** ****** ****** ******
   3  ****** ****** ****** ****** ****** ****** ****** ****** ****** ******
      ****** ****** ****** ****** ****** ****** ****** ****** ****** ******
      ****** ****** ****** ****** ****** ****** ****** ****** ****** ******
   4  ****** ****** ****** ****** ****** ****** ****** ****** ****** ******
      ****** ****** ****** ****** ****** ****** ****** ****** ****** ******
      ****** ****** ****** ****** ****** ****** ****** ****** ****** ******
   5  ****** ****** ****** ****** ****** ****** ****** ****** ****** ******
      ****** ****** ****** ****** ****** ****** ****** ****** ****** ******
      ****** ****** ****** ****** ****** ****** ****** ****** ****** ******
   6  ****** ****** ****** ****** ****** ****** ****** ****** ****** ******
      ****** ****** ****** ****** ****** ****** ****** ****** ****** ******
      ****** ****** ****** ****** ****** ****** ****** ****** ****** ******
   7  ****** ****** ****** ****** ****** ****** ****** ****** ****** ******
      ****** ****** ****** ****** ****** ****** ****** ****** ****** ******
      ****** ****** ****** ****** ****** ****** ****** ****** ****** ******
   8  ****** ****** ****** ****** ****** ****** ****** ****** ****** ******
      ****** ****** ****** ****** ****** ****** ****** ****** ****** ******
      ****** ****** ****** ****** ****** ****** ****** ****** ****** ******
   9  ****** ****** ****** ****** ****** ****** ****** ****** ****** ******
      ****** ****** ****** ****** ****** ****** ****** ****** ****** ******
      ****** ****** ****** ****** ****** ****** ****** ****** ****** ******
  10  ****** ****** ****** ****** ****** ****** ****** ****** ****** ******
      ****** ****** ****** ****** ****** ****** ****** ****** ****** ******
      ****** ****** ****** ****** ****** ****** ****** ****** ****** ******
  11  ****** ****** ****** ****** ****** ****** ****** ****** ****** ******
      ****** ****** ****** ****** ****** ****** ****** ****** ****** ******
      ****** ****** ****** ****** ****** ****** ****** ****** ****** ******
  12  ****** ****** ****** ****** ****** ****** ****** ****** ****** ******
      ****** ****** ****** ****** ****** ****** ****** ****** ****** ******
      ****** ****** ****** ****** ****** ****** ****** ****** ****** ******
  13  ****** ****** ****** ****** ****** ****** ****** ****** ****** ******
      ****** ****** ****** ****** ****** ****** ****** ****** ****** ******
      ****** ****** ****** ****** ****** ****** ****** ****** ****** ******
  14  ****** ****** ****** ****** ****** ****** ****** ****** ****** ******
      ****** ****** ****** ****** ****** ****** ****** ****** ****** ******
      ****** ****** ****** ****** ****** ****** ****** ****** ****** ******
  15  ****** ****** ****** ****** ****** ****** ****** ****** ****** ******
      ****** ****** ****** ****** ****** ****** ****** ****** ****** ******
      ****** ****** ****** ****** ****** ****** ****** ****** ****** ******
  16  ****** ****** ****** ****** ****** ****** ****** ****** ****** ******
      ****** ****** ****** ****** ****** ****** ****** ****** ****** ******
      ****** ****** ****** ****** ****** ****** ****** ****** ****** ******
  17  ****** ****** ****** ****** ****** ****** ****** ****** ****** ******
      ****** ****** ****** ****** ****** ****** ****** ****** ****** ******
      ****** ****** ****** ****** ****** ****** ****** ****** ****** ******
  18  ****** ****** ****** ****** ****** ****** ****** ****** ****** ******
      ****** ****** ****** ****** ****** ****** ****** ****** ****** ******
      ****** ****** ****** ****** ****** ****** ****** ****** ****** ******
  19  ****** ****** ****** ****** ****** ****** ****** ****** ****** ******
      ****** ****** ****** ****** ****** ****** ****** ****** ****** ******
      ****** ****** ****** ****** ****** ****** ****** ****** ****** ******
  20  ****** ****** ****** ****** ****** ****** ****** ****** ****** ******
      ****** ****** ****** ****** ****** ****** ****** ****** ****** ******
      ****** ****** ****** ****** ****** ****** ****** ****** ****** ******
  21  ****** ****** ****** ****** ****** ****** ****** ****** ****** ******
      ****** ****** ****** ****** ****** ****** ****** ****** ****** ******
      ****** ****** ****** ****** ****** ****** ****** ****** ****** ******
  22  ****** ****** ****** ****** ****** ****** ****** ****** ****** ******
      ****** ****** ****** ****** ****** ****** ****** ****** ****** ******
      ****** ****** ****** ****** ****** ****** ****** ****** ****** ******
  23  ****** ****** ****** ****** ****** ****** ****** ****** ****** ******
      ****** ****** ****** ****** ****** ****** ****** ****** ****** ******
      ****** ****** ****** ****** ****** ****** ****** ****** ****** ******
  24  ****** ****** ****** ****** ****** ****** ****** ****** ****** ******
      ****** ****** ****** ****** ****** ****** ****** ****** ****** ******
      ****** ****** ****** ****** ****** ****** ****** ****** ****** ******
  25  ****** ****** ****** ****** ****** ****** ****** ****** ****** ******
      ****** ****** ****** ****** ****** ****** ****** ****** ****** ******
      ****** ****** ****** ****** ****** ****** ****** ****** ****** ******

 HEAD WILL BE SAVED ON UNIT   51 AT END OF TIME STEP    1, STRESS PERIOD   11
1
  VOLUMETRIC BUDGET FOR ENTIRE MODEL AT END OF TIME STEP    1, STRESS PERIOD  11
  ------------------------------------------------------------------------------

     CUMULATIVE VOLUMES      L**3       RATES FOR THIS TIME STEP      L**3/T
     ------------------                 ------------------------

           IN:                                      IN:
           ---                                      ---
             STORAGE =    21214394.9506               STORAGE =        3069.8190
       CONSTANT HEAD =  1227741846.2139         CONSTANT HEAD =     1256354.6128
               WELLS =           0.0000                 WELLS =           0.0000
            RECHARGE =    23901600.0000              RECHARGE =           0.0000
      STREAM LEAKAGE =           0.0000        STREAM LEAKAGE =           0.0000

            TOTAL IN =  1272857841.1644              TOTAL IN =     1259424.4319

          OUT:                                     OUT:
          ----                                     ----
             STORAGE =      909983.2127               STORAGE =           6.3304
       CONSTANT HEAD =           0.0000         CONSTANT HEAD =           0.0000
               WELLS =   110515274.5000                 WELLS =      130000.0000
            RECHARGE =           0.0000              RECHARGE =           0.0000
      STREAM LEAKAGE =  1161432593.1940        STREAM LEAKAGE =     1129418.1391

           TOTAL OUT =  1272857850.9068             TOTAL OUT =     1259424.4696

            IN - OUT =          -9.7424              IN - OUT =      -3.7702E-02

 PERCENT DISCREPANCY =          -0.00     PERCENT DISCREPANCY =          -0.00






         TIME SUMMARY AT END OF TIME STEP    1 IN STRESS PERIOD   11
                    SECONDS     MINUTES      HOURS       DAYS        YEARS
                    -----------------------------------------------------------
   TIME STEP LENGTH 7.86240E+06 1.31040E+05  2184.0      91.000     0.24914    
 STRESS PERIOD TIME 7.86240E+06 1.31040E+05  2184.0      91.000     0.24914    
         TOTAL TIME 8.67456E+07 1.44576E+06  24096.      1004.0      2.7488    
1
1
                            STRESS PERIOD NO.   12, LENGTH =   91.00000    
                            -----------------------------------------------

                              NUMBER OF TIME STEPS =     1

                               MULTIPLIER FOR DELT =     1.500

                            INITIAL TIME STEP SIZE =   91.00000    

 WELL NO.  LAYER   ROW   COL   STRESS RATE         
 --------------------------------------------------
      1      1     22     22     -0.3000E+05
      2      1      2     29       0.000    
      3      1      5     21     -0.5000E+05

      3 WELLS

                 RECHARGE =  1.000000E-03

 REUSING STREAM SEGMENT DATA FROM LAST STRESS PERIOD
 
 SOLVING FOR HEAD 


     6 CALLS TO PCG ROUTINE FOR TIME STEP   1 IN STRESS PERIOD   12
    22 TOTAL ITERATIONS

 OUTPUT CONTROL FOR STRESS PERIOD   12   TIME STEP    1
    SAVE BUDGET
    SAVE HEAD FOR ALL LAYERS
    PRINT HEAD FOR ALL LAYERS
 UBDSV2 SAVING "STREAMFLOW OUT  " ON UNIT  50 AT TIME STEP  1, STRESS PERIOD  12



 STREAM LISTING     PERIOD     12   STEP        1

 LAYER ROW COL. STREAM  RCH.  FLOW INTO     FLOW TO   FLOW OUT OF   OVRLND.     DIRECT     STREAM       STREAM     STREAM     STREAM   STREAMBED  STREAMBED
                SEG.NO.  NO.  STRM. RCH.    AQUIFER    STRM. RCH.    RUNOFF     PRECIP       ET          HEAD       DEPTH      WIDTH   CONDCTNC.   GRADIENT

   1   13    1     1     1    1.0000E+05 -2.7841E+04   1.2784E+05  0.000E+00  0.000E+00  0.000E+00  4.84178E+01  1.564E-01  2.000E+01  2.000E+04 -1.392E+00
   1   13    2     1     2    1.2784E+05 -3.7574E+04   1.6541E+05  0.000E+00  0.000E+00  0.000E+00  4.79661E+01  1.820E-01  2.000E+01  2.000E+04 -1.879E+00
   1   14    3     1     3    1.6541E+05 -3.3062E+04   1.9848E+05  0.000E+00  0.000E+00  0.000E+00  4.75140E+01  2.072E-01  2.000E+01  2.000E+04 -1.653E+00
   1   15    4     1     4    1.9848E+05 -3.2306E+04   2.3078E+05  0.000E+00  0.000E+00  0.000E+00  4.70583E+01  2.287E-01  2.000E+01  2.000E+04 -1.615E+00
   1   16    5     1     5    2.3078E+05 -3.3836E+04   2.6462E+05  0.000E+00  0.000E+00  0.000E+00  4.66015E+01  2.493E-01  2.000E+01  2.000E+04 -1.692E+00
   1   16    6     1     6    2.6462E+05 -2.9553E+04   2.9417E+05  0.000E+00  0.000E+00  0.000E+00  4.61430E+01  2.680E-01  2.000E+01  2.000E+04 -1.478E+00
   1   16    7     1     7    2.9417E+05 -2.9367E+04   3.2354E+05  0.000E+00  0.000E+00  0.000E+00  4.56823E+01  2.846E-01  2.000E+01  2.000E+04 -1.468E+00
   1   16    8     1     8    3.2354E+05 -2.9542E+04   3.5308E+05  0.000E+00  0.000E+00  0.000E+00  4.52210E+01  3.005E-01  2.000E+01  2.000E+04 -1.477E+00
   1   16    9     1     9    3.5308E+05 -2.9613E+04   3.8269E+05  0.000E+00  0.000E+00  0.000E+00  4.47592E+01  3.160E-01  2.000E+01  2.000E+04 -1.481E+00
   1   16   10     1    10    3.8269E+05 -2.9627E+04   4.1232E+05  0.000E+00  0.000E+00  0.000E+00  4.42970E+01  3.311E-01  2.000E+01  2.000E+04 -1.481E+00
   1   16   11     1    11    4.1232E+05 -3.0208E+04   4.4253E+05  0.000E+00  0.000E+00  0.000E+00  4.38344E+01  3.458E-01  2.000E+01  2.000E+04 -1.510E+00
   1   16   12     1    12    4.4253E+05 -3.5654E+04   4.7818E+05  0.000E+00  0.000E+00  0.000E+00  4.33729E+01  3.616E-01  2.000E+01  2.000E+04 -1.783E+00
   1   15   13     1    13    4.7818E+05 -3.4306E+04   5.1249E+05  0.000E+00  0.000E+00  0.000E+00  4.29119E+01  3.778E-01  2.000E+01  2.000E+04 -1.715E+00
   1   14   14     1    14    5.1249E+05 -3.4780E+04   5.4727E+05  0.000E+00  0.000E+00  0.000E+00  4.24502E+01  3.934E-01  2.000E+01  2.000E+04 -1.739E+00
   1   13   15     1    15    5.4727E+05 -3.6818E+04   5.8409E+05  0.000E+00  0.000E+00  0.000E+00  4.19887E+01  4.091E-01  2.000E+01  2.000E+04 -1.841E+00
   1   12   16     1    16    5.8409E+05 -4.2458E+04   6.2654E+05  0.000E+00  0.000E+00  0.000E+00  4.15284E+01  4.261E-01  2.000E+01  2.000E+04 -2.123E+00
   1   12   17     1    17    6.2654E+05 -3.2957E+04   6.5950E+05  0.000E+00  0.000E+00  0.000E+00  4.10668E+01  4.418E-01  2.000E+01  2.000E+04 -1.648E+00
   1   12   18     1    18    6.5950E+05 -3.1136E+04   6.9064E+05  0.000E+00  0.000E+00  0.000E+00  4.06026E+01  4.549E-01  2.000E+01  2.000E+04 -1.557E+00
   1   12   19     1    19    6.9064E+05 -3.4757E+04   7.2540E+05  0.000E+00  0.000E+00  0.000E+00  4.01386E+01  4.681E-01  2.000E+01  2.000E+04 -1.738E+00
   1   13   20     1    20    7.2540E+05 -2.5585E+04   7.5098E+05  0.000E+00  0.000E+00  0.000E+00  3.96732E+01  4.800E-01  2.000E+01  2.000E+04 -1.279E+00
   1   14   21     1    21    7.5098E+05 -1.8834E+04   7.6981E+05  0.000E+00  0.000E+00  0.000E+00  3.92045E+01  4.886E-01  2.000E+01  2.000E+04 -9.417E-01
   1   14   22     1    22    7.6981E+05 -1.3654E+03   7.7118E+05  0.000E+00  0.000E+00  0.000E+00  3.87311E+01  4.925E-01  2.000E+01  2.000E+04 -6.827E-02
   1    9   30     2     1    5.0000E+04 -2.6034E+04   7.6034E+04  0.000E+00  0.000E+00  0.000E+00  4.02581E+01  1.331E-01  2.000E+01  2.000E+04 -1.302E+00
   1    9   29     2     2    7.6034E+04 -2.8411E+04   1.0444E+05  0.000E+00  0.000E+00  0.000E+00  4.00401E+01  1.651E-01  2.000E+01  2.000E+04 -1.421E+00
   1    9   28     2     3    1.0444E+05 -3.2453E+04   1.3690E+05  0.000E+00  0.000E+00  0.000E+00  3.98216E+01  1.966E-01  2.000E+01  2.000E+04 -1.623E+00
   1    9   27     2     4    1.3690E+05 -4.5834E+04   1.8273E+05  0.000E+00  0.000E+00  0.000E+00  3.96077E+01  2.327E-01  2.000E+01  2.000E+04 -2.292E+00
   1   10   26     2     5    1.8273E+05 -3.1824E+04   2.1456E+05  0.000E+00  0.000E+00  0.000E+00  3.93901E+01  2.651E-01  2.000E+01  2.000E+04 -1.591E+00
   1   11   25     2     6    2.1456E+05 -2.3604E+04   2.3816E+05  0.000E+00  0.000E+00  0.000E+00  3.91617E+01  2.867E-01  2.000E+01  2.000E+04 -1.180E+00
   1   12   24     2     7    2.3816E+05 -1.7308E+04   2.5547E+05  0.000E+00  0.000E+00  0.000E+00  3.89270E+01  3.020E-01  2.000E+01  2.000E+04 -8.654E-01
   1   13   23     2     8    2.5547E+05 -1.2332E+04   2.6780E+05  0.000E+00  0.000E+00  0.000E+00  3.86877E+01  3.127E-01  2.000E+01  2.000E+04 -6.166E-01
   1   14   22     2     9    2.6780E+05 -7.0945E+03   2.7490E+05  0.000E+00  0.000E+00  0.000E+00  3.84447E+01  3.197E-01  2.000E+01  2.000E+04 -3.547E-01
   1   14   22     3     1    1.0461E+06 -1.5015E+04   1.0611E+06  0.000E+00  0.000E+00  0.000E+00  3.80486E+01  4.931E-01  2.000E+01  2.000E+04 -7.508E-01
   1   15   23     3     2    1.0611E+06 -2.2813E+04   1.0839E+06  0.000E+00  0.000E+00  0.000E+00  3.71650E+01  4.984E-01  2.000E+01  2.000E+04 -1.141E+00
   1   15   24     3     3    1.0839E+06 -1.9086E+04   1.1030E+06  0.000E+00  0.000E+00  0.000E+00  3.62819E+01  5.042E-01  2.000E+01  2.000E+04 -9.543E-01
   1   15   25     3     4    1.1030E+06 -1.8818E+04   1.1218E+06  0.000E+00  0.000E+00  0.000E+00  3.53983E+01  5.094E-01  2.000E+01  2.000E+04 -9.409E-01
   1   15   26     3     5    1.1218E+06 -2.1683E+04   1.1435E+06  0.000E+00  0.000E+00  0.000E+00  3.45149E+01  5.149E-01  2.000E+01  2.000E+04 -1.084E+00
   1   16   27     3     6    1.1435E+06 -2.8683E+04   1.1722E+06  0.000E+00  0.000E+00  0.000E+00  3.36329E+01  5.218E-01  2.000E+01  2.000E+04 -1.434E+00
   1   17   28     3     7    1.1722E+06 -3.5707E+04   1.2079E+06  0.000E+00  0.000E+00  0.000E+00  3.27527E+01  5.304E-01  2.000E+01  2.000E+04 -1.785E+00
   1   18   29     3     8    1.2079E+06 -4.6707E+04   1.2546E+06  0.000E+00  0.000E+00  0.000E+00  3.18747E+01  5.414E-01  2.000E+01  2.000E+04 -2.335E+00
   1   18   30     3     9    1.2546E+06 -4.3369E+04   1.2980E+06  0.000E+00  0.000E+00  0.000E+00  3.09976E+01  5.532E-01  2.000E+01  2.000E+04 -2.168E+00



1
              HEAD IN LAYER   1 AT END OF TIME STEP   1 IN STRESS PERIOD   12
  ---------------------------------------------------------------------------

          1      2      3      4      5      6      7      8      9     10
         11     12     13     14     15     16     17     18     19     20
         21     22     23     24     25     26     27     28     29     30
 .........................................................................
   1  ****** ****** ****** ****** ****** ****** ****** ****** ****** ******
      ****** ****** ****** ****** ****** ****** ****** ****** ****** ******
      ****** ****** ****** ****** ****** ****** ****** ****** ****** ******
   2  ****** ****** ****** ****** ****** ****** ****** ****** ****** ******
      ****** ****** ****** ****** ****** ****** ****** ****** ****** ******
      ****** ****** ****** ****** ****** ****** ****** ****** ****** ******
   3  ****** ****** ****** ****** ****** ****** ****** ****** ****** ******
      ****** ****** ****** ****** ****** ****** ****** ****** ****** ******
      ****** ****** ****** ****** ****** ****** ****** ****** ****** ******
   4  ****** ****** ****** ****** ****** ****** ****** ****** ****** ******
      ****** ****** ****** ****** ****** ****** ****** ****** ****** ******
      ****** ****** ****** ****** ****** ****** ****** ****** ****** ******
   5  ****** ****** ****** ****** ****** ****** ****** ****** ****** ******
      ****** ****** ****** ****** ****** ****** ****** ****** ****** ******
      ****** ****** ****** ****** ****** ****** ****** ****** ****** ******
   6  ****** ****** ****** ****** ****** ****** ****** ****** ****** ******
      ****** ****** ****** ****** ****** ****** ****** ****** ****** ******
      ****** ****** ****** ****** ****** ****** ****** ****** ****** ******
   7  ****** ****** ****** ****** ****** ****** ****** ****** ****** ******
      ****** ****** ****** ****** ****** ****** ****** ****** ****** ******
      ****** ****** ****** ****** ****** ****** ****** ****** ****** ******
   8  ****** ****** ****** ****** ****** ****** ****** ****** ****** ******
      ****** ****** ****** ****** ****** ****** ****** ****** ****** ******
      ****** ****** ****** ****** ****** ****** ****** ****** ****** ******
   9  ****** ****** ****** ****** ****** ****** ****** ****** ****** ******
      ****** ****** ****** ****** ****** ****** ****** ****** ****** ******
      ****** ****** ****** ****** ****** ****** ****** ****** ****** ******
  10  ****** ****** ****** ****** ****** ****** ****** ****** ****** ******
      ****** ****** ****** ****** ****** ****** ****** ****** ****** ******
      ****** ****** ****** ****** ****** ****** ****** ****** ****** ******
  11  ****** ****** ****** ****** ****** ****** ****** ****** ****** ******
      ****** ****** ****** ****** ****** ****** ****** ****** ****** ******
      ****** ****** ****** ****** ****** ****** ****** ****** ****** ******
  12  ****** ****** ****** ****** ****** ****** ****** ****** ****** ******
      ****** ****** ****** ****** ****** ****** ****** ****** ****** ******
      ****** ****** ****** ****** ****** ****** ****** ****** ****** ******
  13  ****** ****** ****** ****** ****** ****** ****** ****** ****** ******
      ****** ****** ****** ****** ****** ****** ****** ****** ****** ******
      ****** ****** ****** ****** ****** ****** ****** ****** ****** ******
  14  ****** ****** ****** ****** ****** ****** ****** ****** ****** ******
      ****** ****** ****** ****** ****** ****** ****** ****** ****** ******
      ****** ****** ****** ****** ****** ****** ****** ****** ****** ******
  15  ****** ****** ****** ****** ****** ****** ****** ****** ****** ******
      ****** ****** ****** ****** ****** ****** ****** ****** ****** ******
      ****** ****** ****** ****** ****** ****** ****** ****** ****** ******
  16  ****** ****** ****** ****** ****** ****** ****** ****** ****** ******
      ****** ****** ****** ****** ****** ****** ****** ****** ****** ******
      ****** ****** ****** ****** ****** ****** ****** ****** ****** ******
  17  ****** ****** ****** ****** ****** ****** ****** ****** ****** ******
      ****** ****** ****** ****** ****** ****** ****** ****** ****** ******
      ****** ****** ****** ****** ****** ****** ****** ****** ****** ******
  18  ****** ****** ****** ****** ****** ****** ****** ****** ****** ******
      ****** ****** ****** ****** ****** ****** ****** ****** ****** ******
      ****** ****** ****** ****** ****** ****** ****** ****** ****** ******
  19  ****** ****** ****** ****** ****** ****** ****** ****** ****** ******
      ****** ****** ****** ****** ****** ****** ****** ****** ****** ******
      ****** ****** ****** ****** ****** ****** ****** ****** ****** ******
  20  ****** ****** ****** ****** ****** ****** ****** ****** ****** ******
      ****** ****** ****** ****** ****** ****** ****** ****** ****** ******
      ****** ****** ****** ****** ****** ****** ****** ****** ****** ******
  21  ****** ****** ****** ****** ****** ****** ****** ****** ****** ******
      ****** ****** ****** ****** ****** ****** ****** ****** ****** ******
      ****** ****** ****** ****** ****** ****** ****** ****** ****** ******
  22  ****** ****** ****** ****** ****** ****** ****** ****** ****** ******
      ****** ****** ****** ****** ****** ****** ****** ****** ****** ******
      ****** ****** ****** ****** ****** ****** ****** ****** ****** ******
  23  ****** ****** ****** ****** ****** ****** ****** ****** ****** ******
      ****** ****** ****** ****** ****** ****** ****** ****** ****** ******
      ****** ****** ****** ****** ****** ****** ****** ****** ****** ******
  24  ****** ****** ****** ****** ****** ****** ****** ****** ****** ******
      ****** ****** ****** ****** ****** ****** ****** ****** ****** ******
      ****** ****** ****** ****** ****** ****** ****** ****** ****** ******
  25  ****** ****** ****** ****** ****** ****** ****** ****** ****** ******
      ****** ****** ****** ****** ****** ****** ****** ****** ****** ******
      ****** ****** ****** ****** ****** ****** ****** ****** ****** ******

 HEAD WILL BE SAVED ON UNIT   51 AT END OF TIME STEP    1, STRESS PERIOD   12
1
  VOLUMETRIC BUDGET FOR ENTIRE MODEL AT END OF TIME STEP    1, STRESS PERIOD  12
  ------------------------------------------------------------------------------

     CUMULATIVE VOLUMES      L**3       RATES FOR THIS TIME STEP      L**3/T
     ------------------                 ------------------------

           IN:                                      IN:
           ---                                      ---
             STORAGE =    21214394.9506               STORAGE =           0.0000
       CONSTANT HEAD =  1337159313.3027         CONSTANT HEAD =     1202389.7482
               WELLS =           0.0000                 WELLS =           0.0000
            RECHARGE =    26413200.0000              RECHARGE =       27600.0000
      STREAM LEAKAGE =           0.0000        STREAM LEAKAGE =           0.0000

            TOTAL IN =  1384786908.2532              TOTAL IN =     1229989.7482

          OUT:                                     OUT:
          ----                                     ----
             STORAGE =     1095065.4018               STORAGE =        2033.8702
       CONSTANT HEAD =           0.0000         CONSTANT HEAD =           0.0000
               WELLS =   117795274.5000                 WELLS =       80000.0000
            RECHARGE =           0.0000              RECHARGE =           0.0000
      STREAM LEAKAGE =  1265896575.7805        STREAM LEAKAGE =     1147955.8526

           TOTAL OUT =  1384786915.6823             TOTAL OUT =     1229989.7228

            IN - OUT =          -7.4291              IN - OUT =       2.5421E-02

 PERCENT DISCREPANCY =          -0.00     PERCENT DISCREPANCY =           0.00






         TIME SUMMARY AT END OF TIME STEP    1 IN STRESS PERIOD   12
                    SECONDS     MINUTES      HOURS       DAYS        YEARS
                    -----------------------------------------------------------
   TIME STEP LENGTH 7.86240E+06 1.31040E+05  2184.0      91.000     0.24914    
 STRESS PERIOD TIME 7.86240E+06 1.31040E+05  2184.0      91.000     0.24914    
         TOTAL TIME 9.46080E+07 1.57680E+06  26280.      1095.0      2.9979    
1

 Run end date and time (yyyy/mm/dd hh:mm:ss): 2018/09/30 22:05:35
 Elapsed run time:  0.076 Seconds

