                                  MODFLOW-2005     
      U.S. GEOLOGICAL SURVEY MODULAR FINITE-DIFFERENCE GROUND-WATER FLOW MODEL
                            VERSION 1.11.00 8/8/2013

 LIST FILE: supply2.lst
                         UNIT   10

 OPENING ..\data\supply.dis
 FILE TYPE:DIS   UNIT   11   STATUS:OLD    
 FORMAT:FORMATTED              ACCESS:SEQUENTIAL          

 OPENING ..\data\supply.ba6
 FILE TYPE:BAS6   UNIT   12   STATUS:OLD    
 FORMAT:FORMATTED              ACCESS:SEQUENTIAL          

 OPENING ..\data\supply.bc6
 FILE TYPE:BCF6   UNIT   13   STATUS:OLD    
 FORMAT:FORMATTED              ACCESS:SEQUENTIAL          

 OPENING ..\data\supply.rch
 FILE TYPE:RCH   UNIT   15   STATUS:OLD    
 FORMAT:FORMATTED              ACCESS:SEQUENTIAL          

 OPENING ..\data\supply2.sfr
 FILE TYPE:SFR   UNIT   16   STATUS:OLD    
 FORMAT:FORMATTED              ACCESS:SEQUENTIAL          

 OPENING ..\data\supply.oc
 FILE TYPE:OC   UNIT   17   STATUS:OLD    
 FORMAT:FORMATTED              ACCESS:SEQUENTIAL          

 OPENING ..\data\supply.pcg
 FILE TYPE:PCG   UNIT   18   STATUS:OLD    
 FORMAT:FORMATTED              ACCESS:SEQUENTIAL          

 OPENING supply2.wel
 FILE TYPE:WEL   UNIT   19   STATUS:OLD    
 FORMAT:FORMATTED              ACCESS:SEQUENTIAL          

 OPENING supply2sf.cbc
 FILE TYPE:DATA(BINARY)   UNIT   50   STATUS:UNKNOWN
 FORMAT:BINARY                 ACCESS:SEQUENTIAL          

 OPENING supply2hd.bhd
 FILE TYPE:DATA(BINARY)   UNIT   51   STATUS:UNKNOWN
 FORMAT:BINARY                 ACCESS:SEQUENTIAL          

 BAS -- BASIC PACKAGE, VERSION 7, 5/2/2005 INPUT READ FROM UNIT   12
 
 MODFLOW was compiled using uniform precision
 Precision of REAL and DOUBLE PRECISION variables:          15

 DISCRETIZATION INPUT DATA READ FROM UNIT   11
    1 LAYERS        25 ROWS        30 COLUMNS
   12 STRESS PERIOD(S) IN SIMULATION
 MODEL TIME UNIT IS DAYS
 MODEL LENGTH UNIT IS UNDEFINED
  Confining bed flag for each layer:
   0

                     DELR =   200.000    

                     DELC =   200.000    

 TOP ELEVATION OF LAYER 1 =  100.0000    

   MODEL LAYER BOTTOM EL. =   0.00000     FOR LAYER   1


 STRESS PERIOD     LENGTH       TIME STEPS     MULTIPLIER FOR DELT    SS FLAG
 ----------------------------------------------------------------------------
        1         92.00000          1                    1.500         TR
        2         91.00000          1                    1.500         TR
        3         91.00000          1                    1.500         TR
        4         91.00000          1                    1.500         TR
        5         92.00000          1                    1.500         TR
        6         91.00000          1                    1.500         TR
        7         91.00000          1                    1.500         TR
        8         91.00000          1                    1.500         TR
        9         92.00000          1                    1.500         TR
       10         91.00000          1                    1.500         TR
       11         91.00000          1                    1.500         TR
       12         91.00000          1                    1.500         TR

 TRANSIENT SIMULATION



 
 #MODOFC transient water supply sample problem                                   
 #                                                                               
 THE FREE FORMAT OPTION HAS BEEN SELECTED



                     BOUNDARY ARRAY FOR LAYER   1
 READING ON UNIT   12 WITH FORMAT: (20I4)              

 AQUIFER HEAD WILL BE SET TO   0.0000     AT ALL NO-FLOW NODES (IBOUND=0).



                       INITIAL HEAD FOR LAYER   1
 READING ON UNIT   12 WITH FORMAT: (10F13.0)           

 OUTPUT CONTROL IS SPECIFIED ONLY AT TIME STEPS FOR WHICH OUTPUT IS DESIRED
 COMPACT CELL-BY-CELL BUDGET FILES WILL BE WRITTEN
 HEAD PRINT FORMAT CODE IS  18    DRAWDOWN PRINT FORMAT CODE IS   0
 HEADS WILL BE SAVED ON UNIT   51    DRAWDOWNS WILL BE SAVED ON UNIT    0

 BCF -- BLOCK-CENTERED FLOW PACKAGE, VERSION 7, 5/2/2005
         INPUT READ FROM UNIT 13
 TRANSIENT SIMULATION
 HEAD AT CELLS THAT CONVERT TO DRY=   0.0000    
 WETTING CAPABILITY IS NOT ACTIVE
      LAYER  LAYER-TYPE CODE     INTERBLOCK T
      --------------------------------------------
         1            0          0 -- HARMONIC    

 COLUMN TO ROW ANISOTROPY =  1.000000    

     PRIMARY STORAGE COEF =  5.000000E-02 FOR LAYER   1

     TRANSMIS. ALONG ROWS =   500.000     FOR LAYER   1

 WEL -- WELL PACKAGE, VERSION 7, 5/2/2005 INPUT READ FROM UNIT   19
 # Well package input file written by MMProc
 No named parameters
 MAXIMUM OF      6 ACTIVE WELLS AT ONE TIME


     0 Well parameters

 RCH -- RECHARGE PACKAGE, VERSION 7, 5/2/2005 INPUT READ FROM UNIT   15
 No named parameters
 OPTION 1 -- RECHARGE TO TOP LAYER


     0 Recharge parameters

 SFR7 -- STREAMFLOW ROUTING PACKAGE, VERSION 1.0.7, 2013-01-15
         INPUT READ FROM UNIT  16
 #  Supply2 test problem for GWM-VI
 #  The eighth entry in the first data line is ISTCB2 -
 #    Setting this to a negative number indicates that
 #    streamflows out of the reach will be saved to a
 #    binary file.  The absolute value of ISTCB2 is the
 #    unit to which unformatted flows will be written.
 #
 No named parameters
 Segment information will not be 
 read by reach
 No named parameters
 No specifed inflow files


 NUMBER OF STREAM REACHES IS   40

 NUMBER OF STREAM SEGMENTS IS    3

 NUMBER OF STREAM PARAMETERS IS    0

 NUMBER OF STREAM SEGMENTS DEFINED USING PARAMETERS IS              0

 MAXIMUM ERROR FOR STREAM LEAKAGE RATES IS  1.00E-04

 CONSTANT FOR MANNINGS EQUATION IS  1.2839E+05





   STREAM NETWORK DESCRIPTION: 

   LAYER    ROW    COL   SEGMENT   REACH     LENGTH
                          NUMBER   NUMBER    IN CELL        
   --------------------------------------------------
      1     13      1       1        1    2.0000E+02
      1     13      2       1        2    2.0000E+02
      1     14      3       1        3    2.0000E+02
      1     15      4       1        4    2.0000E+02
      1     16      5       1        5    2.0000E+02
      1     16      6       1        6    2.0000E+02
      1     16      7       1        7    2.0000E+02
      1     16      8       1        8    2.0000E+02
      1     16      9       1        9    2.0000E+02
      1     16     10       1       10    2.0000E+02
      1     16     11       1       11    2.0000E+02
      1     16     12       1       12    2.0000E+02
      1     15     13       1       13    2.0000E+02
      1     14     14       1       14    2.0000E+02
      1     13     15       1       15    2.0000E+02
      1     12     16       1       16    2.0000E+02
      1     12     17       1       17    2.0000E+02
      1     12     18       1       18    2.0000E+02
      1     12     19       1       19    2.0000E+02
      1     13     20       1       20    2.0000E+02
      1     14     21       1       21    2.0000E+02
      1     14     22       1       22    2.0000E+02
      1      9     30       2        1    2.0000E+02
      1      9     29       2        2    2.0000E+02
      1      9     28       2        3    2.0000E+02
      1      9     27       2        4    2.0000E+02
      1     10     26       2        5    2.0000E+02
      1     11     25       2        6    2.0000E+02
      1     12     24       2        7    2.0000E+02
      1     13     23       2        8    2.0000E+02
      1     14     22       2        9    2.0000E+02
      1     14     22       3        1    2.0000E+02
      1     15     23       3        2    2.0000E+02
      1     15     24       3        3    2.0000E+02
      1     15     25       3        4    2.0000E+02
      1     15     26       3        5    2.0000E+02
      1     16     27       3        6    2.0000E+02
      1     17     28       3        7    2.0000E+02
      1     18     29       3        8    2.0000E+02
      1     18     30       3        9    2.0000E+02




 PCG -- CONJUGATE-GRADIENT SOLUTION PACKAGE, VERSION 7, 5/2/2005
 MAXIMUM OF    500 CALLS OF SOLUTION ROUTINE
 MAXIMUM OF      5 INTERNAL ITERATIONS PER CALL TO SOLUTION ROUTINE
 MATRIX PRECONDITIONING TYPE :    1



                                    SOLUTION BY THE CONJUGATE-GRADIENT METHOD
                                   -------------------------------------------
                    MAXIMUM NUMBER OF CALLS TO PCG ROUTINE =      500
                        MAXIMUM ITERATIONS PER CALL TO PCG =        5
                               MATRIX PRECONDITIONING TYPE =        1
        RELAXATION FACTOR (ONLY USED WITH PRECOND. TYPE 1) =    0.10000E+01
 PARAMETER OF POLYNOMIAL PRECOND. = 2 (2) OR IS CALCULATED :        0
                         HEAD CHANGE CRITERION FOR CLOSURE =    0.10000E-05
                     RESIDUAL CHANGE CRITERION FOR CLOSURE =    0.10000E+01
            PCG HEAD AND RESIDUAL CHANGE PRINTOUT INTERVAL =        1
     PRINTING FROM SOLVER IS LIMITED(1) OR SUPPRESSED (>1) =        1
                            STEADY-STATE DAMPING PARAMETER =    0.10000E+01
                               TRANSIENT DAMPING PARAMETER =    0.10000E+01
1
                            STRESS PERIOD NO.    1, LENGTH =   92.00000    
                            -----------------------------------------------

                              NUMBER OF TIME STEPS =     1

                               MULTIPLIER FOR DELT =     1.500

                            INITIAL TIME STEP SIZE =   92.00000    

 WELL NO.  LAYER   ROW   COL   STRESS RATE         
 --------------------------------------------------
      1      1     23     29     -0.3033E+05
      2      1     23      8     -0.3444E+05
      3      1     23     22     -0.3374E+05

      3 WELLS

                 RECHARGE =  5.000000E-04



 CLASSIFICATION & COUNT OF STREAM SEGMENTS BASED ON SOURCE OF INFLOW:

                HEADWATER     DIVERSION     RECEIVES TRIBUTARY FLOW
                ---------     ---------     -----------------------
                     2              0               1



                    INPUT DATA FOR EACH STREAM SEGMENT
 ---------------------------------------------------------------------------------------------

 SEGMENT    SEG.     INFLOW   OVERLAND   STREAM    STREAM   ICALC  OUTFLOW  DIVERSION PRIORITY
    NO.    LENGTH     RATE     RUNOFF      ET       PPT.    METH.  TO SEG.  FROM SEG.    NO.

      1  4.400E+03 1.000E+05 0.000E+00 0.000E+00 0.000E+00    1        3        0        0
      2  1.800E+03 5.000E+04 0.000E+00 0.000E+00 0.000E+00    1        3        0        0
      3  1.800E+03 0.000E+00 0.000E+00 0.000E+00 0.000E+00    1        0        0        0


         STREAMBED PROPERTIES AND STREAM DIMENSIONS

 SEGMENT     BED HYD. COND.      BED THICKNESS     ELEV.-TOP OF BED     WIDTH OF STREAM     DEPTH OF STREAM    STREAM ROUGHNESS
    No.     UPPER     LOWER     UPPER     LOWER     UPPER     LOWER     UPPER     LOWER     UPPER     LOWER   CHANNEL      BANK

     1  5.000E+00 5.000E+00 1.000E+00 1.000E+00 4.850E+01 3.800E+01 2.000E+01 2.000E+01                     5.000E-02
     2  5.000E+00 5.000E+00 1.000E+00 1.000E+00 4.025E+01 3.800E+01 2.000E+01 2.000E+01                     5.000E-02
     3  5.000E+00 5.000E+00 1.000E+00 1.000E+00 3.800E+01 3.000E+01 2.000E+01 2.000E+01                     5.000E-02



 
 SOLVING FOR HEAD 


     8 CALLS TO PCG ROUTINE FOR TIME STEP   1 IN STRESS PERIOD    1
    34 TOTAL ITERATIONS

 OUTPUT CONTROL FOR STRESS PERIOD    1   TIME STEP    1
    SAVE BUDGET
    SAVE HEAD FOR ALL LAYERS
    PRINT HEAD FOR ALL LAYERS
 UBDSV2 SAVING "STREAMFLOW OUT  " ON UNIT  50 AT TIME STEP  1, STRESS PERIOD   1



 STREAM LISTING     PERIOD      1   STEP        1

 LAYER ROW COL. STREAM  RCH.  FLOW INTO     FLOW TO   FLOW OUT OF   OVRLND.     DIRECT     STREAM       STREAM     STREAM     STREAM   STREAMBED  STREAMBED
                SEG.NO.  NO.  STRM. RCH.    AQUIFER    STRM. RCH.    RUNOFF     PRECIP       ET          HEAD       DEPTH      WIDTH   CONDCTNC.   GRADIENT

   1   13    1     1     1    1.0000E+05 -5.7001E+03   1.0570E+05  0.000E+00  0.000E+00  0.000E+00  4.84085E+01  1.471E-01  2.000E+01  2.000E+04 -2.850E-01
   1   13    2     1     2    1.0570E+05 -8.5599E+03   1.1426E+05  0.000E+00  0.000E+00  0.000E+00  4.79372E+01  1.531E-01  2.000E+01  2.000E+04 -4.280E-01
   1   14    3     1     3    1.1426E+05 -7.7626E+03   1.2202E+05  0.000E+00  0.000E+00  0.000E+00  4.74667E+01  1.599E-01  2.000E+01  2.000E+04 -3.881E-01
   1   15    4     1     4    1.2202E+05 -7.4937E+03   1.2952E+05  0.000E+00  0.000E+00  0.000E+00  4.69955E+01  1.660E-01  2.000E+01  2.000E+04 -3.747E-01
   1   16    5     1     5    1.2952E+05 -6.9979E+03   1.3651E+05  0.000E+00  0.000E+00  0.000E+00  4.65239E+01  1.717E-01  2.000E+01  2.000E+04 -3.499E-01
   1   16    6     1     6    1.3651E+05 -5.5851E+03   1.4210E+05  0.000E+00  0.000E+00  0.000E+00  4.60515E+01  1.765E-01  2.000E+01  2.000E+04 -2.793E-01
   1   16    7     1     7    1.4210E+05 -5.6860E+03   1.4779E+05  0.000E+00  0.000E+00  0.000E+00  4.55785E+01  1.807E-01  2.000E+01  2.000E+04 -2.843E-01
   1   16    8     1     8    1.4779E+05 -5.7559E+03   1.5354E+05  0.000E+00  0.000E+00  0.000E+00  4.51054E+01  1.850E-01  2.000E+01  2.000E+04 -2.878E-01
   1   16    9     1     9    1.5354E+05 -5.7909E+03   1.5933E+05  0.000E+00  0.000E+00  0.000E+00  4.46324E+01  1.892E-01  2.000E+01  2.000E+04 -2.895E-01
   1   16   10     1    10    1.5933E+05 -5.7879E+03   1.6512E+05  0.000E+00  0.000E+00  0.000E+00  4.41593E+01  1.934E-01  2.000E+01  2.000E+04 -2.894E-01
   1   16   11     1    11    1.6512E+05 -5.7594E+03   1.7088E+05  0.000E+00  0.000E+00  0.000E+00  4.36861E+01  1.975E-01  2.000E+01  2.000E+04 -2.880E-01
   1   16   12     1    12    1.7088E+05 -7.4857E+03   1.7837E+05  0.000E+00  0.000E+00  0.000E+00  4.32135E+01  2.021E-01  2.000E+01  2.000E+04 -3.743E-01
   1   15   13     1    13    1.7837E+05 -8.0054E+03   1.8637E+05  0.000E+00  0.000E+00  0.000E+00  4.27415E+01  2.074E-01  2.000E+01  2.000E+04 -4.003E-01
   1   14   14     1    14    1.8637E+05 -8.3107E+03   1.9468E+05  0.000E+00  0.000E+00  0.000E+00  4.22698E+01  2.130E-01  2.000E+01  2.000E+04 -4.155E-01
   1   13   15     1    15    1.9468E+05 -8.5806E+03   2.0326E+05  0.000E+00  0.000E+00  0.000E+00  4.17981E+01  2.186E-01  2.000E+01  2.000E+04 -4.290E-01
   1   12   16     1    16    2.0326E+05 -9.4185E+03   2.1268E+05  0.000E+00  0.000E+00  0.000E+00  4.13267E+01  2.245E-01  2.000E+01  2.000E+04 -4.709E-01
   1   12   17     1    17    2.1268E+05 -6.6132E+03   2.1929E+05  0.000E+00  0.000E+00  0.000E+00  4.08546E+01  2.296E-01  2.000E+01  2.000E+04 -3.307E-01
   1   12   18     1    18    2.1929E+05 -6.4335E+03   2.2573E+05  0.000E+00  0.000E+00  0.000E+00  4.03815E+01  2.337E-01  2.000E+01  2.000E+04 -3.217E-01
   1   12   19     1    19    2.2573E+05 -8.1231E+03   2.3385E+05  0.000E+00  0.000E+00  0.000E+00  3.99088E+01  2.383E-01  2.000E+01  2.000E+04 -4.062E-01
   1   13   20     1    20    2.3385E+05 -6.6004E+03   2.4045E+05  0.000E+00  0.000E+00  0.000E+00  3.94360E+01  2.429E-01  2.000E+01  2.000E+04 -3.300E-01
   1   14   21     1    21    2.4045E+05 -5.3101E+03   2.4576E+05  0.000E+00  0.000E+00  0.000E+00  3.89624E+01  2.465E-01  2.000E+01  2.000E+04 -2.655E-01
   1   14   22     1    22    2.4576E+05  4.3958E+03   2.4137E+05  0.000E+00  0.000E+00  0.000E+00  3.84854E+01  2.468E-01  2.000E+01  2.000E+04  2.198E-01
   1    9   30     2     1    5.0000E+04 -5.5700E+03   5.5570E+04  0.000E+00  0.000E+00  0.000E+00  4.02447E+01  1.197E-01  2.000E+01  2.000E+04 -2.785E-01
   1    9   29     2     2    5.5570E+04 -5.8691E+03   6.1439E+04  0.000E+00  0.000E+00  0.000E+00  4.00023E+01  1.273E-01  2.000E+01  2.000E+04 -2.935E-01
   1    9   28     2     3    6.1439E+04 -6.1935E+03   6.7633E+04  0.000E+00  0.000E+00  0.000E+00  3.97600E+01  1.350E-01  2.000E+01  2.000E+04 -3.097E-01
   1    9   27     2     4    6.7633E+04 -9.5871E+03   7.7220E+04  0.000E+00  0.000E+00  0.000E+00  3.95197E+01  1.447E-01  2.000E+01  2.000E+04 -4.794E-01
   1   10   26     2     5    7.7220E+04 -7.7170E+03   8.4937E+04  0.000E+00  0.000E+00  0.000E+00  3.92799E+01  1.549E-01  2.000E+01  2.000E+04 -3.859E-01
   1   11   25     2     6    8.4937E+04 -6.5912E+03   9.1528E+04  0.000E+00  0.000E+00  0.000E+00  3.90379E+01  1.629E-01  2.000E+01  2.000E+04 -3.296E-01
   1   12   24     2     7    9.1528E+04 -5.3322E+03   9.6860E+04  0.000E+00  0.000E+00  0.000E+00  3.87944E+01  1.694E-01  2.000E+01  2.000E+04 -2.666E-01
   1   13   23     2     8    9.6860E+04 -3.7866E+03   1.0065E+05  0.000E+00  0.000E+00  0.000E+00  3.85493E+01  1.743E-01  2.000E+01  2.000E+04 -1.893E-01
   1   14   22     2     9    1.0065E+05  7.0625E+02   9.9940E+04  0.000E+00  0.000E+00  0.000E+00  3.83009E+01  1.759E-01  2.000E+01  2.000E+04  3.531E-02
   1   14   22     3     1    3.4131E+05 -9.1466E+03   3.5045E+05  0.000E+00  0.000E+00  0.000E+00  3.78083E+01  2.527E-01  2.000E+01  2.000E+04 -4.573E-01
   1   15   23     3     2    3.5045E+05 -5.4024E+03   3.5585E+05  0.000E+00  0.000E+00  0.000E+00  3.69226E+01  2.559E-01  2.000E+01  2.000E+04 -2.701E-01
   1   15   24     3     3    3.5585E+05 -3.9502E+03   3.5980E+05  0.000E+00  0.000E+00  0.000E+00  3.60357E+01  2.579E-01  2.000E+01  2.000E+04 -1.975E-01
   1   15   25     3     4    3.5980E+05 -4.0015E+03   3.6381E+05  0.000E+00  0.000E+00  0.000E+00  3.51485E+01  2.596E-01  2.000E+01  2.000E+04 -2.001E-01
   1   15   26     3     5    3.6381E+05 -5.4136E+03   3.6922E+05  0.000E+00  0.000E+00  0.000E+00  3.42617E+01  2.617E-01  2.000E+01  2.000E+04 -2.707E-01
   1   16   27     3     6    3.6922E+05 -6.6336E+03   3.7585E+05  0.000E+00  0.000E+00  0.000E+00  3.33754E+01  2.642E-01  2.000E+01  2.000E+04 -3.317E-01
   1   17   28     3     7    3.7585E+05 -6.9786E+03   3.8283E+05  0.000E+00  0.000E+00  0.000E+00  3.24894E+01  2.671E-01  2.000E+01  2.000E+04 -3.489E-01
   1   18   29     3     8    3.8283E+05 -6.8679E+03   3.8970E+05  0.000E+00  0.000E+00  0.000E+00  3.16034E+01  2.700E-01  2.000E+01  2.000E+04 -3.434E-01
   1   18   30     3     9    3.8970E+05 -5.9022E+03   3.9560E+05  0.000E+00  0.000E+00  0.000E+00  3.07172E+01  2.727E-01  2.000E+01  2.000E+04 -2.951E-01



1
              HEAD IN LAYER   1 AT END OF TIME STEP   1 IN STRESS PERIOD    1
  ---------------------------------------------------------------------------

          1      2      3      4      5      6      7      8      9     10
         11     12     13     14     15     16     17     18     19     20
         21     22     23     24     25     26     27     28     29     30
 .........................................................................
   1  ****** ****** ****** ****** ****** ****** ****** ****** ****** ******
      ****** ****** ****** ****** ****** ****** ****** ****** ****** ******
      ****** ****** ****** ****** ****** ****** ****** ****** ****** ******
   2  ****** ****** ****** ****** ****** ****** ****** ****** ****** ******
      ****** ****** ****** ****** ****** ****** ****** ****** ****** ******
      ****** ****** ****** ****** ****** ****** ****** ****** ****** ******
   3  ****** ****** ****** ****** ****** ****** ****** ****** ****** ******
      ****** ****** ****** ****** ****** ****** ****** ****** ****** ******
      ****** ****** ****** ****** ****** ****** ****** ****** ****** ******
   4  ****** ****** ****** ****** ****** ****** ****** ****** ****** ******
      ****** ****** ****** ****** ****** ****** ****** ****** ****** ******
      ****** ****** ****** ****** ****** ****** ****** ****** ****** ******
   5  ****** ****** ****** ****** ****** ****** ****** ****** ****** ******
      ****** ****** ****** ****** ****** ****** ****** ****** ****** ******
      ****** ****** ****** ****** ****** ****** ****** ****** ****** ******
   6  ****** ****** ****** ****** ****** ****** ****** ****** ****** ******
      ****** ****** ****** ****** ****** ****** ****** ****** ****** ******
      ****** ****** ****** ****** ****** ****** ****** ****** ****** ******
   7  ****** ****** ****** ****** ****** ****** ****** ****** ****** ******
      ****** ****** ****** ****** ****** ****** ****** ****** ****** ******
      ****** ****** ****** ****** ****** ****** ****** ****** ****** ******
   8  ****** ****** ****** ****** ****** ****** ****** ****** ****** ******
      ****** ****** ****** ****** ****** ****** ****** ****** ****** ******
      ****** ****** ****** ****** ****** ****** ****** ****** ****** ******
   9  ****** ****** ****** ****** ****** ****** ****** ****** ****** ******
      ****** ****** ****** ****** ****** ****** ****** ****** ****** ******
      ****** ****** ****** ****** ****** ****** ****** ****** ****** ******
  10  ****** ****** ****** ****** ****** ****** ****** ****** ****** ******
      ****** ****** ****** ****** ****** ****** ****** ****** ****** ******
      ****** ****** ****** ****** ****** ****** ****** ****** ****** ******
  11  ****** ****** ****** ****** ****** ****** ****** ****** ****** ******
      ****** ****** ****** ****** ****** ****** ****** ****** ****** ******
      ****** ****** ****** ****** ****** ****** ****** ****** ****** ******
  12  ****** ****** ****** ****** ****** ****** ****** ****** ****** ******
      ****** ****** ****** ****** ****** ****** ****** ****** ****** ******
      ****** ****** ****** ****** ****** ****** ****** ****** ****** ******
  13  ****** ****** ****** ****** ****** ****** ****** ****** ****** ******
      ****** ****** ****** ****** ****** ****** ****** ****** ****** ******
      ****** ****** ****** ****** ****** ****** ****** ****** ****** ******
  14  ****** ****** ****** ****** ****** ****** ****** ****** ****** ******
      ****** ****** ****** ****** ****** ****** ****** ****** ****** ******
      ****** ****** ****** ****** ****** ****** ****** ****** ****** ******
  15  ****** ****** ****** ****** ****** ****** ****** ****** ****** ******
      ****** ****** ****** ****** ****** ****** ****** ****** ****** ******
      ****** ****** ****** ****** ****** ****** ****** ****** ****** ******
  16  ****** ****** ****** ****** ****** ****** ****** ****** ****** ******
      ****** ****** ****** ****** ****** ****** ****** ****** ****** ******
      ****** ****** ****** ****** ****** ****** ****** ****** ****** ******
  17  ****** ****** ****** ****** ****** ****** ****** ****** ****** ******
      ****** ****** ****** ****** ****** ****** ****** ****** ****** ******
      ****** ****** ****** ****** ****** ****** ****** ****** ****** ******
  18  ****** ****** ****** ****** ****** ****** ****** ****** ****** ******
      ****** ****** ****** ****** ****** ****** ****** ****** ****** ******
      ****** ****** ****** ****** ****** ****** ****** ****** ****** ******
  19  ****** ****** ****** ****** ****** ****** ****** ****** ****** ******
      ****** ****** ****** ****** ****** ****** ****** ****** ****** ******
      ****** ****** ****** ****** ****** ****** ****** ****** ****** ******
  20  ****** ****** ****** ****** ****** ****** ****** ****** ****** ******
      ****** ****** ****** ****** ****** ****** ****** ****** ****** ******
      ****** ****** ****** ****** ****** ****** ****** ****** ****** ******
  21  ****** ****** ****** ****** ****** ****** ****** ****** ****** ******
      ****** ****** ****** ****** ****** ****** ****** ****** ****** ******
      ****** ****** ****** ****** ****** ****** ****** ****** ****** ******
  22  ****** ****** ****** ****** ****** ****** ****** ****** ****** ******
      ****** ****** ****** ****** ****** ****** ****** ****** ****** ******
      ****** ****** ****** ****** ****** ****** ****** ****** ****** ******
  23  ****** ****** ****** ****** ****** ****** ****** ****** ****** ******
      ****** ****** ****** ****** ****** ****** ****** ****** ****** ******
      ****** ****** ****** ****** ****** ****** ****** ****** ****** ******
  24  ****** ****** ****** ****** ****** ****** ****** ****** ****** ******
      ****** ****** ****** ****** ****** ****** ****** ****** ****** ******
      ****** ****** ****** ****** ****** ****** ****** ****** ****** ******
  25  ****** ****** ****** ****** ****** ****** ****** ****** ****** ******
      ****** ****** ****** ****** ****** ****** ****** ****** ****** ******
      ****** ****** ****** ****** ****** ****** ****** ****** ****** ******

 HEAD WILL BE SAVED ON UNIT   51 AT END OF TIME STEP    1, STRESS PERIOD    1
1
  VOLUMETRIC BUDGET FOR ENTIRE MODEL AT END OF TIME STEP    1, STRESS PERIOD   1
  ------------------------------------------------------------------------------

     CUMULATIVE VOLUMES      L**3       RATES FOR THIS TIME STEP      L**3/T
     ------------------                 ------------------------

           IN:                                      IN:
           ---                                      ---
             STORAGE =    17348317.9565               STORAGE =      188568.6734
       CONSTANT HEAD =    13040931.9818         CONSTANT HEAD =      141749.2607
               WELLS =           0.0000                 WELLS =           0.0000
            RECHARGE =     1269600.0000              RECHARGE =       13800.0000
      STREAM LEAKAGE =      469388.0686        STREAM LEAKAGE =        5102.0442

            TOTAL IN =    32128238.0069              TOTAL IN =      349219.9783

          OUT:                                     OUT:
          ----                                     ----
             STORAGE =           0.0000               STORAGE =           0.0000
       CONSTANT HEAD =           0.0000         CONSTANT HEAD =           0.0000
               WELLS =     9063452.5559                 WELLS =       98515.7887
            RECHARGE =           0.0000              RECHARGE =           0.0000
      STREAM LEAKAGE =    23064785.5883        STREAM LEAKAGE =      250704.1912

           TOTAL OUT =    32128238.1442             TOTAL OUT =      349219.9798

            IN - OUT =          -0.1373              IN - OUT =      -1.4920E-03

 PERCENT DISCREPANCY =          -0.00     PERCENT DISCREPANCY =          -0.00






         TIME SUMMARY AT END OF TIME STEP    1 IN STRESS PERIOD    1
                    SECONDS     MINUTES      HOURS       DAYS        YEARS
                    -----------------------------------------------------------
   TIME STEP LENGTH 7.94880E+06 1.32480E+05  2208.0      92.000     0.25188    
 STRESS PERIOD TIME 7.94880E+06 1.32480E+05  2208.0      92.000     0.25188    
         TOTAL TIME 7.94880E+06 1.32480E+05  2208.0      92.000     0.25188    
1
1
                            STRESS PERIOD NO.    2, LENGTH =   91.00000    
                            -----------------------------------------------

                              NUMBER OF TIME STEPS =     1

                               MULTIPLIER FOR DELT =     1.500

                            INITIAL TIME STEP SIZE =   91.00000    

 WELL NO.  LAYER   ROW   COL   STRESS RATE         
 --------------------------------------------------
      1      1     23     29     -0.3033E+05
      2      1     23      8     -0.3444E+05
      3      1     23     22     -0.3374E+05

      3 WELLS

                 RECHARGE =  2.000000E-03

 REUSING STREAM SEGMENT DATA FROM LAST STRESS PERIOD
 
 SOLVING FOR HEAD 


     7 CALLS TO PCG ROUTINE FOR TIME STEP   1 IN STRESS PERIOD    2
    27 TOTAL ITERATIONS

 OUTPUT CONTROL FOR STRESS PERIOD    2   TIME STEP    1
    SAVE BUDGET
    SAVE HEAD FOR ALL LAYERS
    PRINT HEAD FOR ALL LAYERS
 UBDSV2 SAVING "STREAMFLOW OUT  " ON UNIT  50 AT TIME STEP  1, STRESS PERIOD   2



 STREAM LISTING     PERIOD      2   STEP        1

 LAYER ROW COL. STREAM  RCH.  FLOW INTO     FLOW TO   FLOW OUT OF   OVRLND.     DIRECT     STREAM       STREAM     STREAM     STREAM   STREAMBED  STREAMBED
                SEG.NO.  NO.  STRM. RCH.    AQUIFER    STRM. RCH.    RUNOFF     PRECIP       ET          HEAD       DEPTH      WIDTH   CONDCTNC.   GRADIENT

   1   13    1     1     1    1.0000E+05 -3.7522E+03   1.0375E+05  0.000E+00  0.000E+00  0.000E+00  4.84076E+01  1.463E-01  2.000E+01  2.000E+04 -1.876E-01
   1   13    2     1     2    1.0375E+05 -6.1239E+03   1.0988E+05  0.000E+00  0.000E+00  0.000E+00  4.79346E+01  1.505E-01  2.000E+01  2.000E+04 -3.062E-01
   1   14    3     1     3    1.0988E+05 -4.9668E+03   1.1484E+05  0.000E+00  0.000E+00  0.000E+00  4.74619E+01  1.551E-01  2.000E+01  2.000E+04 -2.483E-01
   1   15    4     1     4    1.1484E+05 -4.6655E+03   1.1951E+05  0.000E+00  0.000E+00  0.000E+00  4.69886E+01  1.591E-01  2.000E+01  2.000E+04 -2.333E-01
   1   16    5     1     5    1.1951E+05 -4.4380E+03   1.2395E+05  0.000E+00  0.000E+00  0.000E+00  4.65150E+01  1.628E-01  2.000E+01  2.000E+04 -2.219E-01
   1   16    6     1     6    1.2395E+05 -3.5157E+03   1.2746E+05  0.000E+00  0.000E+00  0.000E+00  4.60409E+01  1.659E-01  2.000E+01  2.000E+04 -1.758E-01
   1   16    7     1     7    1.2746E+05 -3.5734E+03   1.3104E+05  0.000E+00  0.000E+00  0.000E+00  4.55665E+01  1.687E-01  2.000E+01  2.000E+04 -1.787E-01
   1   16    8     1     8    1.3104E+05 -3.6157E+03   1.3465E+05  0.000E+00  0.000E+00  0.000E+00  4.50920E+01  1.715E-01  2.000E+01  2.000E+04 -1.808E-01
   1   16    9     1     9    1.3465E+05 -3.6449E+03   1.3830E+05  0.000E+00  0.000E+00  0.000E+00  4.46175E+01  1.743E-01  2.000E+01  2.000E+04 -1.822E-01
   1   16   10     1    10    1.3830E+05 -3.6562E+03   1.4195E+05  0.000E+00  0.000E+00  0.000E+00  4.41430E+01  1.771E-01  2.000E+01  2.000E+04 -1.828E-01
   1   16   11     1    11    1.4195E+05 -3.6544E+03   1.4561E+05  0.000E+00  0.000E+00  0.000E+00  4.36685E+01  1.799E-01  2.000E+01  2.000E+04 -1.827E-01
   1   16   12     1    12    1.4561E+05 -4.8360E+03   1.5044E+05  0.000E+00  0.000E+00  0.000E+00  4.31944E+01  1.830E-01  2.000E+01  2.000E+04 -2.418E-01
   1   15   13     1    13    1.5044E+05 -5.0011E+03   1.5544E+05  0.000E+00  0.000E+00  0.000E+00  4.27207E+01  1.867E-01  2.000E+01  2.000E+04 -2.501E-01
   1   14   14     1    14    1.5544E+05 -5.2238E+03   1.6067E+05  0.000E+00  0.000E+00  0.000E+00  4.22472E+01  1.904E-01  2.000E+01  2.000E+04 -2.612E-01
   1   13   15     1    15    1.6067E+05 -5.5653E+03   1.6623E+05  0.000E+00  0.000E+00  0.000E+00  4.17738E+01  1.942E-01  2.000E+01  2.000E+04 -2.783E-01
   1   12   16     1    16    1.6623E+05 -6.8026E+03   1.7304E+05  0.000E+00  0.000E+00  0.000E+00  4.13009E+01  1.986E-01  2.000E+01  2.000E+04 -3.401E-01
   1   12   17     1    17    1.7304E+05 -4.4880E+03   1.7752E+05  0.000E+00  0.000E+00  0.000E+00  4.08276E+01  2.026E-01  2.000E+01  2.000E+04 -2.244E-01
   1   12   18     1    18    1.7752E+05 -4.3113E+03   1.8183E+05  0.000E+00  0.000E+00  0.000E+00  4.03533E+01  2.056E-01  2.000E+01  2.000E+04 -2.156E-01
   1   12   19     1    19    1.8183E+05 -5.5777E+03   1.8741E+05  0.000E+00  0.000E+00  0.000E+00  3.98794E+01  2.090E-01  2.000E+01  2.000E+04 -2.789E-01
   1   13   20     1    20    1.8741E+05 -3.8347E+03   1.9125E+05  0.000E+00  0.000E+00  0.000E+00  3.94053E+01  2.122E-01  2.000E+01  2.000E+04 -1.917E-01
   1   14   21     1    21    1.9125E+05 -2.7875E+03   1.9403E+05  0.000E+00  0.000E+00  0.000E+00  3.89303E+01  2.144E-01  2.000E+01  2.000E+04 -1.394E-01
   1   14   22     1    22    1.9403E+05  4.9644E+03   1.8907E+05  0.000E+00  0.000E+00  0.000E+00  3.84523E+01  2.136E-01  2.000E+01  2.000E+04  2.482E-01
   1    9   30     2     1    5.0000E+04 -3.4557E+03   5.3456E+04  0.000E+00  0.000E+00  0.000E+00  4.02433E+01  1.183E-01  2.000E+01  2.000E+04 -1.728E-01
   1    9   29     2     2    5.3456E+04 -3.7799E+03   5.7236E+04  0.000E+00  0.000E+00  0.000E+00  3.99981E+01  1.231E-01  2.000E+01  2.000E+04 -1.890E-01
   1    9   28     2     3    5.7236E+04 -4.1562E+03   6.1392E+04  0.000E+00  0.000E+00  0.000E+00  3.97534E+01  1.284E-01  2.000E+01  2.000E+04 -2.078E-01
   1    9   27     2     4    6.1392E+04 -7.1634E+03   6.8555E+04  0.000E+00  0.000E+00  0.000E+00  3.95106E+01  1.356E-01  2.000E+01  2.000E+04 -3.582E-01
   1   10   26     2     5    6.8555E+04 -4.8324E+03   7.3388E+04  0.000E+00  0.000E+00  0.000E+00  3.92680E+01  1.430E-01  2.000E+01  2.000E+04 -2.416E-01
   1   11   25     2     6    7.3388E+04 -3.7357E+03   7.7123E+04  0.000E+00  0.000E+00  0.000E+00  3.90231E+01  1.481E-01  2.000E+01  2.000E+04 -1.868E-01
   1   12   24     2     7    7.7123E+04 -2.7441E+03   7.9867E+04  0.000E+00  0.000E+00  0.000E+00  3.87769E+01  1.519E-01  2.000E+01  2.000E+04 -1.372E-01
   1   13   23     2     8    7.9867E+04 -1.6994E+03   8.1567E+04  0.000E+00  0.000E+00  0.000E+00  3.85294E+01  1.544E-01  2.000E+01  2.000E+04 -8.497E-02
   1   14   22     2     9    8.1567E+04  1.5097E+03   8.0057E+04  0.000E+00  0.000E+00  0.000E+00  3.82795E+01  1.545E-01  2.000E+01  2.000E+04  7.548E-02
   1   14   22     3     1    2.6913E+05 -8.5805E+03   2.7771E+05  0.000E+00  0.000E+00  0.000E+00  3.77750E+01  2.195E-01  2.000E+01  2.000E+04 -4.290E-01
   1   15   23     3     2    2.7771E+05 -2.9901E+03   2.8070E+05  0.000E+00  0.000E+00  0.000E+00  3.68889E+01  2.223E-01  2.000E+01  2.000E+04 -1.495E-01
   1   15   24     3     3    2.8070E+05 -2.0474E+03   2.8275E+05  0.000E+00  0.000E+00  0.000E+00  3.60012E+01  2.235E-01  2.000E+01  2.000E+04 -1.024E-01
   1   15   25     3     4    2.8275E+05 -1.9961E+03   2.8474E+05  0.000E+00  0.000E+00  0.000E+00  3.51133E+01  2.244E-01  2.000E+01  2.000E+04 -9.980E-02
   1   15   26     3     5    2.8474E+05 -2.6831E+03   2.8742E+05  0.000E+00  0.000E+00  0.000E+00  3.42255E+01  2.255E-01  2.000E+01  2.000E+04 -1.342E-01
   1   16   27     3     6    2.8742E+05 -3.3072E+03   2.9073E+05  0.000E+00  0.000E+00  0.000E+00  3.33381E+01  2.269E-01  2.000E+01  2.000E+04 -1.654E-01
   1   17   28     3     7    2.9073E+05 -3.5715E+03   2.9430E+05  0.000E+00  0.000E+00  0.000E+00  3.24508E+01  2.286E-01  2.000E+01  2.000E+04 -1.786E-01
   1   18   29     3     8    2.9430E+05 -3.7080E+03   2.9801E+05  0.000E+00  0.000E+00  0.000E+00  3.15636E+01  2.303E-01  2.000E+01  2.000E+04 -1.854E-01
   1   18   30     3     9    2.9801E+05 -3.3576E+03   3.0137E+05  0.000E+00  0.000E+00  0.000E+00  3.06763E+01  2.319E-01  2.000E+01  2.000E+04 -1.679E-01



1
              HEAD IN LAYER   1 AT END OF TIME STEP   1 IN STRESS PERIOD    2
  ---------------------------------------------------------------------------

          1      2      3      4      5      6      7      8      9     10
         11     12     13     14     15     16     17     18     19     20
         21     22     23     24     25     26     27     28     29     30
 .........................................................................
   1  ****** ****** ****** ****** ****** ****** ****** ****** ****** ******
      ****** ****** ****** ****** ****** ****** ****** ****** ****** ******
      ****** ****** ****** ****** ****** ****** ****** ****** ****** ******
   2  ****** ****** ****** ****** ****** ****** ****** ****** ****** ******
      ****** ****** ****** ****** ****** ****** ****** ****** ****** ******
      ****** ****** ****** ****** ****** ****** ****** ****** ****** ******
   3  ****** ****** ****** ****** ****** ****** ****** ****** ****** ******
      ****** ****** ****** ****** ****** ****** ****** ****** ****** ******
      ****** ****** ****** ****** ****** ****** ****** ****** ****** ******
   4  ****** ****** ****** ****** ****** ****** ****** ****** ****** ******
      ****** ****** ****** ****** ****** ****** ****** ****** ****** ******
      ****** ****** ****** ****** ****** ****** ****** ****** ****** ******
   5  ****** ****** ****** ****** ****** ****** ****** ****** ****** ******
      ****** ****** ****** ****** ****** ****** ****** ****** ****** ******
      ****** ****** ****** ****** ****** ****** ****** ****** ****** ******
   6  ****** ****** ****** ****** ****** ****** ****** ****** ****** ******
      ****** ****** ****** ****** ****** ****** ****** ****** ****** ******
      ****** ****** ****** ****** ****** ****** ****** ****** ****** ******
   7  ****** ****** ****** ****** ****** ****** ****** ****** ****** ******
      ****** ****** ****** ****** ****** ****** ****** ****** ****** ******
      ****** ****** ****** ****** ****** ****** ****** ****** ****** ******
   8  ****** ****** ****** ****** ****** ****** ****** ****** ****** ******
      ****** ****** ****** ****** ****** ****** ****** ****** ****** ******
      ****** ****** ****** ****** ****** ****** ****** ****** ****** ******
   9  ****** ****** ****** ****** ****** ****** ****** ****** ****** ******
      ****** ****** ****** ****** ****** ****** ****** ****** ****** ******
      ****** ****** ****** ****** ****** ****** ****** ****** ****** ******
  10  ****** ****** ****** ****** ****** ****** ****** ****** ****** ******
      ****** ****** ****** ****** ****** ****** ****** ****** ****** ******
      ****** ****** ****** ****** ****** ****** ****** ****** ****** ******
  11  ****** ****** ****** ****** ****** ****** ****** ****** ****** ******
      ****** ****** ****** ****** ****** ****** ****** ****** ****** ******
      ****** ****** ****** ****** ****** ****** ****** ****** ****** ******
  12  ****** ****** ****** ****** ****** ****** ****** ****** ****** ******
      ****** ****** ****** ****** ****** ****** ****** ****** ****** ******
      ****** ****** ****** ****** ****** ****** ****** ****** ****** ******
  13  ****** ****** ****** ****** ****** ****** ****** ****** ****** ******
      ****** ****** ****** ****** ****** ****** ****** ****** ****** ******
      ****** ****** ****** ****** ****** ****** ****** ****** ****** ******
  14  ****** ****** ****** ****** ****** ****** ****** ****** ****** ******
      ****** ****** ****** ****** ****** ****** ****** ****** ****** ******
      ****** ****** ****** ****** ****** ****** ****** ****** ****** ******
  15  ****** ****** ****** ****** ****** ****** ****** ****** ****** ******
      ****** ****** ****** ****** ****** ****** ****** ****** ****** ******
      ****** ****** ****** ****** ****** ****** ****** ****** ****** ******
  16  ****** ****** ****** ****** ****** ****** ****** ****** ****** ******
      ****** ****** ****** ****** ****** ****** ****** ****** ****** ******
      ****** ****** ****** ****** ****** ****** ****** ****** ****** ******
  17  ****** ****** ****** ****** ****** ****** ****** ****** ****** ******
      ****** ****** ****** ****** ****** ****** ****** ****** ****** ******
      ****** ****** ****** ****** ****** ****** ****** ****** ****** ******
  18  ****** ****** ****** ****** ****** ****** ****** ****** ****** ******
      ****** ****** ****** ****** ****** ****** ****** ****** ****** ******
      ****** ****** ****** ****** ****** ****** ****** ****** ****** ******
  19  ****** ****** ****** ****** ****** ****** ****** ****** ****** ******
      ****** ****** ****** ****** ****** ****** ****** ****** ****** ******
      ****** ****** ****** ****** ****** ****** ****** ****** ****** ******
  20  ****** ****** ****** ****** ****** ****** ****** ****** ****** ******
      ****** ****** ****** ****** ****** ****** ****** ****** ****** ******
      ****** ****** ****** ****** ****** ****** ****** ****** ****** ******
  21  ****** ****** ****** ****** ****** ****** ****** ****** ****** ******
      ****** ****** ****** ****** ****** ****** ****** ****** ****** ******
      ****** ****** ****** ****** ****** ****** ****** ****** ****** ******
  22  ****** ****** ****** ****** ****** ****** ****** ****** ****** ******
      ****** ****** ****** ****** ****** ****** ****** ****** ****** ******
      ****** ****** ****** ****** ****** ****** ****** ****** ****** ******
  23  ****** ****** ****** ****** ****** ****** ****** ****** ****** ******
      ****** ****** ****** ****** ****** ****** ****** ****** ****** ******
      ****** ****** ****** ****** ****** ****** ****** ****** ****** ******
  24  ****** ****** ****** ****** ****** ****** ****** ****** ****** ******
      ****** ****** ****** ****** ****** ****** ****** ****** ****** ******
      ****** ****** ****** ****** ****** ****** ****** ****** ****** ******
  25  ****** ****** ****** ****** ****** ****** ****** ****** ****** ******
      ****** ****** ****** ****** ****** ****** ****** ****** ****** ******
      ****** ****** ****** ****** ****** ****** ****** ****** ****** ******

 HEAD WILL BE SAVED ON UNIT   51 AT END OF TIME STEP    1, STRESS PERIOD    2
1
  VOLUMETRIC BUDGET FOR ENTIRE MODEL AT END OF TIME STEP    1, STRESS PERIOD   2
  ------------------------------------------------------------------------------

     CUMULATIVE VOLUMES      L**3       RATES FOR THIS TIME STEP      L**3/T
     ------------------                 ------------------------

           IN:                                      IN:
           ---                                      ---
             STORAGE =    20316475.3409               STORAGE =       32617.1141
       CONSTANT HEAD =    27789086.5371         CONSTANT HEAD =      162067.6325
               WELLS =           0.0000                 WELLS =           0.0000
            RECHARGE =     6292800.0000              RECHARGE =       55200.0000
      STREAM LEAKAGE =     1058529.1714        STREAM LEAKAGE =        6474.0781

            TOTAL IN =    55456891.0495              TOTAL IN =      256358.8246

          OUT:                                     OUT:
          ----                                     ----
             STORAGE =           0.0000               STORAGE =           0.0000
       CONSTANT HEAD =           0.0000         CONSTANT HEAD =           0.0000
               WELLS =    18028389.3232                 WELLS =       98515.7887
            RECHARGE =           0.0000              RECHARGE =           0.0000
      STREAM LEAKAGE =    37428502.3159        STREAM LEAKAGE =      157843.0410

           TOTAL OUT =    55456891.6391             TOTAL OUT =      256358.8296

            IN - OUT =          -0.5896              IN - OUT =      -4.9704E-03

 PERCENT DISCREPANCY =          -0.00     PERCENT DISCREPANCY =          -0.00






         TIME SUMMARY AT END OF TIME STEP    1 IN STRESS PERIOD    2
                    SECONDS     MINUTES      HOURS       DAYS        YEARS
                    -----------------------------------------------------------
   TIME STEP LENGTH 7.86240E+06 1.31040E+05  2184.0      91.000     0.24914    
 STRESS PERIOD TIME 7.86240E+06 1.31040E+05  2184.0      91.000     0.24914    
         TOTAL TIME 1.58112E+07 2.63520E+05  4392.0      183.00     0.50103    
1
1
                            STRESS PERIOD NO.    3, LENGTH =   91.00000    
                            -----------------------------------------------

                              NUMBER OF TIME STEPS =     1

                               MULTIPLIER FOR DELT =     1.500

                            INITIAL TIME STEP SIZE =   91.00000    

 WELL NO.  LAYER   ROW   COL   STRESS RATE         
 --------------------------------------------------
      1      1     23     29     -0.3033E+05
      2      1     23      8     -0.3444E+05
      3      1     23     22     -0.3374E+05

      3 WELLS

                 RECHARGE =   0.00000    

 REUSING STREAM SEGMENT DATA FROM LAST STRESS PERIOD
 
 SOLVING FOR HEAD 


     7 CALLS TO PCG ROUTINE FOR TIME STEP   1 IN STRESS PERIOD    3
    27 TOTAL ITERATIONS

 OUTPUT CONTROL FOR STRESS PERIOD    3   TIME STEP    1
    SAVE BUDGET
    SAVE HEAD FOR ALL LAYERS
    PRINT HEAD FOR ALL LAYERS
 UBDSV2 SAVING "STREAMFLOW OUT  " ON UNIT  50 AT TIME STEP  1, STRESS PERIOD   3



 STREAM LISTING     PERIOD      3   STEP        1

 LAYER ROW COL. STREAM  RCH.  FLOW INTO     FLOW TO   FLOW OUT OF   OVRLND.     DIRECT     STREAM       STREAM     STREAM     STREAM   STREAMBED  STREAMBED
                SEG.NO.  NO.  STRM. RCH.    AQUIFER    STRM. RCH.    RUNOFF     PRECIP       ET          HEAD       DEPTH      WIDTH   CONDCTNC.   GRADIENT

   1   13    1     1     1    1.0000E+05 -2.8255E+03   1.0283E+05  0.000E+00  0.000E+00  0.000E+00  4.84072E+01  1.459E-01  2.000E+01  2.000E+04 -1.413E-01
   1   13    2     1     2    1.0283E+05 -4.8654E+03   1.0769E+05  0.000E+00  0.000E+00  0.000E+00  4.79333E+01  1.492E-01  2.000E+01  2.000E+04 -2.433E-01
   1   14    3     1     3    1.0769E+05 -3.6960E+03   1.1139E+05  0.000E+00  0.000E+00  0.000E+00  4.74596E+01  1.528E-01  2.000E+01  2.000E+04 -1.848E-01
   1   15    4     1     4    1.1139E+05 -3.4001E+03   1.1479E+05  0.000E+00  0.000E+00  0.000E+00  4.69853E+01  1.557E-01  2.000E+01  2.000E+04 -1.700E-01
   1   16    5     1     5    1.1479E+05 -3.2537E+03   1.1804E+05  0.000E+00  0.000E+00  0.000E+00  4.65107E+01  1.585E-01  2.000E+01  2.000E+04 -1.627E-01
   1   16    6     1     6    1.1804E+05 -2.5923E+03   1.2063E+05  0.000E+00  0.000E+00  0.000E+00  4.60358E+01  1.608E-01  2.000E+01  2.000E+04 -1.296E-01
   1   16    7     1     7    1.2063E+05 -2.6298E+03   1.2326E+05  0.000E+00  0.000E+00  0.000E+00  4.55607E+01  1.629E-01  2.000E+01  2.000E+04 -1.315E-01
   1   16    8     1     8    1.2326E+05 -2.6593E+03   1.2592E+05  0.000E+00  0.000E+00  0.000E+00  4.50855E+01  1.651E-01  2.000E+01  2.000E+04 -1.330E-01
   1   16    9     1     9    1.2592E+05 -2.6869E+03   1.2861E+05  0.000E+00  0.000E+00  0.000E+00  4.46103E+01  1.672E-01  2.000E+01  2.000E+04 -1.343E-01
   1   16   10     1    10    1.2861E+05 -2.7071E+03   1.3132E+05  0.000E+00  0.000E+00  0.000E+00  4.41352E+01  1.693E-01  2.000E+01  2.000E+04 -1.354E-01
   1   16   11     1    11    1.3132E+05 -2.7179E+03   1.3403E+05  0.000E+00  0.000E+00  0.000E+00  4.36600E+01  1.714E-01  2.000E+01  2.000E+04 -1.359E-01
   1   16   12     1    12    1.3403E+05 -3.5932E+03   1.3763E+05  0.000E+00  0.000E+00  0.000E+00  4.31852E+01  1.738E-01  2.000E+01  2.000E+04 -1.797E-01
   1   15   13     1    13    1.3763E+05 -3.6582E+03   1.4129E+05  0.000E+00  0.000E+00  0.000E+00  4.27107E+01  1.766E-01  2.000E+01  2.000E+04 -1.829E-01
   1   14   14     1    14    1.4129E+05 -3.8553E+03   1.4514E+05  0.000E+00  0.000E+00  0.000E+00  4.22363E+01  1.794E-01  2.000E+01  2.000E+04 -1.928E-01
   1   13   15     1    15    1.4514E+05 -4.2343E+03   1.4938E+05  0.000E+00  0.000E+00  0.000E+00  4.17620E+01  1.825E-01  2.000E+01  2.000E+04 -2.117E-01
   1   12   16     1    16    1.4938E+05 -5.5425E+03   1.5492E+05  0.000E+00  0.000E+00  0.000E+00  4.12883E+01  1.861E-01  2.000E+01  2.000E+04 -2.771E-01
   1   12   17     1    17    1.5492E+05 -3.5696E+03   1.5849E+05  0.000E+00  0.000E+00  0.000E+00  4.08144E+01  1.894E-01  2.000E+01  2.000E+04 -1.785E-01
   1   12   18     1    18    1.5849E+05 -3.4128E+03   1.6190E+05  0.000E+00  0.000E+00  0.000E+00  4.03396E+01  1.919E-01  2.000E+01  2.000E+04 -1.706E-01
   1   12   19     1    19    1.6190E+05 -4.4910E+03   1.6639E+05  0.000E+00  0.000E+00  0.000E+00  3.98652E+01  1.947E-01  2.000E+01  2.000E+04 -2.246E-01
   1   13   20     1    20    1.6639E+05 -2.7677E+03   1.6916E+05  0.000E+00  0.000E+00  0.000E+00  3.93905E+01  1.973E-01  2.000E+01  2.000E+04 -1.384E-01
   1   14   21     1    21    1.6916E+05 -1.7478E+03   1.7091E+05  0.000E+00  0.000E+00  0.000E+00  3.89148E+01  1.989E-01  2.000E+01  2.000E+04 -8.739E-02
   1   14   22     1    22    1.7091E+05  5.1314E+03   1.6578E+05  0.000E+00  0.000E+00  0.000E+00  3.84364E+01  1.977E-01  2.000E+01  2.000E+04  2.566E-01
   1    9   30     2     1    5.0000E+04 -2.6884E+03   5.2688E+04  0.000E+00  0.000E+00  0.000E+00  4.02427E+01  1.177E-01  2.000E+01  2.000E+04 -1.344E-01
   1    9   29     2     2    5.2688E+04 -3.0228E+03   5.5711E+04  0.000E+00  0.000E+00  0.000E+00  3.99966E+01  1.216E-01  2.000E+01  2.000E+04 -1.511E-01
   1    9   28     2     3    5.5711E+04 -3.4101E+03   5.9121E+04  0.000E+00  0.000E+00  0.000E+00  3.97509E+01  1.259E-01  2.000E+01  2.000E+04 -1.705E-01
   1    9   27     2     4    5.9121E+04 -6.1560E+03   6.5277E+04  0.000E+00  0.000E+00  0.000E+00  3.95071E+01  1.321E-01  2.000E+01  2.000E+04 -3.078E-01
   1   10   26     2     5    6.5277E+04 -3.7665E+03   6.9044E+04  0.000E+00  0.000E+00  0.000E+00  3.92633E+01  1.383E-01  2.000E+01  2.000E+04 -1.883E-01
   1   11   25     2     6    6.9044E+04 -2.7195E+03   7.1763E+04  0.000E+00  0.000E+00  0.000E+00  3.90173E+01  1.423E-01  2.000E+01  2.000E+04 -1.360E-01
   1   12   24     2     7    7.1763E+04 -1.8718E+03   7.3635E+04  0.000E+00  0.000E+00  0.000E+00  3.87700E+01  1.450E-01  2.000E+01  2.000E+04 -9.359E-02
   1   13   23     2     8    7.3635E+04 -1.0539E+03   7.4689E+04  0.000E+00  0.000E+00  0.000E+00  3.85218E+01  1.468E-01  2.000E+01  2.000E+04 -5.270E-02
   1   14   22     2     9    7.4689E+04  1.8309E+03   7.2858E+04  0.000E+00  0.000E+00  0.000E+00  3.82713E+01  1.463E-01  2.000E+01  2.000E+04  9.154E-02
   1   14   22     3     1    2.3863E+05 -8.3965E+03   2.4703E+05  0.000E+00  0.000E+00  0.000E+00  3.77600E+01  2.044E-01  2.000E+01  2.000E+04 -4.198E-01
   1   15   23     3     2    2.4703E+05 -1.9983E+03   2.4903E+05  0.000E+00  0.000E+00  0.000E+00  3.68737E+01  2.070E-01  2.000E+01  2.000E+04 -9.992E-02
   1   15   24     3     3    2.4903E+05 -1.3796E+03   2.5041E+05  0.000E+00  0.000E+00  0.000E+00  3.59856E+01  2.079E-01  2.000E+01  2.000E+04 -6.898E-02
   1   15   25     3     4    2.5041E+05 -1.3404E+03   2.5175E+05  0.000E+00  0.000E+00  0.000E+00  3.50974E+01  2.085E-01  2.000E+01  2.000E+04 -6.702E-02
   1   15   26     3     5    2.5175E+05 -1.8249E+03   2.5357E+05  0.000E+00  0.000E+00  0.000E+00  3.42093E+01  2.093E-01  2.000E+01  2.000E+04 -9.124E-02
   1   16   27     3     6    2.5357E+05 -2.1777E+03   2.5575E+05  0.000E+00  0.000E+00  0.000E+00  3.33214E+01  2.103E-01  2.000E+01  2.000E+04 -1.089E-01
   1   17   28     3     7    2.5575E+05 -2.4037E+03   2.5815E+05  0.000E+00  0.000E+00  0.000E+00  3.24337E+01  2.115E-01  2.000E+01  2.000E+04 -1.202E-01
   1   18   29     3     8    2.5815E+05 -2.5815E+03   2.6074E+05  0.000E+00  0.000E+00  0.000E+00  3.15460E+01  2.127E-01  2.000E+01  2.000E+04 -1.291E-01
   1   18   30     3     9    2.6074E+05 -2.5397E+03   2.6328E+05  0.000E+00  0.000E+00  0.000E+00  3.06584E+01  2.139E-01  2.000E+01  2.000E+04 -1.270E-01



1
              HEAD IN LAYER   1 AT END OF TIME STEP   1 IN STRESS PERIOD    3
  ---------------------------------------------------------------------------

          1      2      3      4      5      6      7      8      9     10
         11     12     13     14     15     16     17     18     19     20
         21     22     23     24     25     26     27     28     29     30
 .........................................................................
   1  ****** ****** ****** ****** ****** ****** ****** ****** ****** ******
      ****** ****** ****** ****** ****** ****** ****** ****** ****** ******
      ****** ****** ****** ****** ****** ****** ****** ****** ****** ******
   2  ****** ****** ****** ****** ****** ****** ****** ****** ****** ******
      ****** ****** ****** ****** ****** ****** ****** ****** ****** ******
      ****** ****** ****** ****** ****** ****** ****** ****** ****** ******
   3  ****** ****** ****** ****** ****** ****** ****** ****** ****** ******
      ****** ****** ****** ****** ****** ****** ****** ****** ****** ******
      ****** ****** ****** ****** ****** ****** ****** ****** ****** ******
   4  ****** ****** ****** ****** ****** ****** ****** ****** ****** ******
      ****** ****** ****** ****** ****** ****** ****** ****** ****** ******
      ****** ****** ****** ****** ****** ****** ****** ****** ****** ******
   5  ****** ****** ****** ****** ****** ****** ****** ****** ****** ******
      ****** ****** ****** ****** ****** ****** ****** ****** ****** ******
      ****** ****** ****** ****** ****** ****** ****** ****** ****** ******
   6  ****** ****** ****** ****** ****** ****** ****** ****** ****** ******
      ****** ****** ****** ****** ****** ****** ****** ****** ****** ******
      ****** ****** ****** ****** ****** ****** ****** ****** ****** ******
   7  ****** ****** ****** ****** ****** ****** ****** ****** ****** ******
      ****** ****** ****** ****** ****** ****** ****** ****** ****** ******
      ****** ****** ****** ****** ****** ****** ****** ****** ****** ******
   8  ****** ****** ****** ****** ****** ****** ****** ****** ****** ******
      ****** ****** ****** ****** ****** ****** ****** ****** ****** ******
      ****** ****** ****** ****** ****** ****** ****** ****** ****** ******
   9  ****** ****** ****** ****** ****** ****** ****** ****** ****** ******
      ****** ****** ****** ****** ****** ****** ****** ****** ****** ******
      ****** ****** ****** ****** ****** ****** ****** ****** ****** ******
  10  ****** ****** ****** ****** ****** ****** ****** ****** ****** ******
      ****** ****** ****** ****** ****** ****** ****** ****** ****** ******
      ****** ****** ****** ****** ****** ****** ****** ****** ****** ******
  11  ****** ****** ****** ****** ****** ****** ****** ****** ****** ******
      ****** ****** ****** ****** ****** ****** ****** ****** ****** ******
      ****** ****** ****** ****** ****** ****** ****** ****** ****** ******
  12  ****** ****** ****** ****** ****** ****** ****** ****** ****** ******
      ****** ****** ****** ****** ****** ****** ****** ****** ****** ******
      ****** ****** ****** ****** ****** ****** ****** ****** ****** ******
  13  ****** ****** ****** ****** ****** ****** ****** ****** ****** ******
      ****** ****** ****** ****** ****** ****** ****** ****** ****** ******
      ****** ****** ****** ****** ****** ****** ****** ****** ****** ******
  14  ****** ****** ****** ****** ****** ****** ****** ****** ****** ******
      ****** ****** ****** ****** ****** ****** ****** ****** ****** ******
      ****** ****** ****** ****** ****** ****** ****** ****** ****** ******
  15  ****** ****** ****** ****** ****** ****** ****** ****** ****** ******
      ****** ****** ****** ****** ****** ****** ****** ****** ****** ******
      ****** ****** ****** ****** ****** ****** ****** ****** ****** ******
  16  ****** ****** ****** ****** ****** ****** ****** ****** ****** ******
      ****** ****** ****** ****** ****** ****** ****** ****** ****** ******
      ****** ****** ****** ****** ****** ****** ****** ****** ****** ******
  17  ****** ****** ****** ****** ****** ****** ****** ****** ****** ******
      ****** ****** ****** ****** ****** ****** ****** ****** ****** ******
      ****** ****** ****** ****** ****** ****** ****** ****** ****** ******
  18  ****** ****** ****** ****** ****** ****** ****** ****** ****** ******
      ****** ****** ****** ****** ****** ****** ****** ****** ****** ******
      ****** ****** ****** ****** ****** ****** ****** ****** ****** ******
  19  ****** ****** ****** ****** ****** ****** ****** ****** ****** ******
      ****** ****** ****** ****** ****** ****** ****** ****** ****** ******
      ****** ****** ****** ****** ****** ****** ****** ****** ****** ******
  20  ****** ****** ****** ****** ****** ****** ****** ****** ****** ******
      ****** ****** ****** ****** ****** ****** ****** ****** ****** ******
      ****** ****** ****** ****** ****** ****** ****** ****** ****** ******
  21  ****** ****** ****** ****** ****** ****** ****** ****** ****** ******
      ****** ****** ****** ****** ****** ****** ****** ****** ****** ******
      ****** ****** ****** ****** ****** ****** ****** ****** ****** ******
  22  ****** ****** ****** ****** ****** ****** ****** ****** ****** ******
      ****** ****** ****** ****** ****** ****** ****** ****** ****** ******
      ****** ****** ****** ****** ****** ****** ****** ****** ****** ******
  23  ****** ****** ****** ****** ****** ****** ****** ****** ****** ******
      ****** ****** ****** ****** ****** ****** ****** ****** ****** ******
      ****** ****** ****** ****** ****** ****** ****** ****** ****** ******
  24  ****** ****** ****** ****** ****** ****** ****** ****** ****** ******
      ****** ****** ****** ****** ****** ****** ****** ****** ****** ******
      ****** ****** ****** ****** ****** ****** ****** ****** ****** ******
  25  ****** ****** ****** ****** ****** ****** ****** ****** ****** ******
      ****** ****** ****** ****** ****** ****** ****** ****** ****** ******
      ****** ****** ****** ****** ****** ****** ****** ****** ****** ******

 HEAD WILL BE SAVED ON UNIT   51 AT END OF TIME STEP    1, STRESS PERIOD    3
1
  VOLUMETRIC BUDGET FOR ENTIRE MODEL AT END OF TIME STEP    1, STRESS PERIOD   3
  ------------------------------------------------------------------------------

     CUMULATIVE VOLUMES      L**3       RATES FOR THIS TIME STEP      L**3/T
     ------------------                 ------------------------

           IN:                                      IN:
           ---                                      ---
             STORAGE =    22671617.4307               STORAGE =       25880.6823
       CONSTANT HEAD =    44706952.4954         CONSTANT HEAD =      185910.6149
               WELLS =           0.0000                 WELLS =           0.0000
            RECHARGE =     6292800.0000              RECHARGE =           0.0000
      STREAM LEAKAGE =     1692098.1589        STREAM LEAKAGE =        6962.2966

            TOTAL IN =    75363468.0850              TOTAL IN =      218753.5938

          OUT:                                     OUT:
          ----                                     ----
             STORAGE =           0.0000               STORAGE =           0.0000
       CONSTANT HEAD =           0.0000         CONSTANT HEAD =           0.0000
               WELLS =    26993326.0904                 WELLS =       98515.7887
            RECHARGE =           0.0000              RECHARGE =           0.0000
      STREAM LEAKAGE =    48370142.8191        STREAM LEAKAGE =      120237.8077

           TOTAL OUT =    75363468.9095             TOTAL OUT =      218753.5964

            IN - OUT =          -0.8245              IN - OUT =      -2.5820E-03

 PERCENT DISCREPANCY =          -0.00     PERCENT DISCREPANCY =          -0.00






         TIME SUMMARY AT END OF TIME STEP    1 IN STRESS PERIOD    3
                    SECONDS     MINUTES      HOURS       DAYS        YEARS
                    -----------------------------------------------------------
   TIME STEP LENGTH 7.86240E+06 1.31040E+05  2184.0      91.000     0.24914    
 STRESS PERIOD TIME 7.86240E+06 1.31040E+05  2184.0      91.000     0.24914    
         TOTAL TIME 2.36736E+07 3.94560E+05  6576.0      274.00     0.75017    
1
1
                            STRESS PERIOD NO.    4, LENGTH =   91.00000    
                            -----------------------------------------------

                              NUMBER OF TIME STEPS =     1

                               MULTIPLIER FOR DELT =     1.500

                            INITIAL TIME STEP SIZE =   91.00000    

 WELL NO.  LAYER   ROW   COL   STRESS RATE         
 --------------------------------------------------
      1      1     23     29     -0.3033E+05
      2      1     23      8     -0.3444E+05
      3      1     23     22     -0.3374E+05

      3 WELLS

                 RECHARGE =  1.000000E-03

 REUSING STREAM SEGMENT DATA FROM LAST STRESS PERIOD
 
 SOLVING FOR HEAD 


     6 CALLS TO PCG ROUTINE FOR TIME STEP   1 IN STRESS PERIOD    4
    21 TOTAL ITERATIONS

 OUTPUT CONTROL FOR STRESS PERIOD    4   TIME STEP    1
    SAVE BUDGET
    SAVE HEAD FOR ALL LAYERS
    PRINT HEAD FOR ALL LAYERS
 UBDSV2 SAVING "STREAMFLOW OUT  " ON UNIT  50 AT TIME STEP  1, STRESS PERIOD   4



 STREAM LISTING     PERIOD      4   STEP        1

 LAYER ROW COL. STREAM  RCH.  FLOW INTO     FLOW TO   FLOW OUT OF   OVRLND.     DIRECT     STREAM       STREAM     STREAM     STREAM   STREAMBED  STREAMBED
                SEG.NO.  NO.  STRM. RCH.    AQUIFER    STRM. RCH.    RUNOFF     PRECIP       ET          HEAD       DEPTH      WIDTH   CONDCTNC.   GRADIENT

   1   13    1     1     1    1.0000E+05 -2.8441E+03   1.0284E+05  0.000E+00  0.000E+00  0.000E+00  4.84072E+01  1.459E-01  2.000E+01  2.000E+04 -1.422E-01
   1   13    2     1     2    1.0284E+05 -4.8560E+03   1.0770E+05  0.000E+00  0.000E+00  0.000E+00  4.79333E+01  1.492E-01  2.000E+01  2.000E+04 -2.428E-01
   1   14    3     1     3    1.0770E+05 -3.7351E+03   1.1144E+05  0.000E+00  0.000E+00  0.000E+00  4.74596E+01  1.528E-01  2.000E+01  2.000E+04 -1.868E-01
   1   15    4     1     4    1.1144E+05 -3.4515E+03   1.1489E+05  0.000E+00  0.000E+00  0.000E+00  4.69853E+01  1.558E-01  2.000E+01  2.000E+04 -1.726E-01
   1   16    5     1     5    1.1489E+05 -3.3041E+03   1.1819E+05  0.000E+00  0.000E+00  0.000E+00  4.65108E+01  1.586E-01  2.000E+01  2.000E+04 -1.652E-01
   1   16    6     1     6    1.1819E+05 -2.6325E+03   1.2082E+05  0.000E+00  0.000E+00  0.000E+00  4.60360E+01  1.610E-01  2.000E+01  2.000E+04 -1.316E-01
   1   16    7     1     7    1.2082E+05 -2.6669E+03   1.2349E+05  0.000E+00  0.000E+00  0.000E+00  4.55608E+01  1.631E-01  2.000E+01  2.000E+04 -1.333E-01
   1   16    8     1     8    1.2349E+05 -2.6943E+03   1.2618E+05  0.000E+00  0.000E+00  0.000E+00  4.50857E+01  1.652E-01  2.000E+01  2.000E+04 -1.347E-01
   1   16    9     1     9    1.2618E+05 -2.7212E+03   1.2891E+05  0.000E+00  0.000E+00  0.000E+00  4.46106E+01  1.674E-01  2.000E+01  2.000E+04 -1.361E-01
   1   16   10     1    10    1.2891E+05 -2.7416E+03   1.3165E+05  0.000E+00  0.000E+00  0.000E+00  4.41354E+01  1.695E-01  2.000E+01  2.000E+04 -1.371E-01
   1   16   11     1    11    1.3165E+05 -2.7523E+03   1.3440E+05  0.000E+00  0.000E+00  0.000E+00  4.36603E+01  1.717E-01  2.000E+01  2.000E+04 -1.376E-01
   1   16   12     1    12    1.3440E+05 -3.6211E+03   1.3802E+05  0.000E+00  0.000E+00  0.000E+00  4.31855E+01  1.741E-01  2.000E+01  2.000E+04 -1.811E-01
   1   15   13     1    13    1.3802E+05 -3.6891E+03   1.4171E+05  0.000E+00  0.000E+00  0.000E+00  4.27110E+01  1.769E-01  2.000E+01  2.000E+04 -1.845E-01
   1   14   14     1    14    1.4171E+05 -3.8822E+03   1.4559E+05  0.000E+00  0.000E+00  0.000E+00  4.22366E+01  1.798E-01  2.000E+01  2.000E+04 -1.941E-01
   1   13   15     1    15    1.4559E+05 -4.2602E+03   1.4985E+05  0.000E+00  0.000E+00  0.000E+00  4.17624E+01  1.828E-01  2.000E+01  2.000E+04 -2.130E-01
   1   12   16     1    16    1.4985E+05 -5.5471E+03   1.5540E+05  0.000E+00  0.000E+00  0.000E+00  4.12887E+01  1.864E-01  2.000E+01  2.000E+04 -2.774E-01
   1   12   17     1    17    1.5540E+05 -3.6020E+03   1.5900E+05  0.000E+00  0.000E+00  0.000E+00  4.08148E+01  1.898E-01  2.000E+01  2.000E+04 -1.801E-01
   1   12   18     1    18    1.5900E+05 -3.4531E+03   1.6245E+05  0.000E+00  0.000E+00  0.000E+00  4.03400E+01  1.923E-01  2.000E+01  2.000E+04 -1.727E-01
   1   12   19     1    19    1.6245E+05 -4.5481E+03   1.6700E+05  0.000E+00  0.000E+00  0.000E+00  3.98656E+01  1.952E-01  2.000E+01  2.000E+04 -2.274E-01
   1   13   20     1    20    1.6700E+05 -2.8463E+03   1.6985E+05  0.000E+00  0.000E+00  0.000E+00  3.93910E+01  1.978E-01  2.000E+01  2.000E+04 -1.423E-01
   1   14   21     1    21    1.6985E+05 -1.7947E+03   1.7164E+05  0.000E+00  0.000E+00  0.000E+00  3.89153E+01  1.994E-01  2.000E+01  2.000E+04 -8.973E-02
   1   14   22     1    22    1.7164E+05  5.1007E+03   1.6654E+05  0.000E+00  0.000E+00  0.000E+00  3.84369E+01  1.982E-01  2.000E+01  2.000E+04  2.550E-01
   1    9   30     2     1    5.0000E+04 -2.8006E+03   5.2801E+04  0.000E+00  0.000E+00  0.000E+00  4.02428E+01  1.178E-01  2.000E+01  2.000E+04 -1.400E-01
   1    9   29     2     2    5.2801E+04 -3.1334E+03   5.5934E+04  0.000E+00  0.000E+00  0.000E+00  3.99968E+01  1.218E-01  2.000E+01  2.000E+04 -1.567E-01
   1    9   28     2     3    5.5934E+04 -3.5166E+03   5.9451E+04  0.000E+00  0.000E+00  0.000E+00  3.97513E+01  1.263E-01  2.000E+01  2.000E+04 -1.758E-01
   1    9   27     2     4    5.9451E+04 -6.2667E+03   6.5717E+04  0.000E+00  0.000E+00  0.000E+00  3.95076E+01  1.326E-01  2.000E+01  2.000E+04 -3.133E-01
   1   10   26     2     5    6.5717E+04 -3.8954E+03   6.9613E+04  0.000E+00  0.000E+00  0.000E+00  3.92639E+01  1.389E-01  2.000E+01  2.000E+04 -1.948E-01
   1   11   25     2     6    6.9613E+04 -2.8493E+03   7.2462E+04  0.000E+00  0.000E+00  0.000E+00  3.90180E+01  1.430E-01  2.000E+01  2.000E+04 -1.425E-01
   1   12   24     2     7    7.2462E+04 -1.9987E+03   7.4461E+04  0.000E+00  0.000E+00  0.000E+00  3.87710E+01  1.460E-01  2.000E+01  2.000E+04 -9.994E-02
   1   13   23     2     8    7.4461E+04 -1.1678E+03   7.5629E+04  0.000E+00  0.000E+00  0.000E+00  3.85228E+01  1.478E-01  2.000E+01  2.000E+04 -5.839E-02
   1   14   22     2     9    7.5629E+04  1.8120E+03   7.3816E+04  0.000E+00  0.000E+00  0.000E+00  3.82724E+01  1.474E-01  2.000E+01  2.000E+04  9.060E-02
   1   14   22     3     1    2.4036E+05 -8.4203E+03   2.4878E+05  0.000E+00  0.000E+00  0.000E+00  3.77608E+01  2.053E-01  2.000E+01  2.000E+04 -4.210E-01
   1   15   23     3     2    2.4878E+05 -2.0374E+03   2.5082E+05  0.000E+00  0.000E+00  0.000E+00  3.68746E+01  2.079E-01  2.000E+01  2.000E+04 -1.019E-01
   1   15   24     3     3    2.5082E+05 -1.4423E+03   2.5226E+05  0.000E+00  0.000E+00  0.000E+00  3.59865E+01  2.088E-01  2.000E+01  2.000E+04 -7.212E-02
   1   15   25     3     4    2.5226E+05 -1.4193E+03   2.5368E+05  0.000E+00  0.000E+00  0.000E+00  3.50984E+01  2.095E-01  2.000E+01  2.000E+04 -7.097E-02
   1   15   26     3     5    2.5368E+05 -1.9425E+03   2.5562E+05  0.000E+00  0.000E+00  0.000E+00  3.42103E+01  2.103E-01  2.000E+01  2.000E+04 -9.712E-02
   1   16   27     3     6    2.5562E+05 -2.2912E+03   2.5791E+05  0.000E+00  0.000E+00  0.000E+00  3.33225E+01  2.114E-01  2.000E+01  2.000E+04 -1.146E-01
   1   17   28     3     7    2.5791E+05 -2.5111E+03   2.6042E+05  0.000E+00  0.000E+00  0.000E+00  3.24348E+01  2.125E-01  2.000E+01  2.000E+04 -1.256E-01
   1   18   29     3     8    2.6042E+05 -2.6625E+03   2.6309E+05  0.000E+00  0.000E+00  0.000E+00  3.15471E+01  2.138E-01  2.000E+01  2.000E+04 -1.331E-01
   1   18   30     3     9    2.6309E+05 -2.6248E+03   2.6571E+05  0.000E+00  0.000E+00  0.000E+00  3.06596E+01  2.151E-01  2.000E+01  2.000E+04 -1.312E-01



1
              HEAD IN LAYER   1 AT END OF TIME STEP   1 IN STRESS PERIOD    4
  ---------------------------------------------------------------------------

          1      2      3      4      5      6      7      8      9     10
         11     12     13     14     15     16     17     18     19     20
         21     22     23     24     25     26     27     28     29     30
 .........................................................................
   1  ****** ****** ****** ****** ****** ****** ****** ****** ****** ******
      ****** ****** ****** ****** ****** ****** ****** ****** ****** ******
      ****** ****** ****** ****** ****** ****** ****** ****** ****** ******
   2  ****** ****** ****** ****** ****** ****** ****** ****** ****** ******
      ****** ****** ****** ****** ****** ****** ****** ****** ****** ******
      ****** ****** ****** ****** ****** ****** ****** ****** ****** ******
   3  ****** ****** ****** ****** ****** ****** ****** ****** ****** ******
      ****** ****** ****** ****** ****** ****** ****** ****** ****** ******
      ****** ****** ****** ****** ****** ****** ****** ****** ****** ******
   4  ****** ****** ****** ****** ****** ****** ****** ****** ****** ******
      ****** ****** ****** ****** ****** ****** ****** ****** ****** ******
      ****** ****** ****** ****** ****** ****** ****** ****** ****** ******
   5  ****** ****** ****** ****** ****** ****** ****** ****** ****** ******
      ****** ****** ****** ****** ****** ****** ****** ****** ****** ******
      ****** ****** ****** ****** ****** ****** ****** ****** ****** ******
   6  ****** ****** ****** ****** ****** ****** ****** ****** ****** ******
      ****** ****** ****** ****** ****** ****** ****** ****** ****** ******
      ****** ****** ****** ****** ****** ****** ****** ****** ****** ******
   7  ****** ****** ****** ****** ****** ****** ****** ****** ****** ******
      ****** ****** ****** ****** ****** ****** ****** ****** ****** ******
      ****** ****** ****** ****** ****** ****** ****** ****** ****** ******
   8  ****** ****** ****** ****** ****** ****** ****** ****** ****** ******
      ****** ****** ****** ****** ****** ****** ****** ****** ****** ******
      ****** ****** ****** ****** ****** ****** ****** ****** ****** ******
   9  ****** ****** ****** ****** ****** ****** ****** ****** ****** ******
      ****** ****** ****** ****** ****** ****** ****** ****** ****** ******
      ****** ****** ****** ****** ****** ****** ****** ****** ****** ******
  10  ****** ****** ****** ****** ****** ****** ****** ****** ****** ******
      ****** ****** ****** ****** ****** ****** ****** ****** ****** ******
      ****** ****** ****** ****** ****** ****** ****** ****** ****** ******
  11  ****** ****** ****** ****** ****** ****** ****** ****** ****** ******
      ****** ****** ****** ****** ****** ****** ****** ****** ****** ******
      ****** ****** ****** ****** ****** ****** ****** ****** ****** ******
  12  ****** ****** ****** ****** ****** ****** ****** ****** ****** ******
      ****** ****** ****** ****** ****** ****** ****** ****** ****** ******
      ****** ****** ****** ****** ****** ****** ****** ****** ****** ******
  13  ****** ****** ****** ****** ****** ****** ****** ****** ****** ******
      ****** ****** ****** ****** ****** ****** ****** ****** ****** ******
      ****** ****** ****** ****** ****** ****** ****** ****** ****** ******
  14  ****** ****** ****** ****** ****** ****** ****** ****** ****** ******
      ****** ****** ****** ****** ****** ****** ****** ****** ****** ******
      ****** ****** ****** ****** ****** ****** ****** ****** ****** ******
  15  ****** ****** ****** ****** ****** ****** ****** ****** ****** ******
      ****** ****** ****** ****** ****** ****** ****** ****** ****** ******
      ****** ****** ****** ****** ****** ****** ****** ****** ****** ******
  16  ****** ****** ****** ****** ****** ****** ****** ****** ****** ******
      ****** ****** ****** ****** ****** ****** ****** ****** ****** ******
      ****** ****** ****** ****** ****** ****** ****** ****** ****** ******
  17  ****** ****** ****** ****** ****** ****** ****** ****** ****** ******
      ****** ****** ****** ****** ****** ****** ****** ****** ****** ******
      ****** ****** ****** ****** ****** ****** ****** ****** ****** ******
  18  ****** ****** ****** ****** ****** ****** ****** ****** ****** ******
      ****** ****** ****** ****** ****** ****** ****** ****** ****** ******
      ****** ****** ****** ****** ****** ****** ****** ****** ****** ******
  19  ****** ****** ****** ****** ****** ****** ****** ****** ****** ******
      ****** ****** ****** ****** ****** ****** ****** ****** ****** ******
      ****** ****** ****** ****** ****** ****** ****** ****** ****** ******
  20  ****** ****** ****** ****** ****** ****** ****** ****** ****** ******
      ****** ****** ****** ****** ****** ****** ****** ****** ****** ******
      ****** ****** ****** ****** ****** ****** ****** ****** ****** ******
  21  ****** ****** ****** ****** ****** ****** ****** ****** ****** ******
      ****** ****** ****** ****** ****** ****** ****** ****** ****** ******
      ****** ****** ****** ****** ****** ****** ****** ****** ****** ******
  22  ****** ****** ****** ****** ****** ****** ****** ****** ****** ******
      ****** ****** ****** ****** ****** ****** ****** ****** ****** ******
      ****** ****** ****** ****** ****** ****** ****** ****** ****** ******
  23  ****** ****** ****** ****** ****** ****** ****** ****** ****** ******
      ****** ****** ****** ****** ****** ****** ****** ****** ****** ******
      ****** ****** ****** ****** ****** ****** ****** ****** ****** ******
  24  ****** ****** ****** ****** ****** ****** ****** ****** ****** ******
      ****** ****** ****** ****** ****** ****** ****** ****** ****** ******
      ****** ****** ****** ****** ****** ****** ****** ****** ****** ******
  25  ****** ****** ****** ****** ****** ****** ****** ****** ****** ******
      ****** ****** ****** ****** ****** ****** ****** ****** ****** ******
      ****** ****** ****** ****** ****** ****** ****** ****** ****** ******

 HEAD WILL BE SAVED ON UNIT   51 AT END OF TIME STEP    1, STRESS PERIOD    4
1
  VOLUMETRIC BUDGET FOR ENTIRE MODEL AT END OF TIME STEP    1, STRESS PERIOD   4
  ------------------------------------------------------------------------------

     CUMULATIVE VOLUMES      L**3       RATES FOR THIS TIME STEP      L**3/T
     ------------------                 ------------------------

           IN:                                      IN:
           ---                                      ---
             STORAGE =    22798133.5492               STORAGE =        1390.2870
       CONSTANT HEAD =    61583492.7809         CONSTANT HEAD =      185456.4867
               WELLS =           0.0000                 WELLS =           0.0000
            RECHARGE =     8804400.0000              RECHARGE =       27600.0000
      STREAM LEAKAGE =     2321153.7392        STREAM LEAKAGE =        6912.6987

            TOTAL IN =    95507180.0692              TOTAL IN =      221359.4724

          OUT:                                     OUT:
          ----                                     ----
             STORAGE =       20078.9737               STORAGE =         220.6481
       CONSTANT HEAD =           0.0000         CONSTANT HEAD =           0.0000
               WELLS =    35958262.8577                 WELLS =       98515.7887
            RECHARGE =           0.0000              RECHARGE =           0.0000
      STREAM LEAKAGE =    59528838.9033        STREAM LEAKAGE =      122623.0339

           TOTAL OUT =    95507180.7347             TOTAL OUT =      221359.4706

            IN - OUT =          -0.6654              IN - OUT =       1.7486E-03

 PERCENT DISCREPANCY =          -0.00     PERCENT DISCREPANCY =           0.00






         TIME SUMMARY AT END OF TIME STEP    1 IN STRESS PERIOD    4
                    SECONDS     MINUTES      HOURS       DAYS        YEARS
                    -----------------------------------------------------------
   TIME STEP LENGTH 7.86240E+06 1.31040E+05  2184.0      91.000     0.24914    
 STRESS PERIOD TIME 7.86240E+06 1.31040E+05  2184.0      91.000     0.24914    
         TOTAL TIME 3.15360E+07 5.25600E+05  8760.0      365.00     0.99932    
1
1
                            STRESS PERIOD NO.    5, LENGTH =   92.00000    
                            -----------------------------------------------

                              NUMBER OF TIME STEPS =     1

                               MULTIPLIER FOR DELT =     1.500

                            INITIAL TIME STEP SIZE =   92.00000    

 WELL NO.  LAYER   ROW   COL   STRESS RATE         
 --------------------------------------------------
      1      1     23     29     -0.3033E+05
      2      1     23      8     -0.3444E+05
      3      1     23     22     -0.3374E+05

      3 WELLS

                 RECHARGE =  5.000000E-04

 REUSING STREAM SEGMENT DATA FROM LAST STRESS PERIOD
 
 SOLVING FOR HEAD 


     6 CALLS TO PCG ROUTINE FOR TIME STEP   1 IN STRESS PERIOD    5
    23 TOTAL ITERATIONS

 OUTPUT CONTROL FOR STRESS PERIOD    5   TIME STEP    1
    SAVE BUDGET
    SAVE HEAD FOR ALL LAYERS
    PRINT HEAD FOR ALL LAYERS
 UBDSV2 SAVING "STREAMFLOW OUT  " ON UNIT  50 AT TIME STEP  1, STRESS PERIOD   5



 STREAM LISTING     PERIOD      5   STEP        1

 LAYER ROW COL. STREAM  RCH.  FLOW INTO     FLOW TO   FLOW OUT OF   OVRLND.     DIRECT     STREAM       STREAM     STREAM     STREAM   STREAMBED  STREAMBED
                SEG.NO.  NO.  STRM. RCH.    AQUIFER    STRM. RCH.    RUNOFF     PRECIP       ET          HEAD       DEPTH      WIDTH   CONDCTNC.   GRADIENT

   1   13    1     1     1    1.0000E+05 -2.6692E+03   1.0267E+05  0.000E+00  0.000E+00  0.000E+00  4.84072E+01  1.458E-01  2.000E+01  2.000E+04 -1.335E-01
   1   13    2     1     2    1.0267E+05 -4.6144E+03   1.0728E+05  0.000E+00  0.000E+00  0.000E+00  4.79330E+01  1.489E-01  2.000E+01  2.000E+04 -2.307E-01
   1   14    3     1     3    1.0728E+05 -3.5081E+03   1.1079E+05  0.000E+00  0.000E+00  0.000E+00  4.74592E+01  1.524E-01  2.000E+01  2.000E+04 -1.754E-01
   1   15    4     1     4    1.1079E+05 -3.2342E+03   1.1403E+05  0.000E+00  0.000E+00  0.000E+00  4.69847E+01  1.552E-01  2.000E+01  2.000E+04 -1.617E-01
   1   16    5     1     5    1.1403E+05 -3.1115E+03   1.1714E+05  0.000E+00  0.000E+00  0.000E+00  4.65101E+01  1.578E-01  2.000E+01  2.000E+04 -1.556E-01
   1   16    6     1     6    1.1714E+05 -2.4759E+03   1.1961E+05  0.000E+00  0.000E+00  0.000E+00  4.60351E+01  1.601E-01  2.000E+01  2.000E+04 -1.238E-01
   1   16    7     1     7    1.1961E+05 -2.5062E+03   1.2212E+05  0.000E+00  0.000E+00  0.000E+00  4.55598E+01  1.621E-01  2.000E+01  2.000E+04 -1.253E-01
   1   16    8     1     8    1.2212E+05 -2.5314E+03   1.2465E+05  0.000E+00  0.000E+00  0.000E+00  4.50845E+01  1.641E-01  2.000E+01  2.000E+04 -1.266E-01
   1   16    9     1     9    1.2465E+05 -2.5580E+03   1.2721E+05  0.000E+00  0.000E+00  0.000E+00  4.46093E+01  1.661E-01  2.000E+01  2.000E+04 -1.279E-01
   1   16   10     1    10    1.2721E+05 -2.5802E+03   1.2979E+05  0.000E+00  0.000E+00  0.000E+00  4.41340E+01  1.681E-01  2.000E+01  2.000E+04 -1.290E-01
   1   16   11     1    11    1.2979E+05 -2.5937E+03   1.3238E+05  0.000E+00  0.000E+00  0.000E+00  4.36588E+01  1.702E-01  2.000E+01  2.000E+04 -1.297E-01
   1   16   12     1    12    1.3238E+05 -3.4179E+03   1.3580E+05  0.000E+00  0.000E+00  0.000E+00  4.31839E+01  1.725E-01  2.000E+01  2.000E+04 -1.709E-01
   1   15   13     1    13    1.3580E+05 -3.4625E+03   1.3926E+05  0.000E+00  0.000E+00  0.000E+00  4.27092E+01  1.751E-01  2.000E+01  2.000E+04 -1.731E-01
   1   14   14     1    14    1.3926E+05 -3.6487E+03   1.4291E+05  0.000E+00  0.000E+00  0.000E+00  4.22347E+01  1.778E-01  2.000E+01  2.000E+04 -1.824E-01
   1   13   15     1    15    1.4291E+05 -4.0288E+03   1.4694E+05  0.000E+00  0.000E+00  0.000E+00  4.17603E+01  1.807E-01  2.000E+01  2.000E+04 -2.014E-01
   1   12   16     1    16    1.4694E+05 -5.3204E+03   1.5226E+05  0.000E+00  0.000E+00  0.000E+00  4.12865E+01  1.842E-01  2.000E+01  2.000E+04 -2.660E-01
   1   12   17     1    17    1.5226E+05 -3.4422E+03   1.5570E+05  0.000E+00  0.000E+00  0.000E+00  4.08124E+01  1.874E-01  2.000E+01  2.000E+04 -1.721E-01
   1   12   18     1    18    1.5570E+05 -3.2994E+03   1.5900E+05  0.000E+00  0.000E+00  0.000E+00  4.03376E+01  1.899E-01  2.000E+01  2.000E+04 -1.650E-01
   1   12   19     1    19    1.5900E+05 -4.3649E+03   1.6337E+05  0.000E+00  0.000E+00  0.000E+00  3.98631E+01  1.926E-01  2.000E+01  2.000E+04 -2.182E-01
   1   13   20     1    20    1.6337E+05 -2.6725E+03   1.6604E+05  0.000E+00  0.000E+00  0.000E+00  3.93883E+01  1.951E-01  2.000E+01  2.000E+04 -1.336E-01
   1   14   21     1    21    1.6604E+05 -1.6307E+03   1.6767E+05  0.000E+00  0.000E+00  0.000E+00  3.89126E+01  1.967E-01  2.000E+01  2.000E+04 -8.154E-02
   1   14   22     1    22    1.6767E+05  5.1268E+03   1.6254E+05  0.000E+00  0.000E+00  0.000E+00  3.84341E+01  1.954E-01  2.000E+01  2.000E+04  2.563E-01
   1    9   30     2     1    5.0000E+04 -2.6852E+03   5.2685E+04  0.000E+00  0.000E+00  0.000E+00  4.02427E+01  1.177E-01  2.000E+01  2.000E+04 -1.343E-01
   1    9   29     2     2    5.2685E+04 -3.0183E+03   5.5703E+04  0.000E+00  0.000E+00  0.000E+00  3.99966E+01  1.216E-01  2.000E+01  2.000E+04 -1.509E-01
   1    9   28     2     3    5.5703E+04 -3.4008E+03   5.9104E+04  0.000E+00  0.000E+00  0.000E+00  3.97509E+01  1.259E-01  2.000E+01  2.000E+04 -1.700E-01
   1    9   27     2     4    5.9104E+04 -6.1056E+03   6.5210E+04  0.000E+00  0.000E+00  0.000E+00  3.95070E+01  1.320E-01  2.000E+01  2.000E+04 -3.053E-01
   1   10   26     2     5    6.5210E+04 -3.7295E+03   6.8939E+04  0.000E+00  0.000E+00  0.000E+00  3.92632E+01  1.382E-01  2.000E+01  2.000E+04 -1.865E-01
   1   11   25     2     6    6.8939E+04 -2.6897E+03   7.1629E+04  0.000E+00  0.000E+00  0.000E+00  3.90171E+01  1.421E-01  2.000E+01  2.000E+04 -1.345E-01
   1   12   24     2     7    7.1629E+04 -1.8568E+03   7.3486E+04  0.000E+00  0.000E+00  0.000E+00  3.87699E+01  1.449E-01  2.000E+01  2.000E+04 -9.284E-02
   1   13   23     2     8    7.3486E+04 -1.0566E+03   7.4542E+04  0.000E+00  0.000E+00  0.000E+00  3.85216E+01  1.466E-01  2.000E+01  2.000E+04 -5.283E-02
   1   14   22     2     9    7.4542E+04  1.8681E+03   7.2674E+04  0.000E+00  0.000E+00  0.000E+00  3.82711E+01  1.461E-01  2.000E+01  2.000E+04  9.340E-02
   1   14   22     3     1    2.3522E+05 -8.3900E+03   2.4361E+05  0.000E+00  0.000E+00  0.000E+00  3.77582E+01  2.027E-01  2.000E+01  2.000E+04 -4.195E-01
   1   15   23     3     2    2.4361E+05 -1.8838E+03   2.4549E+05  0.000E+00  0.000E+00  0.000E+00  3.68719E+01  2.053E-01  2.000E+01  2.000E+04 -9.419E-02
   1   15   24     3     3    2.4549E+05 -1.3370E+03   2.4683E+05  0.000E+00  0.000E+00  0.000E+00  3.59839E+01  2.061E-01  2.000E+01  2.000E+04 -6.685E-02
   1   15   25     3     4    2.4683E+05 -1.3178E+03   2.4815E+05  0.000E+00  0.000E+00  0.000E+00  3.50956E+01  2.067E-01  2.000E+01  2.000E+04 -6.589E-02
   1   15   26     3     5    2.4815E+05 -1.8194E+03   2.4997E+05  0.000E+00  0.000E+00  0.000E+00  3.42075E+01  2.075E-01  2.000E+01  2.000E+04 -9.097E-02
   1   16   27     3     6    2.4997E+05 -2.1312E+03   2.5210E+05  0.000E+00  0.000E+00  0.000E+00  3.33196E+01  2.085E-01  2.000E+01  2.000E+04 -1.066E-01
   1   17   28     3     7    2.5210E+05 -2.3464E+03   2.5444E+05  0.000E+00  0.000E+00  0.000E+00  3.24319E+01  2.096E-01  2.000E+01  2.000E+04 -1.173E-01
   1   18   29     3     8    2.5444E+05 -2.5046E+03   2.5695E+05  0.000E+00  0.000E+00  0.000E+00  3.15442E+01  2.108E-01  2.000E+01  2.000E+04 -1.252E-01
   1   18   30     3     9    2.5695E+05 -2.5101E+03   2.5946E+05  0.000E+00  0.000E+00  0.000E+00  3.06565E+01  2.121E-01  2.000E+01  2.000E+04 -1.255E-01



1
              HEAD IN LAYER   1 AT END OF TIME STEP   1 IN STRESS PERIOD    5
  ---------------------------------------------------------------------------

          1      2      3      4      5      6      7      8      9     10
         11     12     13     14     15     16     17     18     19     20
         21     22     23     24     25     26     27     28     29     30
 .........................................................................
   1  ****** ****** ****** ****** ****** ****** ****** ****** ****** ******
      ****** ****** ****** ****** ****** ****** ****** ****** ****** ******
      ****** ****** ****** ****** ****** ****** ****** ****** ****** ******
   2  ****** ****** ****** ****** ****** ****** ****** ****** ****** ******
      ****** ****** ****** ****** ****** ****** ****** ****** ****** ******
      ****** ****** ****** ****** ****** ****** ****** ****** ****** ******
   3  ****** ****** ****** ****** ****** ****** ****** ****** ****** ******
      ****** ****** ****** ****** ****** ****** ****** ****** ****** ******
      ****** ****** ****** ****** ****** ****** ****** ****** ****** ******
   4  ****** ****** ****** ****** ****** ****** ****** ****** ****** ******
      ****** ****** ****** ****** ****** ****** ****** ****** ****** ******
      ****** ****** ****** ****** ****** ****** ****** ****** ****** ******
   5  ****** ****** ****** ****** ****** ****** ****** ****** ****** ******
      ****** ****** ****** ****** ****** ****** ****** ****** ****** ******
      ****** ****** ****** ****** ****** ****** ****** ****** ****** ******
   6  ****** ****** ****** ****** ****** ****** ****** ****** ****** ******
      ****** ****** ****** ****** ****** ****** ****** ****** ****** ******
      ****** ****** ****** ****** ****** ****** ****** ****** ****** ******
   7  ****** ****** ****** ****** ****** ****** ****** ****** ****** ******
      ****** ****** ****** ****** ****** ****** ****** ****** ****** ******
      ****** ****** ****** ****** ****** ****** ****** ****** ****** ******
   8  ****** ****** ****** ****** ****** ****** ****** ****** ****** ******
      ****** ****** ****** ****** ****** ****** ****** ****** ****** ******
      ****** ****** ****** ****** ****** ****** ****** ****** ****** ******
   9  ****** ****** ****** ****** ****** ****** ****** ****** ****** ******
      ****** ****** ****** ****** ****** ****** ****** ****** ****** ******
      ****** ****** ****** ****** ****** ****** ****** ****** ****** ******
  10  ****** ****** ****** ****** ****** ****** ****** ****** ****** ******
      ****** ****** ****** ****** ****** ****** ****** ****** ****** ******
      ****** ****** ****** ****** ****** ****** ****** ****** ****** ******
  11  ****** ****** ****** ****** ****** ****** ****** ****** ****** ******
      ****** ****** ****** ****** ****** ****** ****** ****** ****** ******
      ****** ****** ****** ****** ****** ****** ****** ****** ****** ******
  12  ****** ****** ****** ****** ****** ****** ****** ****** ****** ******
      ****** ****** ****** ****** ****** ****** ****** ****** ****** ******
      ****** ****** ****** ****** ****** ****** ****** ****** ****** ******
  13  ****** ****** ****** ****** ****** ****** ****** ****** ****** ******
      ****** ****** ****** ****** ****** ****** ****** ****** ****** ******
      ****** ****** ****** ****** ****** ****** ****** ****** ****** ******
  14  ****** ****** ****** ****** ****** ****** ****** ****** ****** ******
      ****** ****** ****** ****** ****** ****** ****** ****** ****** ******
      ****** ****** ****** ****** ****** ****** ****** ****** ****** ******
  15  ****** ****** ****** ****** ****** ****** ****** ****** ****** ******
      ****** ****** ****** ****** ****** ****** ****** ****** ****** ******
      ****** ****** ****** ****** ****** ****** ****** ****** ****** ******
  16  ****** ****** ****** ****** ****** ****** ****** ****** ****** ******
      ****** ****** ****** ****** ****** ****** ****** ****** ****** ******
      ****** ****** ****** ****** ****** ****** ****** ****** ****** ******
  17  ****** ****** ****** ****** ****** ****** ****** ****** ****** ******
      ****** ****** ****** ****** ****** ****** ****** ****** ****** ******
      ****** ****** ****** ****** ****** ****** ****** ****** ****** ******
  18  ****** ****** ****** ****** ****** ****** ****** ****** ****** ******
      ****** ****** ****** ****** ****** ****** ****** ****** ****** ******
      ****** ****** ****** ****** ****** ****** ****** ****** ****** ******
  19  ****** ****** ****** ****** ****** ****** ****** ****** ****** ******
      ****** ****** ****** ****** ****** ****** ****** ****** ****** ******
      ****** ****** ****** ****** ****** ****** ****** ****** ****** ******
  20  ****** ****** ****** ****** ****** ****** ****** ****** ****** ******
      ****** ****** ****** ****** ****** ****** ****** ****** ****** ******
      ****** ****** ****** ****** ****** ****** ****** ****** ****** ******
  21  ****** ****** ****** ****** ****** ****** ****** ****** ****** ******
      ****** ****** ****** ****** ****** ****** ****** ****** ****** ******
      ****** ****** ****** ****** ****** ****** ****** ****** ****** ******
  22  ****** ****** ****** ****** ****** ****** ****** ****** ****** ******
      ****** ****** ****** ****** ****** ****** ****** ****** ****** ******
      ****** ****** ****** ****** ****** ****** ****** ****** ****** ******
  23  ****** ****** ****** ****** ****** ****** ****** ****** ****** ******
      ****** ****** ****** ****** ****** ****** ****** ****** ****** ******
      ****** ****** ****** ****** ****** ****** ****** ****** ****** ******
  24  ****** ****** ****** ****** ****** ****** ****** ****** ****** ******
      ****** ****** ****** ****** ****** ****** ****** ****** ****** ******
      ****** ****** ****** ****** ****** ****** ****** ****** ****** ******
  25  ****** ****** ****** ****** ****** ****** ****** ****** ****** ******
      ****** ****** ****** ****** ****** ****** ****** ****** ****** ******
      ****** ****** ****** ****** ****** ****** ****** ****** ****** ******

 HEAD WILL BE SAVED ON UNIT   51 AT END OF TIME STEP    1, STRESS PERIOD    5
1
  VOLUMETRIC BUDGET FOR ENTIRE MODEL AT END OF TIME STEP    1, STRESS PERIOD   5
  ------------------------------------------------------------------------------

     CUMULATIVE VOLUMES      L**3       RATES FOR THIS TIME STEP      L**3/T
     ------------------                 ------------------------

           IN:                                      IN:
           ---                                      ---
             STORAGE =    23204592.3725               STORAGE =        4418.0307
       CONSTANT HEAD =    79041071.9886         CONSTANT HEAD =      189756.2957
               WELLS =           0.0000                 WELLS =           0.0000
            RECHARGE =    10074000.0000              RECHARGE =       13800.0000
      STREAM LEAKAGE =     2964680.6637        STREAM LEAKAGE =        6994.8579

            TOTAL IN =   115284345.0248              TOTAL IN =      214969.1843

          OUT:                                     OUT:
          ----                                     ----
             STORAGE =       20078.9737               STORAGE =           0.0000
       CONSTANT HEAD =           0.0000         CONSTANT HEAD =           0.0000
               WELLS =    45021715.4136                 WELLS =       98515.7887
            RECHARGE =           0.0000              RECHARGE =           0.0000
      STREAM LEAKAGE =    70242551.3721        STREAM LEAKAGE =      116453.3964

           TOTAL OUT =   115284345.7594             TOTAL OUT =      214969.1851

            IN - OUT =          -0.7346              IN - OUT =      -7.5190E-04

 PERCENT DISCREPANCY =          -0.00     PERCENT DISCREPANCY =          -0.00






         TIME SUMMARY AT END OF TIME STEP    1 IN STRESS PERIOD    5
                    SECONDS     MINUTES      HOURS       DAYS        YEARS
                    -----------------------------------------------------------
   TIME STEP LENGTH 7.94880E+06 1.32480E+05  2208.0      92.000     0.25188    
 STRESS PERIOD TIME 7.94880E+06 1.32480E+05  2208.0      92.000     0.25188    
         TOTAL TIME 3.94848E+07 6.58080E+05  10968.      457.00      1.2512    
1
1
                            STRESS PERIOD NO.    6, LENGTH =   91.00000    
                            -----------------------------------------------

                              NUMBER OF TIME STEPS =     1

                               MULTIPLIER FOR DELT =     1.500

                            INITIAL TIME STEP SIZE =   91.00000    

 WELL NO.  LAYER   ROW   COL   STRESS RATE         
 --------------------------------------------------
      1      1     23     29     -0.3033E+05
      2      1     23      8     -0.3444E+05
      3      1     23     22     -0.3374E+05

      3 WELLS

                 RECHARGE =  2.000000E-03

 REUSING STREAM SEGMENT DATA FROM LAST STRESS PERIOD
 
 SOLVING FOR HEAD 


     7 CALLS TO PCG ROUTINE FOR TIME STEP   1 IN STRESS PERIOD    6
    26 TOTAL ITERATIONS

 OUTPUT CONTROL FOR STRESS PERIOD    6   TIME STEP    1
    SAVE BUDGET
    SAVE HEAD FOR ALL LAYERS
    PRINT HEAD FOR ALL LAYERS
 UBDSV2 SAVING "STREAMFLOW OUT  " ON UNIT  50 AT TIME STEP  1, STRESS PERIOD   6



 STREAM LISTING     PERIOD      6   STEP        1

 LAYER ROW COL. STREAM  RCH.  FLOW INTO     FLOW TO   FLOW OUT OF   OVRLND.     DIRECT     STREAM       STREAM     STREAM     STREAM   STREAMBED  STREAMBED
                SEG.NO.  NO.  STRM. RCH.    AQUIFER    STRM. RCH.    RUNOFF     PRECIP       ET          HEAD       DEPTH      WIDTH   CONDCTNC.   GRADIENT

   1   13    1     1     1    1.0000E+05 -3.0683E+03   1.0307E+05  0.000E+00  0.000E+00  0.000E+00  4.84073E+01  1.460E-01  2.000E+01  2.000E+04 -1.534E-01
   1   13    2     1     2    1.0307E+05 -5.1397E+03   1.0821E+05  0.000E+00  0.000E+00  0.000E+00  4.79336E+01  1.495E-01  2.000E+01  2.000E+04 -2.570E-01
   1   14    3     1     3    1.0821E+05 -4.0466E+03   1.1225E+05  0.000E+00  0.000E+00  0.000E+00  4.74602E+01  1.534E-01  2.000E+01  2.000E+04 -2.023E-01
   1   15    4     1     4    1.1225E+05 -3.7697E+03   1.1602E+05  0.000E+00  0.000E+00  0.000E+00  4.69861E+01  1.566E-01  2.000E+01  2.000E+04 -1.885E-01
   1   16    5     1     5    1.1602E+05 -3.6081E+03   1.1963E+05  0.000E+00  0.000E+00  0.000E+00  4.65119E+01  1.596E-01  2.000E+01  2.000E+04 -1.804E-01
   1   16    6     1     6    1.1963E+05 -2.8668E+03   1.2250E+05  0.000E+00  0.000E+00  0.000E+00  4.60372E+01  1.622E-01  2.000E+01  2.000E+04 -1.433E-01
   1   16    7     1     7    1.2250E+05 -2.9027E+03   1.2540E+05  0.000E+00  0.000E+00  0.000E+00  4.55623E+01  1.645E-01  2.000E+01  2.000E+04 -1.451E-01
   1   16    8     1     8    1.2540E+05 -2.9313E+03   1.2833E+05  0.000E+00  0.000E+00  0.000E+00  4.50873E+01  1.669E-01  2.000E+01  2.000E+04 -1.466E-01
   1   16    9     1     9    1.2833E+05 -2.9578E+03   1.3129E+05  0.000E+00  0.000E+00  0.000E+00  4.46123E+01  1.692E-01  2.000E+01  2.000E+04 -1.479E-01
   1   16   10     1    10    1.3129E+05 -2.9764E+03   1.3427E+05  0.000E+00  0.000E+00  0.000E+00  4.41374E+01  1.715E-01  2.000E+01  2.000E+04 -1.488E-01
   1   16   11     1    11    1.3427E+05 -2.9848E+03   1.3725E+05  0.000E+00  0.000E+00  0.000E+00  4.36624E+01  1.738E-01  2.000E+01  2.000E+04 -1.492E-01
   1   16   12     1    12    1.3725E+05 -3.9212E+03   1.4117E+05  0.000E+00  0.000E+00  0.000E+00  4.31878E+01  1.764E-01  2.000E+01  2.000E+04 -1.961E-01
   1   15   13     1    13    1.4117E+05 -4.0085E+03   1.4518E+05  0.000E+00  0.000E+00  0.000E+00  4.27135E+01  1.794E-01  2.000E+01  2.000E+04 -2.004E-01
   1   14   14     1    14    1.4518E+05 -4.2043E+03   1.4939E+05  0.000E+00  0.000E+00  0.000E+00  4.22393E+01  1.825E-01  2.000E+01  2.000E+04 -2.102E-01
   1   13   15     1    15    1.4939E+05 -4.5752E+03   1.5396E+05  0.000E+00  0.000E+00  0.000E+00  4.17653E+01  1.857E-01  2.000E+01  2.000E+04 -2.288E-01
   1   12   16     1    16    1.5396E+05 -5.8424E+03   1.5980E+05  0.000E+00  0.000E+00  0.000E+00  4.12918E+01  1.895E-01  2.000E+01  2.000E+04 -2.921E-01
   1   12   17     1    17    1.5980E+05 -3.8326E+03   1.6364E+05  0.000E+00  0.000E+00  0.000E+00  4.08180E+01  1.930E-01  2.000E+01  2.000E+04 -1.916E-01
   1   12   18     1    18    1.6364E+05 -3.6837E+03   1.6732E+05  0.000E+00  0.000E+00  0.000E+00  4.03434E+01  1.957E-01  2.000E+01  2.000E+04 -1.842E-01
   1   12   19     1    19    1.6732E+05 -4.8343E+03   1.7215E+05  0.000E+00  0.000E+00  0.000E+00  3.98692E+01  1.987E-01  2.000E+01  2.000E+04 -2.417E-01
   1   13   20     1    20    1.7215E+05 -3.1309E+03   1.7529E+05  0.000E+00  0.000E+00  0.000E+00  3.93947E+01  2.015E-01  2.000E+01  2.000E+04 -1.565E-01
   1   14   21     1    21    1.7529E+05 -2.0517E+03   1.7734E+05  0.000E+00  0.000E+00  0.000E+00  3.89192E+01  2.033E-01  2.000E+01  2.000E+04 -1.026E-01
   1   14   22     1    22    1.7734E+05  5.0468E+03   1.7229E+05  0.000E+00  0.000E+00  0.000E+00  3.84409E+01  2.022E-01  2.000E+01  2.000E+04  2.523E-01
   1    9   30     2     1    5.0000E+04 -3.0423E+03   5.3042E+04  0.000E+00  0.000E+00  0.000E+00  4.02430E+01  1.180E-01  2.000E+01  2.000E+04 -1.521E-01
   1    9   29     2     2    5.3042E+04 -3.3725E+03   5.6415E+04  0.000E+00  0.000E+00  0.000E+00  3.99973E+01  1.223E-01  2.000E+01  2.000E+04 -1.686E-01
   1    9   28     2     3    5.6415E+04 -3.7528E+03   6.0168E+04  0.000E+00  0.000E+00  0.000E+00  3.97520E+01  1.270E-01  2.000E+01  2.000E+04 -1.876E-01
   1    9   27     2     4    6.0168E+04 -6.5752E+03   6.6743E+04  0.000E+00  0.000E+00  0.000E+00  3.95087E+01  1.337E-01  2.000E+01  2.000E+04 -3.288E-01
   1   10   26     2     5    6.6743E+04 -4.2155E+03   7.0958E+04  0.000E+00  0.000E+00  0.000E+00  3.92654E+01  1.404E-01  2.000E+01  2.000E+04 -2.108E-01
   1   11   25     2     6    7.0958E+04 -3.1547E+03   7.4113E+04  0.000E+00  0.000E+00  0.000E+00  3.90198E+01  1.448E-01  2.000E+01  2.000E+04 -1.577E-01
   1   12   24     2     7    7.4113E+04 -2.2678E+03   7.6381E+04  0.000E+00  0.000E+00  0.000E+00  3.87731E+01  1.481E-01  2.000E+01  2.000E+04 -1.134E-01
   1   13   23     2     8    7.6381E+04 -1.3773E+03   7.7758E+04  0.000E+00  0.000E+00  0.000E+00  3.85252E+01  1.502E-01  2.000E+01  2.000E+04 -6.886E-02
   1   14   22     2     9    7.7758E+04  1.7294E+03   7.6029E+04  0.000E+00  0.000E+00  0.000E+00  3.82750E+01  1.500E-01  2.000E+01  2.000E+04  8.647E-02
   1   14   22     3     1    2.4832E+05 -8.4742E+03   2.5679E+05  0.000E+00  0.000E+00  0.000E+00  3.77648E+01  2.093E-01  2.000E+01  2.000E+04 -4.237E-01
   1   15   23     3     2    2.5679E+05 -2.2767E+03   2.5907E+05  0.000E+00  0.000E+00  0.000E+00  3.68786E+01  2.119E-01  2.000E+01  2.000E+04 -1.138E-01
   1   15   24     3     3    2.5907E+05 -1.6222E+03   2.6069E+05  0.000E+00  0.000E+00  0.000E+00  3.59907E+01  2.129E-01  2.000E+01  2.000E+04 -8.111E-02
   1   15   25     3     4    2.6069E+05 -1.6043E+03   2.6230E+05  0.000E+00  0.000E+00  0.000E+00  3.51026E+01  2.137E-01  2.000E+01  2.000E+04 -8.021E-02
   1   15   26     3     5    2.6230E+05 -2.1897E+03   2.6449E+05  0.000E+00  0.000E+00  0.000E+00  3.42146E+01  2.146E-01  2.000E+01  2.000E+04 -1.095E-01
   1   16   27     3     6    2.6449E+05 -2.5948E+03   2.6708E+05  0.000E+00  0.000E+00  0.000E+00  3.33269E+01  2.158E-01  2.000E+01  2.000E+04 -1.297E-01
   1   17   28     3     7    2.6708E+05 -2.8196E+03   2.6990E+05  0.000E+00  0.000E+00  0.000E+00  3.24393E+01  2.171E-01  2.000E+01  2.000E+04 -1.410E-01
   1   18   29     3     8    2.6990E+05 -2.9480E+03   2.7285E+05  0.000E+00  0.000E+00  0.000E+00  3.15518E+01  2.185E-01  2.000E+01  2.000E+04 -1.474E-01
   1   18   30     3     9    2.7285E+05 -2.8452E+03   2.7569E+05  0.000E+00  0.000E+00  0.000E+00  3.06643E+01  2.199E-01  2.000E+01  2.000E+04 -1.423E-01



1
              HEAD IN LAYER   1 AT END OF TIME STEP   1 IN STRESS PERIOD    6
  ---------------------------------------------------------------------------

          1      2      3      4      5      6      7      8      9     10
         11     12     13     14     15     16     17     18     19     20
         21     22     23     24     25     26     27     28     29     30
 .........................................................................
   1  ****** ****** ****** ****** ****** ****** ****** ****** ****** ******
      ****** ****** ****** ****** ****** ****** ****** ****** ****** ******
      ****** ****** ****** ****** ****** ****** ****** ****** ****** ******
   2  ****** ****** ****** ****** ****** ****** ****** ****** ****** ******
      ****** ****** ****** ****** ****** ****** ****** ****** ****** ******
      ****** ****** ****** ****** ****** ****** ****** ****** ****** ******
   3  ****** ****** ****** ****** ****** ****** ****** ****** ****** ******
      ****** ****** ****** ****** ****** ****** ****** ****** ****** ******
      ****** ****** ****** ****** ****** ****** ****** ****** ****** ******
   4  ****** ****** ****** ****** ****** ****** ****** ****** ****** ******
      ****** ****** ****** ****** ****** ****** ****** ****** ****** ******
      ****** ****** ****** ****** ****** ****** ****** ****** ****** ******
   5  ****** ****** ****** ****** ****** ****** ****** ****** ****** ******
      ****** ****** ****** ****** ****** ****** ****** ****** ****** ******
      ****** ****** ****** ****** ****** ****** ****** ****** ****** ******
   6  ****** ****** ****** ****** ****** ****** ****** ****** ****** ******
      ****** ****** ****** ****** ****** ****** ****** ****** ****** ******
      ****** ****** ****** ****** ****** ****** ****** ****** ****** ******
   7  ****** ****** ****** ****** ****** ****** ****** ****** ****** ******
      ****** ****** ****** ****** ****** ****** ****** ****** ****** ******
      ****** ****** ****** ****** ****** ****** ****** ****** ****** ******
   8  ****** ****** ****** ****** ****** ****** ****** ****** ****** ******
      ****** ****** ****** ****** ****** ****** ****** ****** ****** ******
      ****** ****** ****** ****** ****** ****** ****** ****** ****** ******
   9  ****** ****** ****** ****** ****** ****** ****** ****** ****** ******
      ****** ****** ****** ****** ****** ****** ****** ****** ****** ******
      ****** ****** ****** ****** ****** ****** ****** ****** ****** ******
  10  ****** ****** ****** ****** ****** ****** ****** ****** ****** ******
      ****** ****** ****** ****** ****** ****** ****** ****** ****** ******
      ****** ****** ****** ****** ****** ****** ****** ****** ****** ******
  11  ****** ****** ****** ****** ****** ****** ****** ****** ****** ******
      ****** ****** ****** ****** ****** ****** ****** ****** ****** ******
      ****** ****** ****** ****** ****** ****** ****** ****** ****** ******
  12  ****** ****** ****** ****** ****** ****** ****** ****** ****** ******
      ****** ****** ****** ****** ****** ****** ****** ****** ****** ******
      ****** ****** ****** ****** ****** ****** ****** ****** ****** ******
  13  ****** ****** ****** ****** ****** ****** ****** ****** ****** ******
      ****** ****** ****** ****** ****** ****** ****** ****** ****** ******
      ****** ****** ****** ****** ****** ****** ****** ****** ****** ******
  14  ****** ****** ****** ****** ****** ****** ****** ****** ****** ******
      ****** ****** ****** ****** ****** ****** ****** ****** ****** ******
      ****** ****** ****** ****** ****** ****** ****** ****** ****** ******
  15  ****** ****** ****** ****** ****** ****** ****** ****** ****** ******
      ****** ****** ****** ****** ****** ****** ****** ****** ****** ******
      ****** ****** ****** ****** ****** ****** ****** ****** ****** ******
  16  ****** ****** ****** ****** ****** ****** ****** ****** ****** ******
      ****** ****** ****** ****** ****** ****** ****** ****** ****** ******
      ****** ****** ****** ****** ****** ****** ****** ****** ****** ******
  17  ****** ****** ****** ****** ****** ****** ****** ****** ****** ******
      ****** ****** ****** ****** ****** ****** ****** ****** ****** ******
      ****** ****** ****** ****** ****** ****** ****** ****** ****** ******
  18  ****** ****** ****** ****** ****** ****** ****** ****** ****** ******
      ****** ****** ****** ****** ****** ****** ****** ****** ****** ******
      ****** ****** ****** ****** ****** ****** ****** ****** ****** ******
  19  ****** ****** ****** ****** ****** ****** ****** ****** ****** ******
      ****** ****** ****** ****** ****** ****** ****** ****** ****** ******
      ****** ****** ****** ****** ****** ****** ****** ****** ****** ******
  20  ****** ****** ****** ****** ****** ****** ****** ****** ****** ******
      ****** ****** ****** ****** ****** ****** ****** ****** ****** ******
      ****** ****** ****** ****** ****** ****** ****** ****** ****** ******
  21  ****** ****** ****** ****** ****** ****** ****** ****** ****** ******
      ****** ****** ****** ****** ****** ****** ****** ****** ****** ******
      ****** ****** ****** ****** ****** ****** ****** ****** ****** ******
  22  ****** ****** ****** ****** ****** ****** ****** ****** ****** ******
      ****** ****** ****** ****** ****** ****** ****** ****** ****** ******
      ****** ****** ****** ****** ****** ****** ****** ****** ****** ******
  23  ****** ****** ****** ****** ****** ****** ****** ****** ****** ******
      ****** ****** ****** ****** ****** ****** ****** ****** ****** ******
      ****** ****** ****** ****** ****** ****** ****** ****** ****** ******
  24  ****** ****** ****** ****** ****** ****** ****** ****** ****** ******
      ****** ****** ****** ****** ****** ****** ****** ****** ****** ******
      ****** ****** ****** ****** ****** ****** ****** ****** ****** ******
  25  ****** ****** ****** ****** ****** ****** ****** ****** ****** ******
      ****** ****** ****** ****** ****** ****** ****** ****** ****** ******
      ****** ****** ****** ****** ****** ****** ****** ****** ****** ******

 HEAD WILL BE SAVED ON UNIT   51 AT END OF TIME STEP    1, STRESS PERIOD    6
1
  VOLUMETRIC BUDGET FOR ENTIRE MODEL AT END OF TIME STEP    1, STRESS PERIOD   6
  ------------------------------------------------------------------------------

     CUMULATIVE VOLUMES      L**3       RATES FOR THIS TIME STEP      L**3/T
     ------------------                 ------------------------

           IN:                                      IN:
           ---                                      ---
             STORAGE =    23204592.3725               STORAGE =           0.0000
       CONSTANT HEAD =    95340486.1050         CONSTANT HEAD =      179114.4408
               WELLS =           0.0000                 WELLS =           0.0000
            RECHARGE =    15097200.0000              RECHARGE =       55200.0000
      STREAM LEAKAGE =     3581312.3633        STREAM LEAKAGE =        6776.1725

            TOTAL IN =   137223590.8408              TOTAL IN =      241090.6134

          OUT:                                     OUT:
          ----                                     ----
             STORAGE =      939655.1551               STORAGE =       10105.2328
       CONSTANT HEAD =           0.0000         CONSTANT HEAD =           0.0000
               WELLS =    53986652.1808                 WELLS =       98515.7887
            RECHARGE =           0.0000              RECHARGE =           0.0000
      STREAM LEAKAGE =    82297284.0909        STREAM LEAKAGE =      132469.5903

           TOTAL OUT =   137223591.4269             TOTAL OUT =      241090.6117

            IN - OUT =          -0.5860              IN - OUT =       1.6326E-03

 PERCENT DISCREPANCY =          -0.00     PERCENT DISCREPANCY =           0.00






         TIME SUMMARY AT END OF TIME STEP    1 IN STRESS PERIOD    6
                    SECONDS     MINUTES      HOURS       DAYS        YEARS
                    -----------------------------------------------------------
   TIME STEP LENGTH 7.86240E+06 1.31040E+05  2184.0      91.000     0.24914    
 STRESS PERIOD TIME 7.86240E+06 1.31040E+05  2184.0      91.000     0.24914    
         TOTAL TIME 4.73472E+07 7.89120E+05  13152.      548.00      1.5003    
1
1
                            STRESS PERIOD NO.    7, LENGTH =   91.00000    
                            -----------------------------------------------

                              NUMBER OF TIME STEPS =     1

                               MULTIPLIER FOR DELT =     1.500

                            INITIAL TIME STEP SIZE =   91.00000    

 WELL NO.  LAYER   ROW   COL   STRESS RATE         
 --------------------------------------------------
      1      1     23     29     -0.2744E+05
      2      1     23      8     -0.3195E+05
      3      1     23     22     -0.3583E+05

      3 WELLS

                 RECHARGE =   0.00000    

 REUSING STREAM SEGMENT DATA FROM LAST STRESS PERIOD
 
 SOLVING FOR HEAD 


     7 CALLS TO PCG ROUTINE FOR TIME STEP   1 IN STRESS PERIOD    7
    26 TOTAL ITERATIONS

 OUTPUT CONTROL FOR STRESS PERIOD    7   TIME STEP    1
    SAVE BUDGET
    SAVE HEAD FOR ALL LAYERS
    PRINT HEAD FOR ALL LAYERS
 UBDSV2 SAVING "STREAMFLOW OUT  " ON UNIT  50 AT TIME STEP  1, STRESS PERIOD   7



 STREAM LISTING     PERIOD      7   STEP        1

 LAYER ROW COL. STREAM  RCH.  FLOW INTO     FLOW TO   FLOW OUT OF   OVRLND.     DIRECT     STREAM       STREAM     STREAM     STREAM   STREAMBED  STREAMBED
                SEG.NO.  NO.  STRM. RCH.    AQUIFER    STRM. RCH.    RUNOFF     PRECIP       ET          HEAD       DEPTH      WIDTH   CONDCTNC.   GRADIENT

   1   13    1     1     1    1.0000E+05 -2.5782E+03   1.0258E+05  0.000E+00  0.000E+00  0.000E+00  4.84071E+01  1.458E-01  2.000E+01  2.000E+04 -1.289E-01
   1   13    2     1     2    1.0258E+05 -4.4944E+03   1.0707E+05  0.000E+00  0.000E+00  0.000E+00  4.79329E+01  1.488E-01  2.000E+01  2.000E+04 -2.247E-01
   1   14    3     1     3    1.0707E+05 -3.3891E+03   1.1046E+05  0.000E+00  0.000E+00  0.000E+00  4.74590E+01  1.521E-01  2.000E+01  2.000E+04 -1.695E-01
   1   15    4     1     4    1.1046E+05 -3.1245E+03   1.1359E+05  0.000E+00  0.000E+00  0.000E+00  4.69844E+01  1.548E-01  2.000E+01  2.000E+04 -1.562E-01
   1   16    5     1     5    1.1359E+05 -3.0361E+03   1.1662E+05  0.000E+00  0.000E+00  0.000E+00  4.65097E+01  1.574E-01  2.000E+01  2.000E+04 -1.518E-01
   1   16    6     1     6    1.1662E+05 -2.4148E+03   1.1904E+05  0.000E+00  0.000E+00  0.000E+00  4.60346E+01  1.596E-01  2.000E+01  2.000E+04 -1.207E-01
   1   16    7     1     7    1.1904E+05 -2.4460E+03   1.2148E+05  0.000E+00  0.000E+00  0.000E+00  4.55593E+01  1.616E-01  2.000E+01  2.000E+04 -1.223E-01
   1   16    8     1     8    1.2148E+05 -2.4711E+03   1.2395E+05  0.000E+00  0.000E+00  0.000E+00  4.50840E+01  1.636E-01  2.000E+01  2.000E+04 -1.236E-01
   1   16    9     1     9    1.2395E+05 -2.4959E+03   1.2645E+05  0.000E+00  0.000E+00  0.000E+00  4.46087E+01  1.655E-01  2.000E+01  2.000E+04 -1.248E-01
   1   16   10     1    10    1.2645E+05 -2.5147E+03   1.2896E+05  0.000E+00  0.000E+00  0.000E+00  4.41334E+01  1.675E-01  2.000E+01  2.000E+04 -1.257E-01
   1   16   11     1    11    1.2896E+05 -2.5244E+03   1.3149E+05  0.000E+00  0.000E+00  0.000E+00  4.36581E+01  1.695E-01  2.000E+01  2.000E+04 -1.262E-01
   1   16   12     1    12    1.3149E+05 -3.3240E+03   1.3481E+05  0.000E+00  0.000E+00  0.000E+00  4.31831E+01  1.718E-01  2.000E+01  2.000E+04 -1.662E-01
   1   15   13     1    13    1.3481E+05 -3.3391E+03   1.3815E+05  0.000E+00  0.000E+00  0.000E+00  4.27084E+01  1.743E-01  2.000E+01  2.000E+04 -1.670E-01
   1   14   14     1    14    1.3815E+05 -3.5182E+03   1.4167E+05  0.000E+00  0.000E+00  0.000E+00  4.22338E+01  1.769E-01  2.000E+01  2.000E+04 -1.759E-01
   1   13   15     1    15    1.4167E+05 -3.8994E+03   1.4557E+05  0.000E+00  0.000E+00  0.000E+00  4.17593E+01  1.797E-01  2.000E+01  2.000E+04 -1.950E-01
   1   12   16     1    16    1.4557E+05 -5.2018E+03   1.5077E+05  0.000E+00  0.000E+00  0.000E+00  4.12854E+01  1.831E-01  2.000E+01  2.000E+04 -2.601E-01
   1   12   17     1    17    1.5077E+05 -3.3505E+03   1.5412E+05  0.000E+00  0.000E+00  0.000E+00  4.08113E+01  1.863E-01  2.000E+01  2.000E+04 -1.675E-01
   1   12   18     1    18    1.5412E+05 -3.2087E+03   1.5733E+05  0.000E+00  0.000E+00  0.000E+00  4.03364E+01  1.887E-01  2.000E+01  2.000E+04 -1.604E-01
   1   12   19     1    19    1.5733E+05 -4.2564E+03   1.6159E+05  0.000E+00  0.000E+00  0.000E+00  3.98618E+01  1.914E-01  2.000E+01  2.000E+04 -2.128E-01
   1   13   20     1    20    1.6159E+05 -2.5571E+03   1.6414E+05  0.000E+00  0.000E+00  0.000E+00  3.93870E+01  1.938E-01  2.000E+01  2.000E+04 -1.279E-01
   1   14   21     1    21    1.6414E+05 -1.5194E+03   1.6566E+05  0.000E+00  0.000E+00  0.000E+00  3.89112E+01  1.953E-01  2.000E+01  2.000E+04 -7.597E-02
   1   14   22     1    22    1.6566E+05  5.1516E+03   1.6051E+05  0.000E+00  0.000E+00  0.000E+00  3.84326E+01  1.940E-01  2.000E+01  2.000E+04  2.576E-01
   1    9   30     2     1    5.0000E+04 -2.5997E+03   5.2600E+04  0.000E+00  0.000E+00  0.000E+00  4.02427E+01  1.177E-01  2.000E+01  2.000E+04 -1.300E-01
   1    9   29     2     2    5.2600E+04 -2.9335E+03   5.5533E+04  0.000E+00  0.000E+00  0.000E+00  3.99964E+01  1.214E-01  2.000E+01  2.000E+04 -1.467E-01
   1    9   28     2     3    5.5533E+04 -3.3171E+03   5.8850E+04  0.000E+00  0.000E+00  0.000E+00  3.97506E+01  1.256E-01  2.000E+01  2.000E+04 -1.659E-01
   1    9   27     2     4    5.8850E+04 -6.0001E+03   6.4850E+04  0.000E+00  0.000E+00  0.000E+00  3.95066E+01  1.316E-01  2.000E+01  2.000E+04 -3.000E-01
   1   10   26     2     5    6.4850E+04 -3.6147E+03   6.8465E+04  0.000E+00  0.000E+00  0.000E+00  3.92627E+01  1.377E-01  2.000E+01  2.000E+04 -1.807E-01
   1   11   25     2     6    6.8465E+04 -2.5773E+03   7.1042E+04  0.000E+00  0.000E+00  0.000E+00  3.90165E+01  1.415E-01  2.000E+01  2.000E+04 -1.289E-01
   1   12   24     2     7    7.1042E+04 -1.7539E+03   7.2796E+04  0.000E+00  0.000E+00  0.000E+00  3.87691E+01  1.441E-01  2.000E+01  2.000E+04 -8.769E-02
   1   13   23     2     8    7.2796E+04 -9.7223E+02   7.3768E+04  0.000E+00  0.000E+00  0.000E+00  3.85207E+01  1.457E-01  2.000E+01  2.000E+04 -4.861E-02
   1   14   22     2     9    7.3768E+04  1.9027E+03   7.1866E+04  0.000E+00  0.000E+00  0.000E+00  3.82702E+01  1.452E-01  2.000E+01  2.000E+04  9.513E-02
   1   14   22     3     1    2.3238E+05 -8.3655E+03   2.4074E+05  0.000E+00  0.000E+00  0.000E+00  3.77568E+01  2.012E-01  2.000E+01  2.000E+04 -4.183E-01
   1   15   23     3     2    2.4074E+05 -1.7747E+03   2.4252E+05  0.000E+00  0.000E+00  0.000E+00  3.68705E+01  2.038E-01  2.000E+01  2.000E+04 -8.874E-02
   1   15   24     3     3    2.4252E+05 -1.2593E+03   2.4378E+05  0.000E+00  0.000E+00  0.000E+00  3.59823E+01  2.046E-01  2.000E+01  2.000E+04 -6.296E-02
   1   15   25     3     4    2.4378E+05 -1.2432E+03   2.4502E+05  0.000E+00  0.000E+00  0.000E+00  3.50941E+01  2.052E-01  2.000E+01  2.000E+04 -6.216E-02
   1   15   26     3     5    2.4502E+05 -1.7268E+03   2.4675E+05  0.000E+00  0.000E+00  0.000E+00  3.42059E+01  2.059E-01  2.000E+01  2.000E+04 -8.634E-02
   1   16   27     3     6    2.4675E+05 -2.0315E+03   2.4878E+05  0.000E+00  0.000E+00  0.000E+00  3.33180E+01  2.069E-01  2.000E+01  2.000E+04 -1.016E-01
   1   17   28     3     7    2.4878E+05 -2.2809E+03   2.5106E+05  0.000E+00  0.000E+00  0.000E+00  3.24302E+01  2.080E-01  2.000E+01  2.000E+04 -1.140E-01
   1   18   29     3     8    2.5106E+05 -2.5543E+03   2.5361E+05  0.000E+00  0.000E+00  0.000E+00  3.15425E+01  2.092E-01  2.000E+01  2.000E+04 -1.277E-01
   1   18   30     3     9    2.5361E+05 -2.5568E+03   2.5617E+05  0.000E+00  0.000E+00  0.000E+00  3.06549E+01  2.104E-01  2.000E+01  2.000E+04 -1.278E-01



1
              HEAD IN LAYER   1 AT END OF TIME STEP   1 IN STRESS PERIOD    7
  ---------------------------------------------------------------------------

          1      2      3      4      5      6      7      8      9     10
         11     12     13     14     15     16     17     18     19     20
         21     22     23     24     25     26     27     28     29     30
 .........................................................................
   1  ****** ****** ****** ****** ****** ****** ****** ****** ****** ******
      ****** ****** ****** ****** ****** ****** ****** ****** ****** ******
      ****** ****** ****** ****** ****** ****** ****** ****** ****** ******
   2  ****** ****** ****** ****** ****** ****** ****** ****** ****** ******
      ****** ****** ****** ****** ****** ****** ****** ****** ****** ******
      ****** ****** ****** ****** ****** ****** ****** ****** ****** ******
   3  ****** ****** ****** ****** ****** ****** ****** ****** ****** ******
      ****** ****** ****** ****** ****** ****** ****** ****** ****** ******
      ****** ****** ****** ****** ****** ****** ****** ****** ****** ******
   4  ****** ****** ****** ****** ****** ****** ****** ****** ****** ******
      ****** ****** ****** ****** ****** ****** ****** ****** ****** ******
      ****** ****** ****** ****** ****** ****** ****** ****** ****** ******
   5  ****** ****** ****** ****** ****** ****** ****** ****** ****** ******
      ****** ****** ****** ****** ****** ****** ****** ****** ****** ******
      ****** ****** ****** ****** ****** ****** ****** ****** ****** ******
   6  ****** ****** ****** ****** ****** ****** ****** ****** ****** ******
      ****** ****** ****** ****** ****** ****** ****** ****** ****** ******
      ****** ****** ****** ****** ****** ****** ****** ****** ****** ******
   7  ****** ****** ****** ****** ****** ****** ****** ****** ****** ******
      ****** ****** ****** ****** ****** ****** ****** ****** ****** ******
      ****** ****** ****** ****** ****** ****** ****** ****** ****** ******
   8  ****** ****** ****** ****** ****** ****** ****** ****** ****** ******
      ****** ****** ****** ****** ****** ****** ****** ****** ****** ******
      ****** ****** ****** ****** ****** ****** ****** ****** ****** ******
   9  ****** ****** ****** ****** ****** ****** ****** ****** ****** ******
      ****** ****** ****** ****** ****** ****** ****** ****** ****** ******
      ****** ****** ****** ****** ****** ****** ****** ****** ****** ******
  10  ****** ****** ****** ****** ****** ****** ****** ****** ****** ******
      ****** ****** ****** ****** ****** ****** ****** ****** ****** ******
      ****** ****** ****** ****** ****** ****** ****** ****** ****** ******
  11  ****** ****** ****** ****** ****** ****** ****** ****** ****** ******
      ****** ****** ****** ****** ****** ****** ****** ****** ****** ******
      ****** ****** ****** ****** ****** ****** ****** ****** ****** ******
  12  ****** ****** ****** ****** ****** ****** ****** ****** ****** ******
      ****** ****** ****** ****** ****** ****** ****** ****** ****** ******
      ****** ****** ****** ****** ****** ****** ****** ****** ****** ******
  13  ****** ****** ****** ****** ****** ****** ****** ****** ****** ******
      ****** ****** ****** ****** ****** ****** ****** ****** ****** ******
      ****** ****** ****** ****** ****** ****** ****** ****** ****** ******
  14  ****** ****** ****** ****** ****** ****** ****** ****** ****** ******
      ****** ****** ****** ****** ****** ****** ****** ****** ****** ******
      ****** ****** ****** ****** ****** ****** ****** ****** ****** ******
  15  ****** ****** ****** ****** ****** ****** ****** ****** ****** ******
      ****** ****** ****** ****** ****** ****** ****** ****** ****** ******
      ****** ****** ****** ****** ****** ****** ****** ****** ****** ******
  16  ****** ****** ****** ****** ****** ****** ****** ****** ****** ******
      ****** ****** ****** ****** ****** ****** ****** ****** ****** ******
      ****** ****** ****** ****** ****** ****** ****** ****** ****** ******
  17  ****** ****** ****** ****** ****** ****** ****** ****** ****** ******
      ****** ****** ****** ****** ****** ****** ****** ****** ****** ******
      ****** ****** ****** ****** ****** ****** ****** ****** ****** ******
  18  ****** ****** ****** ****** ****** ****** ****** ****** ****** ******
      ****** ****** ****** ****** ****** ****** ****** ****** ****** ******
      ****** ****** ****** ****** ****** ****** ****** ****** ****** ******
  19  ****** ****** ****** ****** ****** ****** ****** ****** ****** ******
      ****** ****** ****** ****** ****** ****** ****** ****** ****** ******
      ****** ****** ****** ****** ****** ****** ****** ****** ****** ******
  20  ****** ****** ****** ****** ****** ****** ****** ****** ****** ******
      ****** ****** ****** ****** ****** ****** ****** ****** ****** ******
      ****** ****** ****** ****** ****** ****** ****** ****** ****** ******
  21  ****** ****** ****** ****** ****** ****** ****** ****** ****** ******
      ****** ****** ****** ****** ****** ****** ****** ****** ****** ******
      ****** ****** ****** ****** ****** ****** ****** ****** ****** ******
  22  ****** ****** ****** ****** ****** ****** ****** ****** ****** ******
      ****** ****** ****** ****** ****** ****** ****** ****** ****** ******
      ****** ****** ****** ****** ****** ****** ****** ****** ****** ******
  23  ****** ****** ****** ****** ****** ****** ****** ****** ****** ******
      ****** ****** ****** ****** ****** ****** ****** ****** ****** ******
      ****** ****** ****** ****** ****** ****** ****** ****** ****** ******
  24  ****** ****** ****** ****** ****** ****** ****** ****** ****** ******
      ****** ****** ****** ****** ****** ****** ****** ****** ****** ******
      ****** ****** ****** ****** ****** ****** ****** ****** ****** ******
  25  ****** ****** ****** ****** ****** ****** ****** ****** ****** ******
      ****** ****** ****** ****** ****** ****** ****** ****** ****** ******
      ****** ****** ****** ****** ****** ****** ****** ****** ****** ******

 HEAD WILL BE SAVED ON UNIT   51 AT END OF TIME STEP    1, STRESS PERIOD    7
1
  VOLUMETRIC BUDGET FOR ENTIRE MODEL AT END OF TIME STEP    1, STRESS PERIOD   7
  ------------------------------------------------------------------------------

     CUMULATIVE VOLUMES      L**3       RATES FOR THIS TIME STEP      L**3/T
     ------------------                 ------------------------

           IN:                                      IN:
           ---                                      ---
             STORAGE =    24263716.8939               STORAGE =       11638.7310
       CONSTANT HEAD =   112627174.6839         CONSTANT HEAD =      189963.6108
               WELLS =           0.0000                 WELLS =           0.0000
            RECHARGE =    15097200.0000              RECHARGE =           0.0000
      STREAM LEAKAGE =     4223250.8148        STREAM LEAKAGE =        7054.2687

            TOTAL IN =   156211342.3926              TOTAL IN =      208656.6105

          OUT:                                     OUT:
          ----                                     ----
             STORAGE =      958586.9555               STORAGE =         208.0418
       CONSTANT HEAD =           0.0000         CONSTANT HEAD =           0.0000
               WELLS =    62651983.8887                 WELLS =       95223.4254
            RECHARGE =           0.0000              RECHARGE =           0.0000
      STREAM LEAKAGE =    92600772.3258        STREAM LEAKAGE =      113225.1454

           TOTAL OUT =   156211343.1699             TOTAL OUT =      208656.6126

            IN - OUT =          -0.7773              IN - OUT =      -2.1019E-03

 PERCENT DISCREPANCY =          -0.00     PERCENT DISCREPANCY =          -0.00






         TIME SUMMARY AT END OF TIME STEP    1 IN STRESS PERIOD    7
                    SECONDS     MINUTES      HOURS       DAYS        YEARS
                    -----------------------------------------------------------
   TIME STEP LENGTH 7.86240E+06 1.31040E+05  2184.0      91.000     0.24914    
 STRESS PERIOD TIME 7.86240E+06 1.31040E+05  2184.0      91.000     0.24914    
         TOTAL TIME 5.52096E+07 9.20160E+05  15336.      639.00      1.7495    
1
1
                            STRESS PERIOD NO.    8, LENGTH =   91.00000    
                            -----------------------------------------------

                              NUMBER OF TIME STEPS =     1

                               MULTIPLIER FOR DELT =     1.500

                            INITIAL TIME STEP SIZE =   91.00000    

 WELL NO.  LAYER   ROW   COL   STRESS RATE         
 --------------------------------------------------
      1      1     23     29     -0.2744E+05
      2      1     23      8     -0.3195E+05
      3      1     23     22     -0.3583E+05

      3 WELLS

                 RECHARGE =  1.000000E-03

 REUSING STREAM SEGMENT DATA FROM LAST STRESS PERIOD
 
 SOLVING FOR HEAD 


     6 CALLS TO PCG ROUTINE FOR TIME STEP   1 IN STRESS PERIOD    8
    23 TOTAL ITERATIONS

 OUTPUT CONTROL FOR STRESS PERIOD    8   TIME STEP    1
    SAVE BUDGET
    SAVE HEAD FOR ALL LAYERS
    PRINT HEAD FOR ALL LAYERS
 UBDSV2 SAVING "STREAMFLOW OUT  " ON UNIT  50 AT TIME STEP  1, STRESS PERIOD   8



 STREAM LISTING     PERIOD      8   STEP        1

 LAYER ROW COL. STREAM  RCH.  FLOW INTO     FLOW TO   FLOW OUT OF   OVRLND.     DIRECT     STREAM       STREAM     STREAM     STREAM   STREAMBED  STREAMBED
                SEG.NO.  NO.  STRM. RCH.    AQUIFER    STRM. RCH.    RUNOFF     PRECIP       ET          HEAD       DEPTH      WIDTH   CONDCTNC.   GRADIENT

   1   13    1     1     1    1.0000E+05 -2.7505E+03   1.0275E+05  0.000E+00  0.000E+00  0.000E+00  4.84072E+01  1.458E-01  2.000E+01  2.000E+04 -1.375E-01
   1   13    2     1     2    1.0275E+05 -4.7082E+03   1.0746E+05  0.000E+00  0.000E+00  0.000E+00  4.79331E+01  1.490E-01  2.000E+01  2.000E+04 -2.354E-01
   1   14    3     1     3    1.0746E+05 -3.6293E+03   1.1109E+05  0.000E+00  0.000E+00  0.000E+00  4.74594E+01  1.526E-01  2.000E+01  2.000E+04 -1.815E-01
   1   15    4     1     4    1.1109E+05 -3.3713E+03   1.1446E+05  0.000E+00  0.000E+00  0.000E+00  4.69850E+01  1.555E-01  2.000E+01  2.000E+04 -1.686E-01
   1   16    5     1     5    1.1446E+05 -3.2742E+03   1.1773E+05  0.000E+00  0.000E+00  0.000E+00  4.65105E+01  1.582E-01  2.000E+01  2.000E+04 -1.637E-01
   1   16    6     1     6    1.1773E+05 -2.6026E+03   1.2034E+05  0.000E+00  0.000E+00  0.000E+00  4.60356E+01  1.606E-01  2.000E+01  2.000E+04 -1.301E-01
   1   16    7     1     7    1.2034E+05 -2.6356E+03   1.2297E+05  0.000E+00  0.000E+00  0.000E+00  4.55604E+01  1.627E-01  2.000E+01  2.000E+04 -1.318E-01
   1   16    8     1     8    1.2297E+05 -2.6616E+03   1.2563E+05  0.000E+00  0.000E+00  0.000E+00  4.50853E+01  1.648E-01  2.000E+01  2.000E+04 -1.331E-01
   1   16    9     1     9    1.2563E+05 -2.6856E+03   1.2832E+05  0.000E+00  0.000E+00  0.000E+00  4.46101E+01  1.669E-01  2.000E+01  2.000E+04 -1.343E-01
   1   16   10     1    10    1.2832E+05 -2.7019E+03   1.3102E+05  0.000E+00  0.000E+00  0.000E+00  4.41350E+01  1.691E-01  2.000E+01  2.000E+04 -1.351E-01
   1   16   11     1    11    1.3102E+05 -2.7082E+03   1.3373E+05  0.000E+00  0.000E+00  0.000E+00  4.36598E+01  1.712E-01  2.000E+01  2.000E+04 -1.354E-01
   1   16   12     1    12    1.3373E+05 -3.5530E+03   1.3728E+05  0.000E+00  0.000E+00  0.000E+00  4.31849E+01  1.736E-01  2.000E+01  2.000E+04 -1.777E-01
   1   15   13     1    13    1.3728E+05 -3.5807E+03   1.4086E+05  0.000E+00  0.000E+00  0.000E+00  4.27104E+01  1.763E-01  2.000E+01  2.000E+04 -1.790E-01
   1   14   14     1    14    1.4086E+05 -3.7598E+03   1.4462E+05  0.000E+00  0.000E+00  0.000E+00  4.22359E+01  1.791E-01  2.000E+01  2.000E+04 -1.880E-01
   1   13   15     1    15    1.4462E+05 -4.1346E+03   1.4876E+05  0.000E+00  0.000E+00  0.000E+00  4.17616E+01  1.820E-01  2.000E+01  2.000E+04 -2.067E-01
   1   12   16     1    16    1.4876E+05 -5.4159E+03   1.5417E+05  0.000E+00  0.000E+00  0.000E+00  4.12878E+01  1.856E-01  2.000E+01  2.000E+04 -2.708E-01
   1   12   17     1    17    1.5417E+05 -3.5207E+03   1.5769E+05  0.000E+00  0.000E+00  0.000E+00  4.08138E+01  1.888E-01  2.000E+01  2.000E+04 -1.760E-01
   1   12   18     1    18    1.5769E+05 -3.3785E+03   1.6107E+05  0.000E+00  0.000E+00  0.000E+00  4.03391E+01  1.913E-01  2.000E+01  2.000E+04 -1.689E-01
   1   12   19     1    19    1.6107E+05 -4.4642E+03   1.6554E+05  0.000E+00  0.000E+00  0.000E+00  3.98646E+01  1.941E-01  2.000E+01  2.000E+04 -2.232E-01
   1   13   20     1    20    1.6554E+05 -2.7714E+03   1.6831E+05  0.000E+00  0.000E+00  0.000E+00  3.93899E+01  1.967E-01  2.000E+01  2.000E+04 -1.386E-01
   1   14   21     1    21    1.6831E+05 -1.7093E+03   1.7002E+05  0.000E+00  0.000E+00  0.000E+00  3.89142E+01  1.983E-01  2.000E+01  2.000E+04 -8.546E-02
   1   14   22     1    22    1.7002E+05  5.1093E+03   1.6491E+05  0.000E+00  0.000E+00  0.000E+00  3.84357E+01  1.971E-01  2.000E+01  2.000E+04  2.555E-01
   1    9   30     2     1    5.0000E+04 -2.7787E+03   5.2779E+04  0.000E+00  0.000E+00  0.000E+00  4.02428E+01  1.178E-01  2.000E+01  2.000E+04 -1.389E-01
   1    9   29     2     2    5.2779E+04 -3.1108E+03   5.5889E+04  0.000E+00  0.000E+00  0.000E+00  3.99968E+01  1.218E-01  2.000E+01  2.000E+04 -1.555E-01
   1    9   28     2     3    5.5889E+04 -3.4917E+03   5.9381E+04  0.000E+00  0.000E+00  0.000E+00  3.97512E+01  1.262E-01  2.000E+01  2.000E+04 -1.746E-01
   1    9   27     2     4    5.9381E+04 -6.2195E+03   6.5601E+04  0.000E+00  0.000E+00  0.000E+00  3.95075E+01  1.325E-01  2.000E+01  2.000E+04 -3.110E-01
   1   10   26     2     5    6.5601E+04 -3.8511E+03   6.9452E+04  0.000E+00  0.000E+00  0.000E+00  3.92638E+01  1.388E-01  2.000E+01  2.000E+04 -1.926E-01
   1   11   25     2     6    6.9452E+04 -2.8072E+03   7.2259E+04  0.000E+00  0.000E+00  0.000E+00  3.90178E+01  1.428E-01  2.000E+01  2.000E+04 -1.404E-01
   1   12   24     2     7    7.2259E+04 -1.9627E+03   7.4222E+04  0.000E+00  0.000E+00  0.000E+00  3.87707E+01  1.457E-01  2.000E+01  2.000E+04 -9.813E-02
   1   13   23     2     8    7.4222E+04 -1.1418E+03   7.5364E+04  0.000E+00  0.000E+00  0.000E+00  3.85225E+01  1.475E-01  2.000E+01  2.000E+04 -5.709E-02
   1   14   22     2     9    7.5364E+04  1.8371E+03   7.3526E+04  0.000E+00  0.000E+00  0.000E+00  3.82721E+01  1.471E-01  2.000E+01  2.000E+04  9.185E-02
   1   14   22     3     1    2.3843E+05 -8.4082E+03   2.4684E+05  0.000E+00  0.000E+00  0.000E+00  3.77599E+01  2.043E-01  2.000E+01  2.000E+04 -4.204E-01
   1   15   23     3     2    2.4684E+05 -1.9521E+03   2.4879E+05  0.000E+00  0.000E+00  0.000E+00  3.68736E+01  2.069E-01  2.000E+01  2.000E+04 -9.760E-02
   1   15   24     3     3    2.4879E+05 -1.4013E+03   2.5020E+05  0.000E+00  0.000E+00  0.000E+00  3.59855E+01  2.077E-01  2.000E+01  2.000E+04 -7.006E-02
   1   15   25     3     4    2.5020E+05 -1.3919E+03   2.5159E+05  0.000E+00  0.000E+00  0.000E+00  3.50973E+01  2.084E-01  2.000E+01  2.000E+04 -6.959E-02
   1   15   26     3     5    2.5159E+05 -1.9225E+03   2.5351E+05  0.000E+00  0.000E+00  0.000E+00  3.42093E+01  2.093E-01  2.000E+01  2.000E+04 -9.613E-02
   1   16   27     3     6    2.5351E+05 -2.2705E+03   2.5578E+05  0.000E+00  0.000E+00  0.000E+00  3.33214E+01  2.103E-01  2.000E+01  2.000E+04 -1.135E-01
   1   17   28     3     7    2.5578E+05 -2.5322E+03   2.5831E+05  0.000E+00  0.000E+00  0.000E+00  3.24337E+01  2.115E-01  2.000E+01  2.000E+04 -1.266E-01
   1   18   29     3     8    2.5831E+05 -2.8101E+03   2.6112E+05  0.000E+00  0.000E+00  0.000E+00  3.15461E+01  2.128E-01  2.000E+01  2.000E+04 -1.405E-01
   1   18   30     3     9    2.6112E+05 -2.7589E+03   2.6388E+05  0.000E+00  0.000E+00  0.000E+00  3.06586E+01  2.142E-01  2.000E+01  2.000E+04 -1.379E-01



1
              HEAD IN LAYER   1 AT END OF TIME STEP   1 IN STRESS PERIOD    8
  ---------------------------------------------------------------------------

          1      2      3      4      5      6      7      8      9     10
         11     12     13     14     15     16     17     18     19     20
         21     22     23     24     25     26     27     28     29     30
 .........................................................................
   1  ****** ****** ****** ****** ****** ****** ****** ****** ****** ******
      ****** ****** ****** ****** ****** ****** ****** ****** ****** ******
      ****** ****** ****** ****** ****** ****** ****** ****** ****** ******
   2  ****** ****** ****** ****** ****** ****** ****** ****** ****** ******
      ****** ****** ****** ****** ****** ****** ****** ****** ****** ******
      ****** ****** ****** ****** ****** ****** ****** ****** ****** ******
   3  ****** ****** ****** ****** ****** ****** ****** ****** ****** ******
      ****** ****** ****** ****** ****** ****** ****** ****** ****** ******
      ****** ****** ****** ****** ****** ****** ****** ****** ****** ******
   4  ****** ****** ****** ****** ****** ****** ****** ****** ****** ******
      ****** ****** ****** ****** ****** ****** ****** ****** ****** ******
      ****** ****** ****** ****** ****** ****** ****** ****** ****** ******
   5  ****** ****** ****** ****** ****** ****** ****** ****** ****** ******
      ****** ****** ****** ****** ****** ****** ****** ****** ****** ******
      ****** ****** ****** ****** ****** ****** ****** ****** ****** ******
   6  ****** ****** ****** ****** ****** ****** ****** ****** ****** ******
      ****** ****** ****** ****** ****** ****** ****** ****** ****** ******
      ****** ****** ****** ****** ****** ****** ****** ****** ****** ******
   7  ****** ****** ****** ****** ****** ****** ****** ****** ****** ******
      ****** ****** ****** ****** ****** ****** ****** ****** ****** ******
      ****** ****** ****** ****** ****** ****** ****** ****** ****** ******
   8  ****** ****** ****** ****** ****** ****** ****** ****** ****** ******
      ****** ****** ****** ****** ****** ****** ****** ****** ****** ******
      ****** ****** ****** ****** ****** ****** ****** ****** ****** ******
   9  ****** ****** ****** ****** ****** ****** ****** ****** ****** ******
      ****** ****** ****** ****** ****** ****** ****** ****** ****** ******
      ****** ****** ****** ****** ****** ****** ****** ****** ****** ******
  10  ****** ****** ****** ****** ****** ****** ****** ****** ****** ******
      ****** ****** ****** ****** ****** ****** ****** ****** ****** ******
      ****** ****** ****** ****** ****** ****** ****** ****** ****** ******
  11  ****** ****** ****** ****** ****** ****** ****** ****** ****** ******
      ****** ****** ****** ****** ****** ****** ****** ****** ****** ******
      ****** ****** ****** ****** ****** ****** ****** ****** ****** ******
  12  ****** ****** ****** ****** ****** ****** ****** ****** ****** ******
      ****** ****** ****** ****** ****** ****** ****** ****** ****** ******
      ****** ****** ****** ****** ****** ****** ****** ****** ****** ******
  13  ****** ****** ****** ****** ****** ****** ****** ****** ****** ******
      ****** ****** ****** ****** ****** ****** ****** ****** ****** ******
      ****** ****** ****** ****** ****** ****** ****** ****** ****** ******
  14  ****** ****** ****** ****** ****** ****** ****** ****** ****** ******
      ****** ****** ****** ****** ****** ****** ****** ****** ****** ******
      ****** ****** ****** ****** ****** ****** ****** ****** ****** ******
  15  ****** ****** ****** ****** ****** ****** ****** ****** ****** ******
      ****** ****** ****** ****** ****** ****** ****** ****** ****** ******
      ****** ****** ****** ****** ****** ****** ****** ****** ****** ******
  16  ****** ****** ****** ****** ****** ****** ****** ****** ****** ******
      ****** ****** ****** ****** ****** ****** ****** ****** ****** ******
      ****** ****** ****** ****** ****** ****** ****** ****** ****** ******
  17  ****** ****** ****** ****** ****** ****** ****** ****** ****** ******
      ****** ****** ****** ****** ****** ****** ****** ****** ****** ******
      ****** ****** ****** ****** ****** ****** ****** ****** ****** ******
  18  ****** ****** ****** ****** ****** ****** ****** ****** ****** ******
      ****** ****** ****** ****** ****** ****** ****** ****** ****** ******
      ****** ****** ****** ****** ****** ****** ****** ****** ****** ******
  19  ****** ****** ****** ****** ****** ****** ****** ****** ****** ******
      ****** ****** ****** ****** ****** ****** ****** ****** ****** ******
      ****** ****** ****** ****** ****** ****** ****** ****** ****** ******
  20  ****** ****** ****** ****** ****** ****** ****** ****** ****** ******
      ****** ****** ****** ****** ****** ****** ****** ****** ****** ******
      ****** ****** ****** ****** ****** ****** ****** ****** ****** ******
  21  ****** ****** ****** ****** ****** ****** ****** ****** ****** ******
      ****** ****** ****** ****** ****** ****** ****** ****** ****** ******
      ****** ****** ****** ****** ****** ****** ****** ****** ****** ******
  22  ****** ****** ****** ****** ****** ****** ****** ****** ****** ******
      ****** ****** ****** ****** ****** ****** ****** ****** ****** ******
      ****** ****** ****** ****** ****** ****** ****** ****** ****** ******
  23  ****** ****** ****** ****** ****** ****** ****** ****** ****** ******
      ****** ****** ****** ****** ****** ****** ****** ****** ****** ******
      ****** ****** ****** ****** ****** ****** ****** ****** ****** ******
  24  ****** ****** ****** ****** ****** ****** ****** ****** ****** ******
      ****** ****** ****** ****** ****** ****** ****** ****** ****** ******
      ****** ****** ****** ****** ****** ****** ****** ****** ****** ******
  25  ****** ****** ****** ****** ****** ****** ****** ****** ****** ******
      ****** ****** ****** ****** ****** ****** ****** ****** ****** ******
      ****** ****** ****** ****** ****** ****** ****** ****** ****** ******

 HEAD WILL BE SAVED ON UNIT   51 AT END OF TIME STEP    1, STRESS PERIOD    8
1
  VOLUMETRIC BUDGET FOR ENTIRE MODEL AT END OF TIME STEP    1, STRESS PERIOD   8
  ------------------------------------------------------------------------------

     CUMULATIVE VOLUMES      L**3       RATES FOR THIS TIME STEP      L**3/T
     ------------------                 ------------------------

           IN:                                      IN:
           ---                                      ---
             STORAGE =    24263716.8939               STORAGE =           0.0000
       CONSTANT HEAD =   129488853.8805         CONSTANT HEAD =      185293.1780
               WELLS =           0.0000                 WELLS =           0.0000
            RECHARGE =    17608800.0000              RECHARGE =       27600.0000
      STREAM LEAKAGE =     4855365.1448        STREAM LEAKAGE =        6946.3113

            TOTAL IN =   176216735.9192              TOTAL IN =      219839.4893

          OUT:                                     OUT:
          ----                                     ----
             STORAGE =     1303278.1647               STORAGE =        3787.8155
       CONSTANT HEAD =           0.0000         CONSTANT HEAD =           0.0000
               WELLS =    71317315.5965                 WELLS =       95223.4254
            RECHARGE =           0.0000              RECHARGE =           0.0000
      STREAM LEAKAGE =   103596142.8585        STREAM LEAKAGE =      120828.2476

           TOTAL OUT =   176216736.6197             TOTAL OUT =      219839.4885

            IN - OUT =          -0.7005              IN - OUT =       8.4405E-04

 PERCENT DISCREPANCY =          -0.00     PERCENT DISCREPANCY =           0.00






         TIME SUMMARY AT END OF TIME STEP    1 IN STRESS PERIOD    8
                    SECONDS     MINUTES      HOURS       DAYS        YEARS
                    -----------------------------------------------------------
   TIME STEP LENGTH 7.86240E+06 1.31040E+05  2184.0      91.000     0.24914    
 STRESS PERIOD TIME 7.86240E+06 1.31040E+05  2184.0      91.000     0.24914    
         TOTAL TIME 6.30720E+07 1.05120E+06  17520.      730.00      1.9986    
1
1
                            STRESS PERIOD NO.    9, LENGTH =   92.00000    
                            -----------------------------------------------

                              NUMBER OF TIME STEPS =     1

                               MULTIPLIER FOR DELT =     1.500

                            INITIAL TIME STEP SIZE =   92.00000    

 WELL NO.  LAYER   ROW   COL   STRESS RATE         
 --------------------------------------------------
      1      1     23     29     -0.2744E+05
      2      1     23      8     -0.3195E+05
      3      1     23     22     -0.3583E+05

      3 WELLS

                 RECHARGE =  5.000000E-04

 REUSING STREAM SEGMENT DATA FROM LAST STRESS PERIOD
 
 SOLVING FOR HEAD 


     6 CALLS TO PCG ROUTINE FOR TIME STEP   1 IN STRESS PERIOD    9
    22 TOTAL ITERATIONS

 OUTPUT CONTROL FOR STRESS PERIOD    9   TIME STEP    1
    SAVE BUDGET
    SAVE HEAD FOR ALL LAYERS
    PRINT HEAD FOR ALL LAYERS
 UBDSV2 SAVING "STREAMFLOW OUT  " ON UNIT  50 AT TIME STEP  1, STRESS PERIOD   9



 STREAM LISTING     PERIOD      9   STEP        1

 LAYER ROW COL. STREAM  RCH.  FLOW INTO     FLOW TO   FLOW OUT OF   OVRLND.     DIRECT     STREAM       STREAM     STREAM     STREAM   STREAMBED  STREAMBED
                SEG.NO.  NO.  STRM. RCH.    AQUIFER    STRM. RCH.    RUNOFF     PRECIP       ET          HEAD       DEPTH      WIDTH   CONDCTNC.   GRADIENT

   1   13    1     1     1    1.0000E+05 -2.6363E+03   1.0264E+05  0.000E+00  0.000E+00  0.000E+00  4.84072E+01  1.458E-01  2.000E+01  2.000E+04 -1.318E-01
   1   13    2     1     2    1.0264E+05 -4.5572E+03   1.0719E+05  0.000E+00  0.000E+00  0.000E+00  4.79330E+01  1.489E-01  2.000E+01  2.000E+04 -2.279E-01
   1   14    3     1     3    1.0719E+05 -3.4775E+03   1.1067E+05  0.000E+00  0.000E+00  0.000E+00  4.74591E+01  1.523E-01  2.000E+01  2.000E+04 -1.739E-01
   1   15    4     1     4    1.1067E+05 -3.2232E+03   1.1389E+05  0.000E+00  0.000E+00  0.000E+00  4.69846E+01  1.551E-01  2.000E+01  2.000E+04 -1.612E-01
   1   16    5     1     5    1.1389E+05 -3.1430E+03   1.1704E+05  0.000E+00  0.000E+00  0.000E+00  4.65100E+01  1.577E-01  2.000E+01  2.000E+04 -1.571E-01
   1   16    6     1     6    1.1704E+05 -2.4963E+03   1.1953E+05  0.000E+00  0.000E+00  0.000E+00  4.60350E+01  1.600E-01  2.000E+01  2.000E+04 -1.248E-01
   1   16    7     1     7    1.1953E+05 -2.5272E+03   1.2206E+05  0.000E+00  0.000E+00  0.000E+00  4.55597E+01  1.620E-01  2.000E+01  2.000E+04 -1.264E-01
   1   16    8     1     8    1.2206E+05 -2.5520E+03   1.2461E+05  0.000E+00  0.000E+00  0.000E+00  4.50845E+01  1.641E-01  2.000E+01  2.000E+04 -1.276E-01
   1   16    9     1     9    1.2461E+05 -2.5758E+03   1.2719E+05  0.000E+00  0.000E+00  0.000E+00  4.46093E+01  1.661E-01  2.000E+01  2.000E+04 -1.288E-01
   1   16   10     1    10    1.2719E+05 -2.5929E+03   1.2978E+05  0.000E+00  0.000E+00  0.000E+00  4.41340E+01  1.681E-01  2.000E+01  2.000E+04 -1.296E-01
   1   16   11     1    11    1.2978E+05 -2.6004E+03   1.3238E+05  0.000E+00  0.000E+00  0.000E+00  4.36588E+01  1.702E-01  2.000E+01  2.000E+04 -1.300E-01
   1   16   12     1    12    1.3238E+05 -3.4162E+03   1.3580E+05  0.000E+00  0.000E+00  0.000E+00  4.31839E+01  1.725E-01  2.000E+01  2.000E+04 -1.708E-01
   1   15   13     1    13    1.3580E+05 -3.4273E+03   1.3923E+05  0.000E+00  0.000E+00  0.000E+00  4.27092E+01  1.751E-01  2.000E+01  2.000E+04 -1.714E-01
   1   14   14     1    14    1.3923E+05 -3.6024E+03   1.4283E+05  0.000E+00  0.000E+00  0.000E+00  4.22346E+01  1.778E-01  2.000E+01  2.000E+04 -1.801E-01
   1   13   15     1    15    1.4283E+05 -3.9791E+03   1.4681E+05  0.000E+00  0.000E+00  0.000E+00  4.17602E+01  1.806E-01  2.000E+01  2.000E+04 -1.990E-01
   1   12   16     1    16    1.4681E+05 -5.2681E+03   1.5207E+05  0.000E+00  0.000E+00  0.000E+00  4.12864E+01  1.841E-01  2.000E+01  2.000E+04 -2.634E-01
   1   12   17     1    17    1.5207E+05 -3.4099E+03   1.5548E+05  0.000E+00  0.000E+00  0.000E+00  4.08123E+01  1.873E-01  2.000E+01  2.000E+04 -1.705E-01
   1   12   18     1    18    1.5548E+05 -3.2698E+03   1.5875E+05  0.000E+00  0.000E+00  0.000E+00  4.03374E+01  1.897E-01  2.000E+01  2.000E+04 -1.635E-01
   1   12   19     1    19    1.5875E+05 -4.3323E+03   1.6309E+05  0.000E+00  0.000E+00  0.000E+00  3.98629E+01  1.924E-01  2.000E+01  2.000E+04 -2.166E-01
   1   13   20     1    20    1.6309E+05 -2.6409E+03   1.6573E+05  0.000E+00  0.000E+00  0.000E+00  3.93881E+01  1.949E-01  2.000E+01  2.000E+04 -1.320E-01
   1   14   21     1    21    1.6573E+05 -1.5901E+03   1.6732E+05  0.000E+00  0.000E+00  0.000E+00  3.89123E+01  1.964E-01  2.000E+01  2.000E+04 -7.950E-02
   1   14   22     1    22    1.6732E+05  5.1329E+03   1.6218E+05  0.000E+00  0.000E+00  0.000E+00  3.84338E+01  1.952E-01  2.000E+01  2.000E+04  2.566E-01
   1    9   30     2     1    5.0000E+04 -2.6792E+03   5.2679E+04  0.000E+00  0.000E+00  0.000E+00  4.02427E+01  1.177E-01  2.000E+01  2.000E+04 -1.340E-01
   1    9   29     2     2    5.2679E+04 -3.0119E+03   5.5691E+04  0.000E+00  0.000E+00  0.000E+00  3.99966E+01  1.216E-01  2.000E+01  2.000E+04 -1.506E-01
   1    9   28     2     3    5.5691E+04 -3.3933E+03   5.9084E+04  0.000E+00  0.000E+00  0.000E+00  3.97509E+01  1.259E-01  2.000E+01  2.000E+04 -1.697E-01
   1    9   27     2     4    5.9084E+04 -6.0902E+03   6.5175E+04  0.000E+00  0.000E+00  0.000E+00  3.95070E+01  1.320E-01  2.000E+01  2.000E+04 -3.045E-01
   1   10   26     2     5    6.5175E+04 -3.7152E+03   6.8890E+04  0.000E+00  0.000E+00  0.000E+00  3.92631E+01  1.381E-01  2.000E+01  2.000E+04 -1.858E-01
   1   11   25     2     6    6.8890E+04 -2.6759E+03   7.1566E+04  0.000E+00  0.000E+00  0.000E+00  3.90171E+01  1.421E-01  2.000E+01  2.000E+04 -1.338E-01
   1   12   24     2     7    7.1566E+04 -1.8447E+03   7.3410E+04  0.000E+00  0.000E+00  0.000E+00  3.87698E+01  1.448E-01  2.000E+01  2.000E+04 -9.223E-02
   1   13   23     2     8    7.3410E+04 -1.0475E+03   7.4458E+04  0.000E+00  0.000E+00  0.000E+00  3.85215E+01  1.465E-01  2.000E+01  2.000E+04 -5.238E-02
   1   14   22     2     9    7.4458E+04  1.8771E+03   7.2581E+04  0.000E+00  0.000E+00  0.000E+00  3.82710E+01  1.460E-01  2.000E+01  2.000E+04  9.386E-02
   1   14   22     3     1    2.3477E+05 -8.3834E+03   2.4315E+05  0.000E+00  0.000E+00  0.000E+00  3.77580E+01  2.024E-01  2.000E+01  2.000E+04 -4.192E-01
   1   15   23     3     2    2.4315E+05 -1.8409E+03   2.4499E+05  0.000E+00  0.000E+00  0.000E+00  3.68717E+01  2.050E-01  2.000E+01  2.000E+04 -9.204E-02
   1   15   24     3     3    2.4499E+05 -1.3191E+03   2.4631E+05  0.000E+00  0.000E+00  0.000E+00  3.59836E+01  2.058E-01  2.000E+01  2.000E+04 -6.596E-02
   1   15   25     3     4    2.4631E+05 -1.3094E+03   2.4762E+05  0.000E+00  0.000E+00  0.000E+00  3.50954E+01  2.065E-01  2.000E+01  2.000E+04 -6.547E-02
   1   15   26     3     5    2.4762E+05 -1.8173E+03   2.4944E+05  0.000E+00  0.000E+00  0.000E+00  3.42073E+01  2.073E-01  2.000E+01  2.000E+04 -9.087E-02
   1   16   27     3     6    2.4944E+05 -2.1416E+03   2.5158E+05  0.000E+00  0.000E+00  0.000E+00  3.33194E+01  2.083E-01  2.000E+01  2.000E+04 -1.071E-01
   1   17   28     3     7    2.5158E+05 -2.4029E+03   2.5398E+05  0.000E+00  0.000E+00  0.000E+00  3.24316E+01  2.094E-01  2.000E+01  2.000E+04 -1.201E-01
   1   18   29     3     8    2.5398E+05 -2.6944E+03   2.5667E+05  0.000E+00  0.000E+00  0.000E+00  3.15440E+01  2.106E-01  2.000E+01  2.000E+04 -1.347E-01
   1   18   30     3     9    2.5667E+05 -2.6703E+03   2.5935E+05  0.000E+00  0.000E+00  0.000E+00  3.06564E+01  2.120E-01  2.000E+01  2.000E+04 -1.335E-01



1
              HEAD IN LAYER   1 AT END OF TIME STEP   1 IN STRESS PERIOD    9
  ---------------------------------------------------------------------------

          1      2      3      4      5      6      7      8      9     10
         11     12     13     14     15     16     17     18     19     20
         21     22     23     24     25     26     27     28     29     30
 .........................................................................
   1  ****** ****** ****** ****** ****** ****** ****** ****** ****** ******
      ****** ****** ****** ****** ****** ****** ****** ****** ****** ******
      ****** ****** ****** ****** ****** ****** ****** ****** ****** ******
   2  ****** ****** ****** ****** ****** ****** ****** ****** ****** ******
      ****** ****** ****** ****** ****** ****** ****** ****** ****** ******
      ****** ****** ****** ****** ****** ****** ****** ****** ****** ******
   3  ****** ****** ****** ****** ****** ****** ****** ****** ****** ******
      ****** ****** ****** ****** ****** ****** ****** ****** ****** ******
      ****** ****** ****** ****** ****** ****** ****** ****** ****** ******
   4  ****** ****** ****** ****** ****** ****** ****** ****** ****** ******
      ****** ****** ****** ****** ****** ****** ****** ****** ****** ******
      ****** ****** ****** ****** ****** ****** ****** ****** ****** ******
   5  ****** ****** ****** ****** ****** ****** ****** ****** ****** ******
      ****** ****** ****** ****** ****** ****** ****** ****** ****** ******
      ****** ****** ****** ****** ****** ****** ****** ****** ****** ******
   6  ****** ****** ****** ****** ****** ****** ****** ****** ****** ******
      ****** ****** ****** ****** ****** ****** ****** ****** ****** ******
      ****** ****** ****** ****** ****** ****** ****** ****** ****** ******
   7  ****** ****** ****** ****** ****** ****** ****** ****** ****** ******
      ****** ****** ****** ****** ****** ****** ****** ****** ****** ******
      ****** ****** ****** ****** ****** ****** ****** ****** ****** ******
   8  ****** ****** ****** ****** ****** ****** ****** ****** ****** ******
      ****** ****** ****** ****** ****** ****** ****** ****** ****** ******
      ****** ****** ****** ****** ****** ****** ****** ****** ****** ******
   9  ****** ****** ****** ****** ****** ****** ****** ****** ****** ******
      ****** ****** ****** ****** ****** ****** ****** ****** ****** ******
      ****** ****** ****** ****** ****** ****** ****** ****** ****** ******
  10  ****** ****** ****** ****** ****** ****** ****** ****** ****** ******
      ****** ****** ****** ****** ****** ****** ****** ****** ****** ******
      ****** ****** ****** ****** ****** ****** ****** ****** ****** ******
  11  ****** ****** ****** ****** ****** ****** ****** ****** ****** ******
      ****** ****** ****** ****** ****** ****** ****** ****** ****** ******
      ****** ****** ****** ****** ****** ****** ****** ****** ****** ******
  12  ****** ****** ****** ****** ****** ****** ****** ****** ****** ******
      ****** ****** ****** ****** ****** ****** ****** ****** ****** ******
      ****** ****** ****** ****** ****** ****** ****** ****** ****** ******
  13  ****** ****** ****** ****** ****** ****** ****** ****** ****** ******
      ****** ****** ****** ****** ****** ****** ****** ****** ****** ******
      ****** ****** ****** ****** ****** ****** ****** ****** ****** ******
  14  ****** ****** ****** ****** ****** ****** ****** ****** ****** ******
      ****** ****** ****** ****** ****** ****** ****** ****** ****** ******
      ****** ****** ****** ****** ****** ****** ****** ****** ****** ******
  15  ****** ****** ****** ****** ****** ****** ****** ****** ****** ******
      ****** ****** ****** ****** ****** ****** ****** ****** ****** ******
      ****** ****** ****** ****** ****** ****** ****** ****** ****** ******
  16  ****** ****** ****** ****** ****** ****** ****** ****** ****** ******
      ****** ****** ****** ****** ****** ****** ****** ****** ****** ******
      ****** ****** ****** ****** ****** ****** ****** ****** ****** ******
  17  ****** ****** ****** ****** ****** ****** ****** ****** ****** ******
      ****** ****** ****** ****** ****** ****** ****** ****** ****** ******
      ****** ****** ****** ****** ****** ****** ****** ****** ****** ******
  18  ****** ****** ****** ****** ****** ****** ****** ****** ****** ******
      ****** ****** ****** ****** ****** ****** ****** ****** ****** ******
      ****** ****** ****** ****** ****** ****** ****** ****** ****** ******
  19  ****** ****** ****** ****** ****** ****** ****** ****** ****** ******
      ****** ****** ****** ****** ****** ****** ****** ****** ****** ******
      ****** ****** ****** ****** ****** ****** ****** ****** ****** ******
  20  ****** ****** ****** ****** ****** ****** ****** ****** ****** ******
      ****** ****** ****** ****** ****** ****** ****** ****** ****** ******
      ****** ****** ****** ****** ****** ****** ****** ****** ****** ******
  21  ****** ****** ****** ****** ****** ****** ****** ****** ****** ******
      ****** ****** ****** ****** ****** ****** ****** ****** ****** ******
      ****** ****** ****** ****** ****** ****** ****** ****** ****** ******
  22  ****** ****** ****** ****** ****** ****** ****** ****** ****** ******
      ****** ****** ****** ****** ****** ****** ****** ****** ****** ******
      ****** ****** ****** ****** ****** ****** ****** ****** ****** ******
  23  ****** ****** ****** ****** ****** ****** ****** ****** ****** ******
      ****** ****** ****** ****** ****** ****** ****** ****** ****** ******
      ****** ****** ****** ****** ****** ****** ****** ****** ****** ******
  24  ****** ****** ****** ****** ****** ****** ****** ****** ****** ******
      ****** ****** ****** ****** ****** ****** ****** ****** ****** ******
      ****** ****** ****** ****** ****** ****** ****** ****** ****** ******
  25  ****** ****** ****** ****** ****** ****** ****** ****** ****** ******
      ****** ****** ****** ****** ****** ****** ****** ****** ****** ******
      ****** ****** ****** ****** ****** ****** ****** ****** ****** ******

 HEAD WILL BE SAVED ON UNIT   51 AT END OF TIME STEP    1, STRESS PERIOD    9
1
  VOLUMETRIC BUDGET FOR ENTIRE MODEL AT END OF TIME STEP    1, STRESS PERIOD   9
  ------------------------------------------------------------------------------

     CUMULATIVE VOLUMES      L**3       RATES FOR THIS TIME STEP      L**3/T
     ------------------                 ------------------------

           IN:                                      IN:
           ---                                      ---
             STORAGE =    24506758.6558               STORAGE =        2641.7583
       CONSTANT HEAD =   146796511.5774         CONSTANT HEAD =      188126.7141
               WELLS =           0.0000                 WELLS =           0.0000
            RECHARGE =    18878400.0000              RECHARGE =       13800.0000
      STREAM LEAKAGE =     5500290.3953        STREAM LEAKAGE =        7010.0571

            TOTAL IN =   195681960.6285              TOTAL IN =      211578.5294

          OUT:                                     OUT:
          ----                                     ----
             STORAGE =     1303278.1647               STORAGE =           0.0000
       CONSTANT HEAD =           0.0000         CONSTANT HEAD =           0.0000
               WELLS =    80077870.7297                 WELLS =       95223.4254
            RECHARGE =           0.0000              RECHARGE =           0.0000
      STREAM LEAKAGE =   114300812.7081        STREAM LEAKAGE =      116355.1071

           TOTAL OUT =   195681961.6025             TOTAL OUT =      211578.5324

            IN - OUT =          -0.9740              IN - OUT =      -2.9726E-03

 PERCENT DISCREPANCY =          -0.00     PERCENT DISCREPANCY =          -0.00






         TIME SUMMARY AT END OF TIME STEP    1 IN STRESS PERIOD    9
                    SECONDS     MINUTES      HOURS       DAYS        YEARS
                    -----------------------------------------------------------
   TIME STEP LENGTH 7.94880E+06 1.32480E+05  2208.0      92.000     0.25188    
 STRESS PERIOD TIME 7.94880E+06 1.32480E+05  2208.0      92.000     0.25188    
         TOTAL TIME 7.10208E+07 1.18368E+06  19728.      822.00      2.2505    
1
1
                            STRESS PERIOD NO.   10, LENGTH =   91.00000    
                            -----------------------------------------------

                              NUMBER OF TIME STEPS =     1

                               MULTIPLIER FOR DELT =     1.500

                            INITIAL TIME STEP SIZE =   91.00000    

 WELL NO.  LAYER   ROW   COL   STRESS RATE         
 --------------------------------------------------
      1      1     23     29     -0.2744E+05
      2      1     23      8     -0.3195E+05
      3      1     23     22     -0.3583E+05

      3 WELLS

                 RECHARGE =  2.000000E-03

 REUSING STREAM SEGMENT DATA FROM LAST STRESS PERIOD
 
 SOLVING FOR HEAD 


     7 CALLS TO PCG ROUTINE FOR TIME STEP   1 IN STRESS PERIOD   10
    26 TOTAL ITERATIONS

 OUTPUT CONTROL FOR STRESS PERIOD   10   TIME STEP    1
    SAVE BUDGET
    SAVE HEAD FOR ALL LAYERS
    PRINT HEAD FOR ALL LAYERS
 UBDSV2 SAVING "STREAMFLOW OUT  " ON UNIT  50 AT TIME STEP  1, STRESS PERIOD  10



 STREAM LISTING     PERIOD     10   STEP        1

 LAYER ROW COL. STREAM  RCH.  FLOW INTO     FLOW TO   FLOW OUT OF   OVRLND.     DIRECT     STREAM       STREAM     STREAM     STREAM   STREAMBED  STREAMBED
                SEG.NO.  NO.  STRM. RCH.    AQUIFER    STRM. RCH.    RUNOFF     PRECIP       ET          HEAD       DEPTH      WIDTH   CONDCTNC.   GRADIENT

   1   13    1     1     1    1.0000E+05 -3.0599E+03   1.0306E+05  0.000E+00  0.000E+00  0.000E+00  4.84073E+01  1.460E-01  2.000E+01  2.000E+04 -1.530E-01
   1   13    2     1     2    1.0306E+05 -5.1197E+03   1.0818E+05  0.000E+00  0.000E+00  0.000E+00  4.79336E+01  1.495E-01  2.000E+01  2.000E+04 -2.560E-01
   1   14    3     1     3    1.0818E+05 -4.0451E+03   1.1222E+05  0.000E+00  0.000E+00  0.000E+00  4.74602E+01  1.533E-01  2.000E+01  2.000E+04 -2.023E-01
   1   15    4     1     4    1.1222E+05 -3.7842E+03   1.1601E+05  0.000E+00  0.000E+00  0.000E+00  4.69861E+01  1.566E-01  2.000E+01  2.000E+04 -1.892E-01
   1   16    5     1     5    1.1601E+05 -3.6600E+03   1.1967E+05  0.000E+00  0.000E+00  0.000E+00  4.65119E+01  1.596E-01  2.000E+01  2.000E+04 -1.830E-01
   1   16    6     1     6    1.1967E+05 -2.9048E+03   1.2257E+05  0.000E+00  0.000E+00  0.000E+00  4.60373E+01  1.623E-01  2.000E+01  2.000E+04 -1.452E-01
   1   16    7     1     7    1.2257E+05 -2.9424E+03   1.2552E+05  0.000E+00  0.000E+00  0.000E+00  4.55623E+01  1.646E-01  2.000E+01  2.000E+04 -1.471E-01
   1   16    8     1     8    1.2552E+05 -2.9710E+03   1.2849E+05  0.000E+00  0.000E+00  0.000E+00  4.50874E+01  1.670E-01  2.000E+01  2.000E+04 -1.486E-01
   1   16    9     1     9    1.2849E+05 -2.9946E+03   1.3148E+05  0.000E+00  0.000E+00  0.000E+00  4.46125E+01  1.693E-01  2.000E+01  2.000E+04 -1.497E-01
   1   16   10     1    10    1.3148E+05 -3.0077E+03   1.3449E+05  0.000E+00  0.000E+00  0.000E+00  4.41375E+01  1.716E-01  2.000E+01  2.000E+04 -1.504E-01
   1   16   11     1    11    1.3449E+05 -3.0093E+03   1.3750E+05  0.000E+00  0.000E+00  0.000E+00  4.36626E+01  1.740E-01  2.000E+01  2.000E+04 -1.505E-01
   1   16   12     1    12    1.3750E+05 -3.9417E+03   1.4144E+05  0.000E+00  0.000E+00  0.000E+00  4.31880E+01  1.766E-01  2.000E+01  2.000E+04 -1.971E-01
   1   15   13     1    13    1.4144E+05 -3.9996E+03   1.4544E+05  0.000E+00  0.000E+00  0.000E+00  4.27137E+01  1.796E-01  2.000E+01  2.000E+04 -2.000E-01
   1   14   14     1    14    1.4544E+05 -4.1859E+03   1.4963E+05  0.000E+00  0.000E+00  0.000E+00  4.22395E+01  1.827E-01  2.000E+01  2.000E+04 -2.093E-01
   1   13   15     1    15    1.4963E+05 -4.5537E+03   1.5418E+05  0.000E+00  0.000E+00  0.000E+00  4.17654E+01  1.859E-01  2.000E+01  2.000E+04 -2.277E-01
   1   12   16     1    16    1.5418E+05 -5.8204E+03   1.6000E+05  0.000E+00  0.000E+00  0.000E+00  4.12919E+01  1.897E-01  2.000E+01  2.000E+04 -2.910E-01
   1   12   17     1    17    1.6000E+05 -3.8182E+03   1.6382E+05  0.000E+00  0.000E+00  0.000E+00  4.08181E+01  1.931E-01  2.000E+01  2.000E+04 -1.909E-01
   1   12   18     1    18    1.6382E+05 -3.6702E+03   1.6749E+05  0.000E+00  0.000E+00  0.000E+00  4.03435E+01  1.958E-01  2.000E+01  2.000E+04 -1.835E-01
   1   12   19     1    19    1.6749E+05 -4.8199E+03   1.7231E+05  0.000E+00  0.000E+00  0.000E+00  3.98693E+01  1.988E-01  2.000E+01  2.000E+04 -2.410E-01
   1   13   20     1    20    1.7231E+05 -3.1136E+03   1.7542E+05  0.000E+00  0.000E+00  0.000E+00  3.93948E+01  2.016E-01  2.000E+01  2.000E+04 -1.557E-01
   1   14   21     1    21    1.7542E+05 -2.0252E+03   1.7745E+05  0.000E+00  0.000E+00  0.000E+00  3.89193E+01  2.034E-01  2.000E+01  2.000E+04 -1.013E-01
   1   14   22     1    22    1.7745E+05  5.0525E+03   1.7239E+05  0.000E+00  0.000E+00  0.000E+00  3.84410E+01  2.023E-01  2.000E+01  2.000E+04  2.526E-01
   1    9   30     2     1    5.0000E+04 -3.0405E+03   5.3041E+04  0.000E+00  0.000E+00  0.000E+00  4.02430E+01  1.180E-01  2.000E+01  2.000E+04 -1.520E-01
   1    9   29     2     2    5.3041E+04 -3.3706E+03   5.6411E+04  0.000E+00  0.000E+00  0.000E+00  3.99973E+01  1.223E-01  2.000E+01  2.000E+04 -1.685E-01
   1    9   28     2     3    5.6411E+04 -3.7504E+03   6.0161E+04  0.000E+00  0.000E+00  0.000E+00  3.97520E+01  1.270E-01  2.000E+01  2.000E+04 -1.875E-01
   1    9   27     2     4    6.0161E+04 -6.5698E+03   6.6731E+04  0.000E+00  0.000E+00  0.000E+00  3.95087E+01  1.337E-01  2.000E+01  2.000E+04 -3.285E-01
   1   10   26     2     5    6.6731E+04 -4.2106E+03   7.0942E+04  0.000E+00  0.000E+00  0.000E+00  3.92654E+01  1.404E-01  2.000E+01  2.000E+04 -2.105E-01
   1   11   25     2     6    7.0942E+04 -3.1498E+03   7.4092E+04  0.000E+00  0.000E+00  0.000E+00  3.90198E+01  1.448E-01  2.000E+01  2.000E+04 -1.575E-01
   1   12   24     2     7    7.4092E+04 -2.2635E+03   7.6355E+04  0.000E+00  0.000E+00  0.000E+00  3.87730E+01  1.480E-01  2.000E+01  2.000E+04 -1.132E-01
   1   13   23     2     8    7.6355E+04 -1.3738E+03   7.7729E+04  0.000E+00  0.000E+00  0.000E+00  3.85252E+01  1.502E-01  2.000E+01  2.000E+04 -6.869E-02
   1   14   22     2     9    7.7729E+04  1.7329E+03   7.5996E+04  0.000E+00  0.000E+00  0.000E+00  3.82750E+01  1.500E-01  2.000E+01  2.000E+04  8.664E-02
   1   14   22     3     1    2.4839E+05 -8.4692E+03   2.5686E+05  0.000E+00  0.000E+00  0.000E+00  3.77649E+01  2.093E-01  2.000E+01  2.000E+04 -4.235E-01
   1   15   23     3     2    2.5686E+05 -2.2469E+03   2.5911E+05  0.000E+00  0.000E+00  0.000E+00  3.68786E+01  2.120E-01  2.000E+01  2.000E+04 -1.123E-01
   1   15   24     3     3    2.5911E+05 -1.6112E+03   2.6072E+05  0.000E+00  0.000E+00  0.000E+00  3.59907E+01  2.129E-01  2.000E+01  2.000E+04 -8.056E-02
   1   15   25     3     4    2.6072E+05 -1.6013E+03   2.6232E+05  0.000E+00  0.000E+00  0.000E+00  3.51026E+01  2.137E-01  2.000E+01  2.000E+04 -8.007E-02
   1   15   26     3     5    2.6232E+05 -2.1920E+03   2.6451E+05  0.000E+00  0.000E+00  0.000E+00  3.42146E+01  2.146E-01  2.000E+01  2.000E+04 -1.096E-01
   1   16   27     3     6    2.6451E+05 -2.6134E+03   2.6712E+05  0.000E+00  0.000E+00  0.000E+00  3.33269E+01  2.158E-01  2.000E+01  2.000E+04 -1.307E-01
   1   17   28     3     7    2.6712E+05 -2.8853E+03   2.7001E+05  0.000E+00  0.000E+00  0.000E+00  3.24394E+01  2.171E-01  2.000E+01  2.000E+04 -1.443E-01
   1   18   29     3     8    2.7001E+05 -3.1486E+03   2.7316E+05  0.000E+00  0.000E+00  0.000E+00  3.15519E+01  2.186E-01  2.000E+01  2.000E+04 -1.574E-01
   1   18   30     3     9    2.7316E+05 -3.0116E+03   2.7617E+05  0.000E+00  0.000E+00  0.000E+00  3.06645E+01  2.201E-01  2.000E+01  2.000E+04 -1.506E-01



1
              HEAD IN LAYER   1 AT END OF TIME STEP   1 IN STRESS PERIOD   10
  ---------------------------------------------------------------------------

          1      2      3      4      5      6      7      8      9     10
         11     12     13     14     15     16     17     18     19     20
         21     22     23     24     25     26     27     28     29     30
 .........................................................................
   1  ****** ****** ****** ****** ****** ****** ****** ****** ****** ******
      ****** ****** ****** ****** ****** ****** ****** ****** ****** ******
      ****** ****** ****** ****** ****** ****** ****** ****** ****** ******
   2  ****** ****** ****** ****** ****** ****** ****** ****** ****** ******
      ****** ****** ****** ****** ****** ****** ****** ****** ****** ******
      ****** ****** ****** ****** ****** ****** ****** ****** ****** ******
   3  ****** ****** ****** ****** ****** ****** ****** ****** ****** ******
      ****** ****** ****** ****** ****** ****** ****** ****** ****** ******
      ****** ****** ****** ****** ****** ****** ****** ****** ****** ******
   4  ****** ****** ****** ****** ****** ****** ****** ****** ****** ******
      ****** ****** ****** ****** ****** ****** ****** ****** ****** ******
      ****** ****** ****** ****** ****** ****** ****** ****** ****** ******
   5  ****** ****** ****** ****** ****** ****** ****** ****** ****** ******
      ****** ****** ****** ****** ****** ****** ****** ****** ****** ******
      ****** ****** ****** ****** ****** ****** ****** ****** ****** ******
   6  ****** ****** ****** ****** ****** ****** ****** ****** ****** ******
      ****** ****** ****** ****** ****** ****** ****** ****** ****** ******
      ****** ****** ****** ****** ****** ****** ****** ****** ****** ******
   7  ****** ****** ****** ****** ****** ****** ****** ****** ****** ******
      ****** ****** ****** ****** ****** ****** ****** ****** ****** ******
      ****** ****** ****** ****** ****** ****** ****** ****** ****** ******
   8  ****** ****** ****** ****** ****** ****** ****** ****** ****** ******
      ****** ****** ****** ****** ****** ****** ****** ****** ****** ******
      ****** ****** ****** ****** ****** ****** ****** ****** ****** ******
   9  ****** ****** ****** ****** ****** ****** ****** ****** ****** ******
      ****** ****** ****** ****** ****** ****** ****** ****** ****** ******
      ****** ****** ****** ****** ****** ****** ****** ****** ****** ******
  10  ****** ****** ****** ****** ****** ****** ****** ****** ****** ******
      ****** ****** ****** ****** ****** ****** ****** ****** ****** ******
      ****** ****** ****** ****** ****** ****** ****** ****** ****** ******
  11  ****** ****** ****** ****** ****** ****** ****** ****** ****** ******
      ****** ****** ****** ****** ****** ****** ****** ****** ****** ******
      ****** ****** ****** ****** ****** ****** ****** ****** ****** ******
  12  ****** ****** ****** ****** ****** ****** ****** ****** ****** ******
      ****** ****** ****** ****** ****** ****** ****** ****** ****** ******
      ****** ****** ****** ****** ****** ****** ****** ****** ****** ******
  13  ****** ****** ****** ****** ****** ****** ****** ****** ****** ******
      ****** ****** ****** ****** ****** ****** ****** ****** ****** ******
      ****** ****** ****** ****** ****** ****** ****** ****** ****** ******
  14  ****** ****** ****** ****** ****** ****** ****** ****** ****** ******
      ****** ****** ****** ****** ****** ****** ****** ****** ****** ******
      ****** ****** ****** ****** ****** ****** ****** ****** ****** ******
  15  ****** ****** ****** ****** ****** ****** ****** ****** ****** ******
      ****** ****** ****** ****** ****** ****** ****** ****** ****** ******
      ****** ****** ****** ****** ****** ****** ****** ****** ****** ******
  16  ****** ****** ****** ****** ****** ****** ****** ****** ****** ******
      ****** ****** ****** ****** ****** ****** ****** ****** ****** ******
      ****** ****** ****** ****** ****** ****** ****** ****** ****** ******
  17  ****** ****** ****** ****** ****** ****** ****** ****** ****** ******
      ****** ****** ****** ****** ****** ****** ****** ****** ****** ******
      ****** ****** ****** ****** ****** ****** ****** ****** ****** ******
  18  ****** ****** ****** ****** ****** ****** ****** ****** ****** ******
      ****** ****** ****** ****** ****** ****** ****** ****** ****** ******
      ****** ****** ****** ****** ****** ****** ****** ****** ****** ******
  19  ****** ****** ****** ****** ****** ****** ****** ****** ****** ******
      ****** ****** ****** ****** ****** ****** ****** ****** ****** ******
      ****** ****** ****** ****** ****** ****** ****** ****** ****** ******
  20  ****** ****** ****** ****** ****** ****** ****** ****** ****** ******
      ****** ****** ****** ****** ****** ****** ****** ****** ****** ******
      ****** ****** ****** ****** ****** ****** ****** ****** ****** ******
  21  ****** ****** ****** ****** ****** ****** ****** ****** ****** ******
      ****** ****** ****** ****** ****** ****** ****** ****** ****** ******
      ****** ****** ****** ****** ****** ****** ****** ****** ****** ******
  22  ****** ****** ****** ****** ****** ****** ****** ****** ****** ******
      ****** ****** ****** ****** ****** ****** ****** ****** ****** ******
      ****** ****** ****** ****** ****** ****** ****** ****** ****** ******
  23  ****** ****** ****** ****** ****** ****** ****** ****** ****** ******
      ****** ****** ****** ****** ****** ****** ****** ****** ****** ******
      ****** ****** ****** ****** ****** ****** ****** ****** ****** ******
  24  ****** ****** ****** ****** ****** ****** ****** ****** ****** ******
      ****** ****** ****** ****** ****** ****** ****** ****** ****** ******
      ****** ****** ****** ****** ****** ****** ****** ****** ****** ******
  25  ****** ****** ****** ****** ****** ****** ****** ****** ****** ******
      ****** ****** ****** ****** ****** ****** ****** ****** ****** ******
      ****** ****** ****** ****** ****** ****** ****** ****** ****** ******

 HEAD WILL BE SAVED ON UNIT   51 AT END OF TIME STEP    1, STRESS PERIOD   10
1
  VOLUMETRIC BUDGET FOR ENTIRE MODEL AT END OF TIME STEP    1, STRESS PERIOD  10
  ------------------------------------------------------------------------------

     CUMULATIVE VOLUMES      L**3       RATES FOR THIS TIME STEP      L**3/T
     ------------------                 ------------------------

           IN:                                      IN:
           ---                                      ---
             STORAGE =    24506758.6558               STORAGE =           0.0000
       CONSTANT HEAD =   162900128.5000         CONSTANT HEAD =      176962.8233
               WELLS =           0.0000                 WELLS =           0.0000
            RECHARGE =    23901600.0000              RECHARGE =       55200.0000
      STREAM LEAKAGE =     6117758.9196        STREAM LEAKAGE =        6785.3684

            TOTAL IN =   217426246.0755              TOTAL IN =      238948.1917

          OUT:                                     OUT:
          ----                                     ----
             STORAGE =     2283260.5832               STORAGE =       10769.0376
       CONSTANT HEAD =           0.0000         CONSTANT HEAD =           0.0000
               WELLS =    88743202.4375                 WELLS =       95223.4254
            RECHARGE =           0.0000              RECHARGE =           0.0000
      STREAM LEAKAGE =   126399783.8733        STREAM LEAKAGE =      132955.7271

           TOTAL OUT =   217426246.8940             TOTAL OUT =      238948.1900

            IN - OUT =          -0.8185              IN - OUT =       1.7083E-03

 PERCENT DISCREPANCY =          -0.00     PERCENT DISCREPANCY =           0.00






         TIME SUMMARY AT END OF TIME STEP    1 IN STRESS PERIOD   10
                    SECONDS     MINUTES      HOURS       DAYS        YEARS
                    -----------------------------------------------------------
   TIME STEP LENGTH 7.86240E+06 1.31040E+05  2184.0      91.000     0.24914    
 STRESS PERIOD TIME 7.86240E+06 1.31040E+05  2184.0      91.000     0.24914    
         TOTAL TIME 7.88832E+07 1.31472E+06  21912.      913.00      2.4997    
1
1
                            STRESS PERIOD NO.   11, LENGTH =   91.00000    
                            -----------------------------------------------

                              NUMBER OF TIME STEPS =     1

                               MULTIPLIER FOR DELT =     1.500

                            INITIAL TIME STEP SIZE =   91.00000    

 WELL NO.  LAYER   ROW   COL   STRESS RATE         
 --------------------------------------------------
      1      1     23     29     -0.2744E+05
      2      1     23      8     -0.3195E+05
      3      1     23     22     -0.3583E+05

      3 WELLS

                 RECHARGE =   0.00000    

 REUSING STREAM SEGMENT DATA FROM LAST STRESS PERIOD
 
 SOLVING FOR HEAD 


     7 CALLS TO PCG ROUTINE FOR TIME STEP   1 IN STRESS PERIOD   11
    26 TOTAL ITERATIONS

 OUTPUT CONTROL FOR STRESS PERIOD   11   TIME STEP    1
    SAVE BUDGET
    SAVE HEAD FOR ALL LAYERS
    PRINT HEAD FOR ALL LAYERS
 UBDSV2 SAVING "STREAMFLOW OUT  " ON UNIT  50 AT TIME STEP  1, STRESS PERIOD  11



 STREAM LISTING     PERIOD     11   STEP        1

 LAYER ROW COL. STREAM  RCH.  FLOW INTO     FLOW TO   FLOW OUT OF   OVRLND.     DIRECT     STREAM       STREAM     STREAM     STREAM   STREAMBED  STREAMBED
                SEG.NO.  NO.  STRM. RCH.    AQUIFER    STRM. RCH.    RUNOFF     PRECIP       ET          HEAD       DEPTH      WIDTH   CONDCTNC.   GRADIENT

   1   13    1     1     1    1.0000E+05 -2.5759E+03   1.0258E+05  0.000E+00  0.000E+00  0.000E+00  4.84071E+01  1.458E-01  2.000E+01  2.000E+04 -1.288E-01
   1   13    2     1     2    1.0258E+05 -4.4869E+03   1.0706E+05  0.000E+00  0.000E+00  0.000E+00  4.79329E+01  1.488E-01  2.000E+01  2.000E+04 -2.243E-01
   1   14    3     1     3    1.0706E+05 -3.3905E+03   1.1045E+05  0.000E+00  0.000E+00  0.000E+00  4.74589E+01  1.521E-01  2.000E+01  2.000E+04 -1.695E-01
   1   15    4     1     4    1.1045E+05 -3.1329E+03   1.1359E+05  0.000E+00  0.000E+00  0.000E+00  4.69844E+01  1.548E-01  2.000E+01  2.000E+04 -1.566E-01
   1   16    5     1     5    1.1359E+05 -3.0589E+03   1.1665E+05  0.000E+00  0.000E+00  0.000E+00  4.65097E+01  1.574E-01  2.000E+01  2.000E+04 -1.529E-01
   1   16    6     1     6    1.1665E+05 -2.4293E+03   1.1907E+05  0.000E+00  0.000E+00  0.000E+00  4.60346E+01  1.596E-01  2.000E+01  2.000E+04 -1.215E-01
   1   16    7     1     7    1.1907E+05 -2.4599E+03   1.2153E+05  0.000E+00  0.000E+00  0.000E+00  4.55593E+01  1.616E-01  2.000E+01  2.000E+04 -1.230E-01
   1   16    8     1     8    1.2153E+05 -2.4845E+03   1.2402E+05  0.000E+00  0.000E+00  0.000E+00  4.50841E+01  1.636E-01  2.000E+01  2.000E+04 -1.242E-01
   1   16    9     1     9    1.2402E+05 -2.5082E+03   1.2653E+05  0.000E+00  0.000E+00  0.000E+00  4.46088E+01  1.656E-01  2.000E+01  2.000E+04 -1.254E-01
   1   16   10     1    10    1.2653E+05 -2.5254E+03   1.2905E+05  0.000E+00  0.000E+00  0.000E+00  4.41335E+01  1.676E-01  2.000E+01  2.000E+04 -1.263E-01
   1   16   11     1    11    1.2905E+05 -2.5332E+03   1.3159E+05  0.000E+00  0.000E+00  0.000E+00  4.36582E+01  1.696E-01  2.000E+01  2.000E+04 -1.267E-01
   1   16   12     1    12    1.3159E+05 -3.3323E+03   1.3492E+05  0.000E+00  0.000E+00  0.000E+00  4.31832E+01  1.718E-01  2.000E+01  2.000E+04 -1.666E-01
   1   15   13     1    13    1.3492E+05 -3.3360E+03   1.3825E+05  0.000E+00  0.000E+00  0.000E+00  4.27085E+01  1.744E-01  2.000E+01  2.000E+04 -1.668E-01
   1   14   14     1    14    1.3825E+05 -3.5110E+03   1.4177E+05  0.000E+00  0.000E+00  0.000E+00  4.22338E+01  1.770E-01  2.000E+01  2.000E+04 -1.756E-01
   1   13   15     1    15    1.4177E+05 -3.8908E+03   1.4566E+05  0.000E+00  0.000E+00  0.000E+00  4.17594E+01  1.798E-01  2.000E+01  2.000E+04 -1.945E-01
   1   12   16     1    16    1.4566E+05 -5.1929E+03   1.5085E+05  0.000E+00  0.000E+00  0.000E+00  4.12855E+01  1.832E-01  2.000E+01  2.000E+04 -2.596E-01
   1   12   17     1    17    1.5085E+05 -3.3448E+03   1.5419E+05  0.000E+00  0.000E+00  0.000E+00  4.08113E+01  1.863E-01  2.000E+01  2.000E+04 -1.672E-01
   1   12   18     1    18    1.5419E+05 -3.2034E+03   1.5740E+05  0.000E+00  0.000E+00  0.000E+00  4.03365E+01  1.887E-01  2.000E+01  2.000E+04 -1.602E-01
   1   12   19     1    19    1.5740E+05 -4.2507E+03   1.6165E+05  0.000E+00  0.000E+00  0.000E+00  3.98619E+01  1.914E-01  2.000E+01  2.000E+04 -2.125E-01
   1   13   20     1    20    1.6165E+05 -2.5505E+03   1.6420E+05  0.000E+00  0.000E+00  0.000E+00  3.93871E+01  1.939E-01  2.000E+01  2.000E+04 -1.275E-01
   1   14   21     1    21    1.6420E+05 -1.5098E+03   1.6571E+05  0.000E+00  0.000E+00  0.000E+00  3.89112E+01  1.953E-01  2.000E+01  2.000E+04 -7.549E-02
   1   14   22     1    22    1.6571E+05  5.1536E+03   1.6055E+05  0.000E+00  0.000E+00  0.000E+00  3.84327E+01  1.940E-01  2.000E+01  2.000E+04  2.577E-01
   1    9   30     2     1    5.0000E+04 -2.5991E+03   5.2599E+04  0.000E+00  0.000E+00  0.000E+00  4.02427E+01  1.177E-01  2.000E+01  2.000E+04 -1.300E-01
   1    9   29     2     2    5.2599E+04 -2.9329E+03   5.5532E+04  0.000E+00  0.000E+00  0.000E+00  3.99964E+01  1.214E-01  2.000E+01  2.000E+04 -1.466E-01
   1    9   28     2     3    5.5532E+04 -3.3162E+03   5.8848E+04  0.000E+00  0.000E+00  0.000E+00  3.97506E+01  1.256E-01  2.000E+01  2.000E+04 -1.658E-01
   1    9   27     2     4    5.8848E+04 -5.9981E+03   6.4846E+04  0.000E+00  0.000E+00  0.000E+00  3.95066E+01  1.316E-01  2.000E+01  2.000E+04 -2.999E-01
   1   10   26     2     5    6.4846E+04 -3.6129E+03   6.8459E+04  0.000E+00  0.000E+00  0.000E+00  3.92627E+01  1.377E-01  2.000E+01  2.000E+04 -1.806E-01
   1   11   25     2     6    6.8459E+04 -2.5755E+03   7.1035E+04  0.000E+00  0.000E+00  0.000E+00  3.90165E+01  1.415E-01  2.000E+01  2.000E+04 -1.288E-01
   1   12   24     2     7    7.1035E+04 -1.7522E+03   7.2787E+04  0.000E+00  0.000E+00  0.000E+00  3.87691E+01  1.441E-01  2.000E+01  2.000E+04 -8.761E-02
   1   13   23     2     8    7.2787E+04 -9.7094E+02   7.3758E+04  0.000E+00  0.000E+00  0.000E+00  3.85207E+01  1.457E-01  2.000E+01  2.000E+04 -4.855E-02
   1   14   22     2     9    7.3758E+04  1.9038E+03   7.1854E+04  0.000E+00  0.000E+00  0.000E+00  3.82702E+01  1.452E-01  2.000E+01  2.000E+04  9.519E-02
   1   14   22     3     1    2.3241E+05 -8.3638E+03   2.4077E+05  0.000E+00  0.000E+00  0.000E+00  3.77568E+01  2.012E-01  2.000E+01  2.000E+04 -4.182E-01
   1   15   23     3     2    2.4077E+05 -1.7651E+03   2.4254E+05  0.000E+00  0.000E+00  0.000E+00  3.68705E+01  2.038E-01  2.000E+01  2.000E+04 -8.826E-02
   1   15   24     3     3    2.4254E+05 -1.2561E+03   2.4379E+05  0.000E+00  0.000E+00  0.000E+00  3.59823E+01  2.046E-01  2.000E+01  2.000E+04 -6.280E-02
   1   15   25     3     4    2.4379E+05 -1.2425E+03   2.4504E+05  0.000E+00  0.000E+00  0.000E+00  3.50941E+01  2.052E-01  2.000E+01  2.000E+04 -6.213E-02
   1   15   26     3     5    2.4504E+05 -1.7277E+03   2.4676E+05  0.000E+00  0.000E+00  0.000E+00  3.42059E+01  2.059E-01  2.000E+01  2.000E+04 -8.639E-02
   1   16   27     3     6    2.4676E+05 -2.0372E+03   2.4880E+05  0.000E+00  0.000E+00  0.000E+00  3.33180E+01  2.069E-01  2.000E+01  2.000E+04 -1.019E-01
   1   17   28     3     7    2.4880E+05 -2.2986E+03   2.5110E+05  0.000E+00  0.000E+00  0.000E+00  3.24302E+01  2.080E-01  2.000E+01  2.000E+04 -1.149E-01
   1   18   29     3     8    2.5110E+05 -2.6018E+03   2.5370E+05  0.000E+00  0.000E+00  0.000E+00  3.15425E+01  2.092E-01  2.000E+01  2.000E+04 -1.301E-01
   1   18   30     3     9    2.5370E+05 -2.5947E+03   2.5630E+05  0.000E+00  0.000E+00  0.000E+00  3.06549E+01  2.105E-01  2.000E+01  2.000E+04 -1.297E-01



1
              HEAD IN LAYER   1 AT END OF TIME STEP   1 IN STRESS PERIOD   11
  ---------------------------------------------------------------------------

          1      2      3      4      5      6      7      8      9     10
         11     12     13     14     15     16     17     18     19     20
         21     22     23     24     25     26     27     28     29     30
 .........................................................................
   1  ****** ****** ****** ****** ****** ****** ****** ****** ****** ******
      ****** ****** ****** ****** ****** ****** ****** ****** ****** ******
      ****** ****** ****** ****** ****** ****** ****** ****** ****** ******
   2  ****** ****** ****** ****** ****** ****** ****** ****** ****** ******
      ****** ****** ****** ****** ****** ****** ****** ****** ****** ******
      ****** ****** ****** ****** ****** ****** ****** ****** ****** ******
   3  ****** ****** ****** ****** ****** ****** ****** ****** ****** ******
      ****** ****** ****** ****** ****** ****** ****** ****** ****** ******
      ****** ****** ****** ****** ****** ****** ****** ****** ****** ******
   4  ****** ****** ****** ****** ****** ****** ****** ****** ****** ******
      ****** ****** ****** ****** ****** ****** ****** ****** ****** ******
      ****** ****** ****** ****** ****** ****** ****** ****** ****** ******
   5  ****** ****** ****** ****** ****** ****** ****** ****** ****** ******
      ****** ****** ****** ****** ****** ****** ****** ****** ****** ******
      ****** ****** ****** ****** ****** ****** ****** ****** ****** ******
   6  ****** ****** ****** ****** ****** ****** ****** ****** ****** ******
      ****** ****** ****** ****** ****** ****** ****** ****** ****** ******
      ****** ****** ****** ****** ****** ****** ****** ****** ****** ******
   7  ****** ****** ****** ****** ****** ****** ****** ****** ****** ******
      ****** ****** ****** ****** ****** ****** ****** ****** ****** ******
      ****** ****** ****** ****** ****** ****** ****** ****** ****** ******
   8  ****** ****** ****** ****** ****** ****** ****** ****** ****** ******
      ****** ****** ****** ****** ****** ****** ****** ****** ****** ******
      ****** ****** ****** ****** ****** ****** ****** ****** ****** ******
   9  ****** ****** ****** ****** ****** ****** ****** ****** ****** ******
      ****** ****** ****** ****** ****** ****** ****** ****** ****** ******
      ****** ****** ****** ****** ****** ****** ****** ****** ****** ******
  10  ****** ****** ****** ****** ****** ****** ****** ****** ****** ******
      ****** ****** ****** ****** ****** ****** ****** ****** ****** ******
      ****** ****** ****** ****** ****** ****** ****** ****** ****** ******
  11  ****** ****** ****** ****** ****** ****** ****** ****** ****** ******
      ****** ****** ****** ****** ****** ****** ****** ****** ****** ******
      ****** ****** ****** ****** ****** ****** ****** ****** ****** ******
  12  ****** ****** ****** ****** ****** ****** ****** ****** ****** ******
      ****** ****** ****** ****** ****** ****** ****** ****** ****** ******
      ****** ****** ****** ****** ****** ****** ****** ****** ****** ******
  13  ****** ****** ****** ****** ****** ****** ****** ****** ****** ******
      ****** ****** ****** ****** ****** ****** ****** ****** ****** ******
      ****** ****** ****** ****** ****** ****** ****** ****** ****** ******
  14  ****** ****** ****** ****** ****** ****** ****** ****** ****** ******
      ****** ****** ****** ****** ****** ****** ****** ****** ****** ******
      ****** ****** ****** ****** ****** ****** ****** ****** ****** ******
  15  ****** ****** ****** ****** ****** ****** ****** ****** ****** ******
      ****** ****** ****** ****** ****** ****** ****** ****** ****** ******
      ****** ****** ****** ****** ****** ****** ****** ****** ****** ******
  16  ****** ****** ****** ****** ****** ****** ****** ****** ****** ******
      ****** ****** ****** ****** ****** ****** ****** ****** ****** ******
      ****** ****** ****** ****** ****** ****** ****** ****** ****** ******
  17  ****** ****** ****** ****** ****** ****** ****** ****** ****** ******
      ****** ****** ****** ****** ****** ****** ****** ****** ****** ******
      ****** ****** ****** ****** ****** ****** ****** ****** ****** ******
  18  ****** ****** ****** ****** ****** ****** ****** ****** ****** ******
      ****** ****** ****** ****** ****** ****** ****** ****** ****** ******
      ****** ****** ****** ****** ****** ****** ****** ****** ****** ******
  19  ****** ****** ****** ****** ****** ****** ****** ****** ****** ******
      ****** ****** ****** ****** ****** ****** ****** ****** ****** ******
      ****** ****** ****** ****** ****** ****** ****** ****** ****** ******
  20  ****** ****** ****** ****** ****** ****** ****** ****** ****** ******
      ****** ****** ****** ****** ****** ****** ****** ****** ****** ******
      ****** ****** ****** ****** ****** ****** ****** ****** ****** ******
  21  ****** ****** ****** ****** ****** ****** ****** ****** ****** ******
      ****** ****** ****** ****** ****** ****** ****** ****** ****** ******
      ****** ****** ****** ****** ****** ****** ****** ****** ****** ******
  22  ****** ****** ****** ****** ****** ****** ****** ****** ****** ******
      ****** ****** ****** ****** ****** ****** ****** ****** ****** ******
      ****** ****** ****** ****** ****** ****** ****** ****** ****** ******
  23  ****** ****** ****** ****** ****** ****** ****** ****** ****** ******
      ****** ****** ****** ****** ****** ****** ****** ****** ****** ******
      ****** ****** ****** ****** ****** ****** ****** ****** ****** ******
  24  ****** ****** ****** ****** ****** ****** ****** ****** ****** ******
      ****** ****** ****** ****** ****** ****** ****** ****** ****** ******
      ****** ****** ****** ****** ****** ****** ****** ****** ****** ******
  25  ****** ****** ****** ****** ****** ****** ****** ****** ****** ******
      ****** ****** ****** ****** ****** ****** ****** ****** ****** ******
      ****** ****** ****** ****** ****** ****** ****** ****** ****** ******

 HEAD WILL BE SAVED ON UNIT   51 AT END OF TIME STEP    1, STRESS PERIOD   11
1
  VOLUMETRIC BUDGET FOR ENTIRE MODEL AT END OF TIME STEP    1, STRESS PERIOD  11
  ------------------------------------------------------------------------------

     CUMULATIVE VOLUMES      L**3       RATES FOR THIS TIME STEP      L**3/T
     ------------------                 ------------------------

           IN:                                      IN:
           ---                                      ---
             STORAGE =    25584777.1619               STORAGE =       11846.3572
       CONSTANT HEAD =   180160386.8455         CONSTANT HEAD =      189673.1686
               WELLS =           0.0000                 WELLS =           0.0000
            RECHARGE =    23901600.0000              RECHARGE =           0.0000
      STREAM LEAKAGE =     6759984.3739        STREAM LEAKAGE =        7057.4226

            TOTAL IN =   236406748.3812              TOTAL IN =      208576.9484

          OUT:                                     OUT:
          ----                                     ----
             STORAGE =     2283260.5832               STORAGE =           0.0000
       CONSTANT HEAD =           0.0000         CONSTANT HEAD =           0.0000
               WELLS =    97408534.1453                 WELLS =       95223.4254
            RECHARGE =           0.0000              RECHARGE =           0.0000
      STREAM LEAKAGE =   136714954.6621        STREAM LEAKAGE =      113353.5252

           TOTAL OUT =   236406749.3906             TOTAL OUT =      208576.9505

            IN - OUT =          -1.0094              IN - OUT =      -2.0975E-03

 PERCENT DISCREPANCY =          -0.00     PERCENT DISCREPANCY =          -0.00






         TIME SUMMARY AT END OF TIME STEP    1 IN STRESS PERIOD   11
                    SECONDS     MINUTES      HOURS       DAYS        YEARS
                    -----------------------------------------------------------
   TIME STEP LENGTH 7.86240E+06 1.31040E+05  2184.0      91.000     0.24914    
 STRESS PERIOD TIME 7.86240E+06 1.31040E+05  2184.0      91.000     0.24914    
         TOTAL TIME 8.67456E+07 1.44576E+06  24096.      1004.0      2.7488    
1
1
                            STRESS PERIOD NO.   12, LENGTH =   91.00000    
                            -----------------------------------------------

                              NUMBER OF TIME STEPS =     1

                               MULTIPLIER FOR DELT =     1.500

                            INITIAL TIME STEP SIZE =   91.00000    

 WELL NO.  LAYER   ROW   COL   STRESS RATE         
 --------------------------------------------------
      1      1     23     29     -0.2744E+05
      2      1     23      8     -0.3195E+05
      3      1     23     22     -0.3583E+05

      3 WELLS

                 RECHARGE =  1.000000E-03

 REUSING STREAM SEGMENT DATA FROM LAST STRESS PERIOD
 
 SOLVING FOR HEAD 


     6 CALLS TO PCG ROUTINE FOR TIME STEP   1 IN STRESS PERIOD   12
    23 TOTAL ITERATIONS

 OUTPUT CONTROL FOR STRESS PERIOD   12   TIME STEP    1
    SAVE BUDGET
    SAVE HEAD FOR ALL LAYERS
    PRINT HEAD FOR ALL LAYERS
 UBDSV2 SAVING "STREAMFLOW OUT  " ON UNIT  50 AT TIME STEP  1, STRESS PERIOD  12



 STREAM LISTING     PERIOD     12   STEP        1

 LAYER ROW COL. STREAM  RCH.  FLOW INTO     FLOW TO   FLOW OUT OF   OVRLND.     DIRECT     STREAM       STREAM     STREAM     STREAM   STREAMBED  STREAMBED
                SEG.NO.  NO.  STRM. RCH.    AQUIFER    STRM. RCH.    RUNOFF     PRECIP       ET          HEAD       DEPTH      WIDTH   CONDCTNC.   GRADIENT

   1   13    1     1     1    1.0000E+05 -2.7494E+03   1.0275E+05  0.000E+00  0.000E+00  0.000E+00  4.84072E+01  1.458E-01  2.000E+01  2.000E+04 -1.375E-01
   1   13    2     1     2    1.0275E+05 -4.7050E+03   1.0745E+05  0.000E+00  0.000E+00  0.000E+00  4.79331E+01  1.490E-01  2.000E+01  2.000E+04 -2.352E-01
   1   14    3     1     3    1.0745E+05 -3.6297E+03   1.1108E+05  0.000E+00  0.000E+00  0.000E+00  4.74594E+01  1.526E-01  2.000E+01  2.000E+04 -1.815E-01
   1   15    4     1     4    1.1108E+05 -3.3742E+03   1.1446E+05  0.000E+00  0.000E+00  0.000E+00  4.69850E+01  1.555E-01  2.000E+01  2.000E+04 -1.687E-01
   1   16    5     1     5    1.1446E+05 -3.2816E+03   1.1774E+05  0.000E+00  0.000E+00  0.000E+00  4.65105E+01  1.582E-01  2.000E+01  2.000E+04 -1.641E-01
   1   16    6     1     6    1.1774E+05 -2.6066E+03   1.2035E+05  0.000E+00  0.000E+00  0.000E+00  4.60356E+01  1.606E-01  2.000E+01  2.000E+04 -1.303E-01
   1   16    7     1     7    1.2035E+05 -2.6390E+03   1.2299E+05  0.000E+00  0.000E+00  0.000E+00  4.55604E+01  1.627E-01  2.000E+01  2.000E+04 -1.320E-01
   1   16    8     1     8    1.2299E+05 -2.6647E+03   1.2565E+05  0.000E+00  0.000E+00  0.000E+00  4.50853E+01  1.648E-01  2.000E+01  2.000E+04 -1.332E-01
   1   16    9     1     9    1.2565E+05 -2.6884E+03   1.2834E+05  0.000E+00  0.000E+00  0.000E+00  4.46101E+01  1.670E-01  2.000E+01  2.000E+04 -1.344E-01
   1   16   10     1    10    1.2834E+05 -2.7043E+03   1.3104E+05  0.000E+00  0.000E+00  0.000E+00  4.41350E+01  1.691E-01  2.000E+01  2.000E+04 -1.352E-01
   1   16   11     1    11    1.3104E+05 -2.7102E+03   1.3375E+05  0.000E+00  0.000E+00  0.000E+00  4.36598E+01  1.712E-01  2.000E+01  2.000E+04 -1.355E-01
   1   16   12     1    12    1.3375E+05 -3.5552E+03   1.3731E+05  0.000E+00  0.000E+00  0.000E+00  4.31850E+01  1.736E-01  2.000E+01  2.000E+04 -1.778E-01
   1   15   13     1    13    1.3731E+05 -3.5793E+03   1.4089E+05  0.000E+00  0.000E+00  0.000E+00  4.27104E+01  1.763E-01  2.000E+01  2.000E+04 -1.790E-01
   1   14   14     1    14    1.4089E+05 -3.7571E+03   1.4464E+05  0.000E+00  0.000E+00  0.000E+00  4.22359E+01  1.791E-01  2.000E+01  2.000E+04 -1.879E-01
   1   13   15     1    15    1.4464E+05 -4.1314E+03   1.4878E+05  0.000E+00  0.000E+00  0.000E+00  4.17616E+01  1.821E-01  2.000E+01  2.000E+04 -2.066E-01
   1   12   16     1    16    1.4878E+05 -5.4124E+03   1.5419E+05  0.000E+00  0.000E+00  0.000E+00  4.12879E+01  1.856E-01  2.000E+01  2.000E+04 -2.706E-01
   1   12   17     1    17    1.5419E+05 -3.5186E+03   1.5771E+05  0.000E+00  0.000E+00  0.000E+00  4.08138E+01  1.888E-01  2.000E+01  2.000E+04 -1.759E-01
   1   12   18     1    18    1.5771E+05 -3.3767E+03   1.6108E+05  0.000E+00  0.000E+00  0.000E+00  4.03391E+01  1.913E-01  2.000E+01  2.000E+04 -1.688E-01
   1   12   19     1    19    1.6108E+05 -4.4621E+03   1.6555E+05  0.000E+00  0.000E+00  0.000E+00  3.98646E+01  1.942E-01  2.000E+01  2.000E+04 -2.231E-01
   1   13   20     1    20    1.6555E+05 -2.7694E+03   1.6832E+05  0.000E+00  0.000E+00  0.000E+00  3.93899E+01  1.967E-01  2.000E+01  2.000E+04 -1.385E-01
   1   14   21     1    21    1.6832E+05 -1.7067E+03   1.7002E+05  0.000E+00  0.000E+00  0.000E+00  3.89142E+01  1.983E-01  2.000E+01  2.000E+04 -8.534E-02
   1   14   22     1    22    1.7002E+05  5.1098E+03   1.6491E+05  0.000E+00  0.000E+00  0.000E+00  3.84357E+01  1.971E-01  2.000E+01  2.000E+04  2.555E-01
   1    9   30     2     1    5.0000E+04 -2.7785E+03   5.2779E+04  0.000E+00  0.000E+00  0.000E+00  4.02428E+01  1.178E-01  2.000E+01  2.000E+04 -1.389E-01
   1    9   29     2     2    5.2779E+04 -3.1105E+03   5.5889E+04  0.000E+00  0.000E+00  0.000E+00  3.99968E+01  1.218E-01  2.000E+01  2.000E+04 -1.555E-01
   1    9   28     2     3    5.5889E+04 -3.4914E+03   5.9380E+04  0.000E+00  0.000E+00  0.000E+00  3.97512E+01  1.262E-01  2.000E+01  2.000E+04 -1.746E-01
   1    9   27     2     4    5.9380E+04 -6.2188E+03   6.5599E+04  0.000E+00  0.000E+00  0.000E+00  3.95075E+01  1.325E-01  2.000E+01  2.000E+04 -3.109E-01
   1   10   26     2     5    6.5599E+04 -3.8504E+03   6.9450E+04  0.000E+00  0.000E+00  0.000E+00  3.92638E+01  1.388E-01  2.000E+01  2.000E+04 -1.925E-01
   1   11   25     2     6    6.9450E+04 -2.8065E+03   7.2256E+04  0.000E+00  0.000E+00  0.000E+00  3.90178E+01  1.428E-01  2.000E+01  2.000E+04 -1.403E-01
   1   12   24     2     7    7.2256E+04 -1.9620E+03   7.4218E+04  0.000E+00  0.000E+00  0.000E+00  3.87707E+01  1.457E-01  2.000E+01  2.000E+04 -9.810E-02
   1   13   23     2     8    7.4218E+04 -1.1414E+03   7.5360E+04  0.000E+00  0.000E+00  0.000E+00  3.85225E+01  1.475E-01  2.000E+01  2.000E+04 -5.707E-02
   1   14   22     2     9    7.5360E+04  1.8374E+03   7.3522E+04  0.000E+00  0.000E+00  0.000E+00  3.82721E+01  1.471E-01  2.000E+01  2.000E+04  9.187E-02
   1   14   22     3     1    2.3843E+05 -8.4077E+03   2.4684E+05  0.000E+00  0.000E+00  0.000E+00  3.77599E+01  2.043E-01  2.000E+01  2.000E+04 -4.204E-01
   1   15   23     3     2    2.4684E+05 -1.9498E+03   2.4879E+05  0.000E+00  0.000E+00  0.000E+00  3.68736E+01  2.069E-01  2.000E+01  2.000E+04 -9.749E-02
   1   15   24     3     3    2.4879E+05 -1.4005E+03   2.5019E+05  0.000E+00  0.000E+00  0.000E+00  3.59855E+01  2.077E-01  2.000E+01  2.000E+04 -7.003E-02
   1   15   25     3     4    2.5019E+05 -1.3917E+03   2.5158E+05  0.000E+00  0.000E+00  0.000E+00  3.50973E+01  2.084E-01  2.000E+01  2.000E+04 -6.959E-02
   1   15   26     3     5    2.5158E+05 -1.9227E+03   2.5351E+05  0.000E+00  0.000E+00  0.000E+00  3.42093E+01  2.093E-01  2.000E+01  2.000E+04 -9.614E-02
   1   16   27     3     6    2.5351E+05 -2.2717E+03   2.5578E+05  0.000E+00  0.000E+00  0.000E+00  3.33214E+01  2.103E-01  2.000E+01  2.000E+04 -1.136E-01
   1   17   28     3     7    2.5578E+05 -2.5356E+03   2.5831E+05  0.000E+00  0.000E+00  0.000E+00  3.24337E+01  2.115E-01  2.000E+01  2.000E+04 -1.268E-01
   1   18   29     3     8    2.5831E+05 -2.8185E+03   2.6113E+05  0.000E+00  0.000E+00  0.000E+00  3.15462E+01  2.128E-01  2.000E+01  2.000E+04 -1.409E-01
   1   18   30     3     9    2.6113E+05 -2.7654E+03   2.6390E+05  0.000E+00  0.000E+00  0.000E+00  3.06586E+01  2.142E-01  2.000E+01  2.000E+04 -1.383E-01



1
              HEAD IN LAYER   1 AT END OF TIME STEP   1 IN STRESS PERIOD   12
  ---------------------------------------------------------------------------

          1      2      3      4      5      6      7      8      9     10
         11     12     13     14     15     16     17     18     19     20
         21     22     23     24     25     26     27     28     29     30
 .........................................................................
   1  ****** ****** ****** ****** ****** ****** ****** ****** ****** ******
      ****** ****** ****** ****** ****** ****** ****** ****** ****** ******
      ****** ****** ****** ****** ****** ****** ****** ****** ****** ******
   2  ****** ****** ****** ****** ****** ****** ****** ****** ****** ******
      ****** ****** ****** ****** ****** ****** ****** ****** ****** ******
      ****** ****** ****** ****** ****** ****** ****** ****** ****** ******
   3  ****** ****** ****** ****** ****** ****** ****** ****** ****** ******
      ****** ****** ****** ****** ****** ****** ****** ****** ****** ******
      ****** ****** ****** ****** ****** ****** ****** ****** ****** ******
   4  ****** ****** ****** ****** ****** ****** ****** ****** ****** ******
      ****** ****** ****** ****** ****** ****** ****** ****** ****** ******
      ****** ****** ****** ****** ****** ****** ****** ****** ****** ******
   5  ****** ****** ****** ****** ****** ****** ****** ****** ****** ******
      ****** ****** ****** ****** ****** ****** ****** ****** ****** ******
      ****** ****** ****** ****** ****** ****** ****** ****** ****** ******
   6  ****** ****** ****** ****** ****** ****** ****** ****** ****** ******
      ****** ****** ****** ****** ****** ****** ****** ****** ****** ******
      ****** ****** ****** ****** ****** ****** ****** ****** ****** ******
   7  ****** ****** ****** ****** ****** ****** ****** ****** ****** ******
      ****** ****** ****** ****** ****** ****** ****** ****** ****** ******
      ****** ****** ****** ****** ****** ****** ****** ****** ****** ******
   8  ****** ****** ****** ****** ****** ****** ****** ****** ****** ******
      ****** ****** ****** ****** ****** ****** ****** ****** ****** ******
      ****** ****** ****** ****** ****** ****** ****** ****** ****** ******
   9  ****** ****** ****** ****** ****** ****** ****** ****** ****** ******
      ****** ****** ****** ****** ****** ****** ****** ****** ****** ******
      ****** ****** ****** ****** ****** ****** ****** ****** ****** ******
  10  ****** ****** ****** ****** ****** ****** ****** ****** ****** ******
      ****** ****** ****** ****** ****** ****** ****** ****** ****** ******
      ****** ****** ****** ****** ****** ****** ****** ****** ****** ******
  11  ****** ****** ****** ****** ****** ****** ****** ****** ****** ******
      ****** ****** ****** ****** ****** ****** ****** ****** ****** ******
      ****** ****** ****** ****** ****** ****** ****** ****** ****** ******
  12  ****** ****** ****** ****** ****** ****** ****** ****** ****** ******
      ****** ****** ****** ****** ****** ****** ****** ****** ****** ******
      ****** ****** ****** ****** ****** ****** ****** ****** ****** ******
  13  ****** ****** ****** ****** ****** ****** ****** ****** ****** ******
      ****** ****** ****** ****** ****** ****** ****** ****** ****** ******
      ****** ****** ****** ****** ****** ****** ****** ****** ****** ******
  14  ****** ****** ****** ****** ****** ****** ****** ****** ****** ******
      ****** ****** ****** ****** ****** ****** ****** ****** ****** ******
      ****** ****** ****** ****** ****** ****** ****** ****** ****** ******
  15  ****** ****** ****** ****** ****** ****** ****** ****** ****** ******
      ****** ****** ****** ****** ****** ****** ****** ****** ****** ******
      ****** ****** ****** ****** ****** ****** ****** ****** ****** ******
  16  ****** ****** ****** ****** ****** ****** ****** ****** ****** ******
      ****** ****** ****** ****** ****** ****** ****** ****** ****** ******
      ****** ****** ****** ****** ****** ****** ****** ****** ****** ******
  17  ****** ****** ****** ****** ****** ****** ****** ****** ****** ******
      ****** ****** ****** ****** ****** ****** ****** ****** ****** ******
      ****** ****** ****** ****** ****** ****** ****** ****** ****** ******
  18  ****** ****** ****** ****** ****** ****** ****** ****** ****** ******
      ****** ****** ****** ****** ****** ****** ****** ****** ****** ******
      ****** ****** ****** ****** ****** ****** ****** ****** ****** ******
  19  ****** ****** ****** ****** ****** ****** ****** ****** ****** ******
      ****** ****** ****** ****** ****** ****** ****** ****** ****** ******
      ****** ****** ****** ****** ****** ****** ****** ****** ****** ******
  20  ****** ****** ****** ****** ****** ****** ****** ****** ****** ******
      ****** ****** ****** ****** ****** ****** ****** ****** ****** ******
      ****** ****** ****** ****** ****** ****** ****** ****** ****** ******
  21  ****** ****** ****** ****** ****** ****** ****** ****** ****** ******
      ****** ****** ****** ****** ****** ****** ****** ****** ****** ******
      ****** ****** ****** ****** ****** ****** ****** ****** ****** ******
  22  ****** ****** ****** ****** ****** ****** ****** ****** ****** ******
      ****** ****** ****** ****** ****** ****** ****** ****** ****** ******
      ****** ****** ****** ****** ****** ****** ****** ****** ****** ******
  23  ****** ****** ****** ****** ****** ****** ****** ****** ****** ******
      ****** ****** ****** ****** ****** ****** ****** ****** ****** ******
      ****** ****** ****** ****** ****** ****** ****** ****** ****** ******
  24  ****** ****** ****** ****** ****** ****** ****** ****** ****** ******
      ****** ****** ****** ****** ****** ****** ****** ****** ****** ******
      ****** ****** ****** ****** ****** ****** ****** ****** ****** ******
  25  ****** ****** ****** ****** ****** ****** ****** ****** ****** ******
      ****** ****** ****** ****** ****** ****** ****** ****** ****** ******
      ****** ****** ****** ****** ****** ****** ****** ****** ****** ******

 HEAD WILL BE SAVED ON UNIT   51 AT END OF TIME STEP    1, STRESS PERIOD   12
1
  VOLUMETRIC BUDGET FOR ENTIRE MODEL AT END OF TIME STEP    1, STRESS PERIOD  12
  ------------------------------------------------------------------------------

     CUMULATIVE VOLUMES      L**3       RATES FOR THIS TIME STEP      L**3/T
     ------------------                 ------------------------

           IN:                                      IN:
           ---                                      ---
             STORAGE =    25584777.1619               STORAGE =           0.0000
       CONSTANT HEAD =   197018682.8609         CONSTANT HEAD =      185256.0002
               WELLS =           0.0000                 WELLS =           0.0000
            RECHARGE =    26413200.0000              RECHARGE =       27600.0000
      STREAM LEAKAGE =     7392175.9590        STREAM LEAKAGE =        6947.1603

            TOTAL IN =   256408835.9818              TOTAL IN =      219803.1604

          OUT:                                     OUT:
          ----                                     ----
             STORAGE =     2623100.3743               STORAGE =        3734.5032
       CONSTANT HEAD =           0.0000         CONSTANT HEAD =           0.0000
               WELLS =   106073865.8531                 WELLS =       95223.4254
            RECHARGE =           0.0000              RECHARGE =           0.0000
      STREAM LEAKAGE =   147711870.6889        STREAM LEAKAGE =      120845.2311

           TOTAL OUT =   256408836.9163             TOTAL OUT =      219803.1596

            IN - OUT =          -0.9345              IN - OUT =       8.2289E-04

 PERCENT DISCREPANCY =          -0.00     PERCENT DISCREPANCY =           0.00






         TIME SUMMARY AT END OF TIME STEP    1 IN STRESS PERIOD   12
                    SECONDS     MINUTES      HOURS       DAYS        YEARS
                    -----------------------------------------------------------
   TIME STEP LENGTH 7.86240E+06 1.31040E+05  2184.0      91.000     0.24914    
 STRESS PERIOD TIME 7.86240E+06 1.31040E+05  2184.0      91.000     0.24914    
         TOTAL TIME 9.46080E+07 1.57680E+06  26280.      1095.0      2.9979    
1

 Run end date and time (yyyy/mm/dd hh:mm:ss): 2018/10/08 23:15:22
 Elapsed run time:  0.072 Seconds

