                                  MODFLOW-2005     
      U.S. GEOLOGICAL SURVEY MODULAR FINITE-DIFFERENCE GROUND-WATER FLOW MODEL
                            VERSION 1.11.00 8/8/2013

 LIST FILE: supply2.lst
                         UNIT   10

 OPENING ..\data\supply.dis
 FILE TYPE:DIS   UNIT   11   STATUS:OLD    
 FORMAT:FORMATTED              ACCESS:SEQUENTIAL          

 OPENING ..\data\supply.ba6
 FILE TYPE:BAS6   UNIT   12   STATUS:OLD    
 FORMAT:FORMATTED              ACCESS:SEQUENTIAL          

 OPENING ..\data\supply.bc6
 FILE TYPE:BCF6   UNIT   13   STATUS:OLD    
 FORMAT:FORMATTED              ACCESS:SEQUENTIAL          

 OPENING ..\data\supply.rch
 FILE TYPE:RCH   UNIT   15   STATUS:OLD    
 FORMAT:FORMATTED              ACCESS:SEQUENTIAL          

 OPENING ..\data\supply2.sfr
 FILE TYPE:SFR   UNIT   16   STATUS:OLD    
 FORMAT:FORMATTED              ACCESS:SEQUENTIAL          

 OPENING ..\data\supply.oc
 FILE TYPE:OC   UNIT   17   STATUS:OLD    
 FORMAT:FORMATTED              ACCESS:SEQUENTIAL          

 OPENING ..\data\supply.pcg
 FILE TYPE:PCG   UNIT   18   STATUS:OLD    
 FORMAT:FORMATTED              ACCESS:SEQUENTIAL          

 OPENING supply2.wel
 FILE TYPE:WEL   UNIT   19   STATUS:OLD    
 FORMAT:FORMATTED              ACCESS:SEQUENTIAL          

 OPENING supply2sf.bin
 FILE TYPE:DATA(BINARY)   UNIT   50   STATUS:UNKNOWN
 FORMAT:BINARY                 ACCESS:SEQUENTIAL          

 OPENING supply2hd.bin
 FILE TYPE:DATA(BINARY)   UNIT   51   STATUS:UNKNOWN
 FORMAT:BINARY                 ACCESS:SEQUENTIAL          

 BAS -- BASIC PACKAGE, VERSION 7, 5/2/2005 INPUT READ FROM UNIT   12
 
 MODFLOW was compiled using uniform precision
 Precision of REAL and DOUBLE PRECISION variables:          15

 DISCRETIZATION INPUT DATA READ FROM UNIT   11
    1 LAYERS        25 ROWS        30 COLUMNS
   12 STRESS PERIOD(S) IN SIMULATION
 MODEL TIME UNIT IS DAYS
 MODEL LENGTH UNIT IS UNDEFINED
  Confining bed flag for each layer:
   0

                     DELR =   200.000    

                     DELC =   200.000    

 TOP ELEVATION OF LAYER 1 =  100.0000    

   MODEL LAYER BOTTOM EL. =   0.00000     FOR LAYER   1


 STRESS PERIOD     LENGTH       TIME STEPS     MULTIPLIER FOR DELT    SS FLAG
 ----------------------------------------------------------------------------
        1         92.00000          1                    1.500         TR
        2         91.00000          1                    1.500         TR
        3         91.00000          1                    1.500         TR
        4         91.00000          1                    1.500         TR
        5         92.00000          1                    1.500         TR
        6         91.00000          1                    1.500         TR
        7         91.00000          1                    1.500         TR
        8         91.00000          1                    1.500         TR
        9         92.00000          1                    1.500         TR
       10         91.00000          1                    1.500         TR
       11         91.00000          1                    1.500         TR
       12         91.00000          1                    1.500         TR

 TRANSIENT SIMULATION



 
 #MODOFC transient water supply sample problem                                   
 #                                                                               
 THE FREE FORMAT OPTION HAS BEEN SELECTED



                     BOUNDARY ARRAY FOR LAYER   1
 READING ON UNIT   12 WITH FORMAT: (20I4)              

 AQUIFER HEAD WILL BE SET TO   0.0000     AT ALL NO-FLOW NODES (IBOUND=0).



                       INITIAL HEAD FOR LAYER   1
 READING ON UNIT   12 WITH FORMAT: (10F13.0)           

 OUTPUT CONTROL IS SPECIFIED ONLY AT TIME STEPS FOR WHICH OUTPUT IS DESIRED
 COMPACT CELL-BY-CELL BUDGET FILES WILL BE WRITTEN
 HEAD PRINT FORMAT CODE IS  18    DRAWDOWN PRINT FORMAT CODE IS   0
 HEADS WILL BE SAVED ON UNIT   51    DRAWDOWNS WILL BE SAVED ON UNIT    0

 BCF -- BLOCK-CENTERED FLOW PACKAGE, VERSION 7, 5/2/2005
         INPUT READ FROM UNIT 13
 TRANSIENT SIMULATION
 HEAD AT CELLS THAT CONVERT TO DRY=   0.0000    
 WETTING CAPABILITY IS NOT ACTIVE
      LAYER  LAYER-TYPE CODE     INTERBLOCK T
      --------------------------------------------
         1            0          0 -- HARMONIC    

 COLUMN TO ROW ANISOTROPY =  1.000000    

     PRIMARY STORAGE COEF =  5.000000E-02 FOR LAYER   1

     TRANSMIS. ALONG ROWS =   5000.00     FOR LAYER   1

 WEL -- WELL PACKAGE, VERSION 7, 5/2/2005 INPUT READ FROM UNIT   19
 # Well package input file written by MMProc
 No named parameters
 MAXIMUM OF      7 ACTIVE WELLS AT ONE TIME


     0 Well parameters

 RCH -- RECHARGE PACKAGE, VERSION 7, 5/2/2005 INPUT READ FROM UNIT   15
 No named parameters
 OPTION 1 -- RECHARGE TO TOP LAYER


     0 Recharge parameters

 SFR7 -- STREAMFLOW ROUTING PACKAGE, VERSION 1.0.7, 2013-01-15
         INPUT READ FROM UNIT  16
 #  Supply2 test problem for GWM-VI
 #  The eighth entry in the first data line is ISTCB2 -
 #    Setting this to a negative number indicates that
 #    streamflows out of the reach will be saved to a
 #    binary file.  The absolute value of ISTCB2 is the
 #    unit to which unformatted flows will be written.
 #
 No named parameters
 Segment information will not be 
 read by reach
 No named parameters
 No specifed inflow files


 NUMBER OF STREAM REACHES IS   40

 NUMBER OF STREAM SEGMENTS IS    3

 NUMBER OF STREAM PARAMETERS IS    0

 NUMBER OF STREAM SEGMENTS DEFINED USING PARAMETERS IS              0

 MAXIMUM ERROR FOR STREAM LEAKAGE RATES IS  1.00E-04

 CONSTANT FOR MANNINGS EQUATION IS  1.2839E+05





   STREAM NETWORK DESCRIPTION: 

   LAYER    ROW    COL   SEGMENT   REACH     LENGTH
                          NUMBER   NUMBER    IN CELL        
   --------------------------------------------------
      1     13      1       1        1    2.0000E+02
      1     13      2       1        2    2.0000E+02
      1     14      3       1        3    2.0000E+02
      1     15      4       1        4    2.0000E+02
      1     16      5       1        5    2.0000E+02
      1     16      6       1        6    2.0000E+02
      1     16      7       1        7    2.0000E+02
      1     16      8       1        8    2.0000E+02
      1     16      9       1        9    2.0000E+02
      1     16     10       1       10    2.0000E+02
      1     16     11       1       11    2.0000E+02
      1     16     12       1       12    2.0000E+02
      1     15     13       1       13    2.0000E+02
      1     14     14       1       14    2.0000E+02
      1     13     15       1       15    2.0000E+02
      1     12     16       1       16    2.0000E+02
      1     12     17       1       17    2.0000E+02
      1     12     18       1       18    2.0000E+02
      1     12     19       1       19    2.0000E+02
      1     13     20       1       20    2.0000E+02
      1     14     21       1       21    2.0000E+02
      1     14     22       1       22    2.0000E+02
      1      9     30       2        1    2.0000E+02
      1      9     29       2        2    2.0000E+02
      1      9     28       2        3    2.0000E+02
      1      9     27       2        4    2.0000E+02
      1     10     26       2        5    2.0000E+02
      1     11     25       2        6    2.0000E+02
      1     12     24       2        7    2.0000E+02
      1     13     23       2        8    2.0000E+02
      1     14     22       2        9    2.0000E+02
      1     14     22       3        1    2.0000E+02
      1     15     23       3        2    2.0000E+02
      1     15     24       3        3    2.0000E+02
      1     15     25       3        4    2.0000E+02
      1     15     26       3        5    2.0000E+02
      1     16     27       3        6    2.0000E+02
      1     17     28       3        7    2.0000E+02
      1     18     29       3        8    2.0000E+02
      1     18     30       3        9    2.0000E+02




 PCG -- CONJUGATE-GRADIENT SOLUTION PACKAGE, VERSION 7, 5/2/2005
 MAXIMUM OF    500 CALLS OF SOLUTION ROUTINE
 MAXIMUM OF      5 INTERNAL ITERATIONS PER CALL TO SOLUTION ROUTINE
 MATRIX PRECONDITIONING TYPE :    1



                                    SOLUTION BY THE CONJUGATE-GRADIENT METHOD
                                   -------------------------------------------
                    MAXIMUM NUMBER OF CALLS TO PCG ROUTINE =      500
                        MAXIMUM ITERATIONS PER CALL TO PCG =        5
                               MATRIX PRECONDITIONING TYPE =        1
        RELAXATION FACTOR (ONLY USED WITH PRECOND. TYPE 1) =    0.10000E+01
 PARAMETER OF POLYNOMIAL PRECOND. = 2 (2) OR IS CALCULATED :        0
                         HEAD CHANGE CRITERION FOR CLOSURE =    0.10000E-05
                     RESIDUAL CHANGE CRITERION FOR CLOSURE =    0.10000E+01
            PCG HEAD AND RESIDUAL CHANGE PRINTOUT INTERVAL =        1
     PRINTING FROM SOLVER IS LIMITED(1) OR SUPPRESSED (>1) =        1
                            STEADY-STATE DAMPING PARAMETER =    0.10000E+01
                               TRANSIENT DAMPING PARAMETER =    0.10000E+01
1
                            STRESS PERIOD NO.    1, LENGTH =   92.00000    
                            -----------------------------------------------

                              NUMBER OF TIME STEPS =     1

                               MULTIPLIER FOR DELT =     1.500

                            INITIAL TIME STEP SIZE =   92.00000    

 WELL NO.  LAYER   ROW   COL   STRESS RATE         
 --------------------------------------------------
      1      1      2     21     -0.4767E+05
      2      1     23     19     -0.3233E+05

      2 WELLS

                 RECHARGE =  5.000000E-04



 CLASSIFICATION & COUNT OF STREAM SEGMENTS BASED ON SOURCE OF INFLOW:

                HEADWATER     DIVERSION     RECEIVES TRIBUTARY FLOW
                ---------     ---------     -----------------------
                     2              0               1



                    INPUT DATA FOR EACH STREAM SEGMENT
 ---------------------------------------------------------------------------------------------

 SEGMENT    SEG.     INFLOW   OVERLAND   STREAM    STREAM   ICALC  OUTFLOW  DIVERSION PRIORITY
    NO.    LENGTH     RATE     RUNOFF      ET       PPT.    METH.  TO SEG.  FROM SEG.    NO.

      1  4.400E+03 1.000E+05 0.000E+00 0.000E+00 0.000E+00    1        3        0        0
      2  1.800E+03 5.000E+04 0.000E+00 0.000E+00 0.000E+00    1        3        0        0
      3  1.800E+03 0.000E+00 0.000E+00 0.000E+00 0.000E+00    1        0        0        0


         STREAMBED PROPERTIES AND STREAM DIMENSIONS

 SEGMENT     BED HYD. COND.      BED THICKNESS     ELEV.-TOP OF BED     WIDTH OF STREAM     DEPTH OF STREAM    STREAM ROUGHNESS
    No.     UPPER     LOWER     UPPER     LOWER     UPPER     LOWER     UPPER     LOWER     UPPER     LOWER   CHANNEL      BANK

     1  5.000E+00 5.000E+00 1.000E+00 1.000E+00 4.850E+01 3.800E+01 2.000E+01 2.000E+01                     5.000E-02
     2  5.000E+00 5.000E+00 1.000E+00 1.000E+00 4.025E+01 3.800E+01 2.000E+01 2.000E+01                     5.000E-02
     3  5.000E+00 5.000E+00 1.000E+00 1.000E+00 3.800E+01 3.000E+01 2.000E+01 2.000E+01                     5.000E-02



 
 SOLVING FOR HEAD 


     8 CALLS TO PCG ROUTINE FOR TIME STEP   1 IN STRESS PERIOD    1
    32 TOTAL ITERATIONS

 OUTPUT CONTROL FOR STRESS PERIOD    1   TIME STEP    1
    SAVE BUDGET
    SAVE HEAD FOR ALL LAYERS
    PRINT HEAD FOR ALL LAYERS
 UBDSV2 SAVING "STREAMFLOW OUT  " ON UNIT  50 AT TIME STEP  1, STRESS PERIOD   1



 STREAM LISTING     PERIOD      1   STEP        1

 LAYER ROW COL. STREAM  RCH.  FLOW INTO     FLOW TO   FLOW OUT OF   OVRLND.     DIRECT     STREAM       STREAM     STREAM     STREAM   STREAMBED  STREAMBED
                SEG.NO.  NO.  STRM. RCH.    AQUIFER    STRM. RCH.    RUNOFF     PRECIP       ET          HEAD       DEPTH      WIDTH   CONDCTNC.   GRADIENT

   1   13    1     1     1    1.0000E+05 -3.1677E+04   1.3168E+05  0.000E+00  0.000E+00  0.000E+00  4.84194E+01  1.580E-01  2.000E+01  2.000E+04 -1.584E+00
   1   13    2     1     2    1.3168E+05 -4.2142E+04   1.7382E+05  0.000E+00  0.000E+00  0.000E+00  4.79706E+01  1.865E-01  2.000E+01  2.000E+04 -2.107E+00
   1   14    3     1     3    1.7382E+05 -3.7678E+04   2.1150E+05  0.000E+00  0.000E+00  0.000E+00  4.75212E+01  2.144E-01  2.000E+01  2.000E+04 -1.884E+00
   1   15    4     1     4    2.1150E+05 -3.6728E+04   2.4822E+05  0.000E+00  0.000E+00  0.000E+00  4.70679E+01  2.383E-01  2.000E+01  2.000E+04 -1.836E+00
   1   16    5     1     5    2.4822E+05 -3.7657E+04   2.8588E+05  0.000E+00  0.000E+00  0.000E+00  4.66131E+01  2.608E-01  2.000E+01  2.000E+04 -1.883E+00
   1   16    6     1     6    2.8588E+05 -3.2928E+04   3.1881E+05  0.000E+00  0.000E+00  0.000E+00  4.61559E+01  2.809E-01  2.000E+01  2.000E+04 -1.646E+00
   1   16    7     1     7    3.1881E+05 -3.2736E+04   3.5155E+05  0.000E+00  0.000E+00  0.000E+00  4.56966E+01  2.989E-01  2.000E+01  2.000E+04 -1.637E+00
   1   16    8     1     8    3.5155E+05 -3.2937E+04   3.8448E+05  0.000E+00  0.000E+00  0.000E+00  4.52366E+01  3.161E-01  2.000E+01  2.000E+04 -1.647E+00
   1   16    9     1     9    3.8448E+05 -3.3017E+04   4.1750E+05  0.000E+00  0.000E+00  0.000E+00  4.47760E+01  3.328E-01  2.000E+01  2.000E+04 -1.651E+00
   1   16   10     1    10    4.1750E+05 -3.3023E+04   4.5052E+05  0.000E+00  0.000E+00  0.000E+00  4.43149E+01  3.490E-01  2.000E+01  2.000E+04 -1.651E+00
   1   16   11     1    11    4.5052E+05 -3.3632E+04   4.8416E+05  0.000E+00  0.000E+00  0.000E+00  4.38535E+01  3.648E-01  2.000E+01  2.000E+04 -1.682E+00
   1   16   12     1    12    4.8416E+05 -3.9571E+04   5.2373E+05  0.000E+00  0.000E+00  0.000E+00  4.33931E+01  3.817E-01  2.000E+01  2.000E+04 -1.979E+00
   1   15   13     1    13    5.2373E+05 -3.8957E+04   5.6268E+05  0.000E+00  0.000E+00  0.000E+00  4.29334E+01  3.993E-01  2.000E+01  2.000E+04 -1.948E+00
   1   14   14     1    14    5.6268E+05 -3.9790E+04   6.0247E+05  0.000E+00  0.000E+00  0.000E+00  4.24732E+01  4.164E-01  2.000E+01  2.000E+04 -1.990E+00
   1   13   15     1    15    6.0247E+05 -4.1989E+04   6.4446E+05  0.000E+00  0.000E+00  0.000E+00  4.20133E+01  4.337E-01  2.000E+01  2.000E+04 -2.099E+00
   1   12   16     1    16    6.4446E+05 -4.7713E+04   6.9218E+05  0.000E+00  0.000E+00  0.000E+00  4.15545E+01  4.522E-01  2.000E+01  2.000E+04 -2.386E+00
   1   12   17     1    17    6.9218E+05 -3.7442E+04   7.2962E+05  0.000E+00  0.000E+00  0.000E+00  4.10943E+01  4.693E-01  2.000E+01  2.000E+04 -1.872E+00
   1   12   18     1    18    7.2962E+05 -3.5661E+04   7.6528E+05  0.000E+00  0.000E+00  0.000E+00  4.06313E+01  4.836E-01  2.000E+01  2.000E+04 -1.783E+00
   1   12   19     1    19    7.6528E+05 -4.0022E+04   8.0530E+05  0.000E+00  0.000E+00  0.000E+00  4.01686E+01  4.981E-01  2.000E+01  2.000E+04 -2.001E+00
   1   13   20     1    20    8.0530E+05 -3.0237E+04   8.3554E+05  0.000E+00  0.000E+00  0.000E+00  3.97046E+01  5.114E-01  2.000E+01  2.000E+04 -1.512E+00
   1   14   21     1    21    8.3554E+05 -2.2559E+04   8.5810E+05  0.000E+00  0.000E+00  0.000E+00  3.92371E+01  5.212E-01  2.000E+01  2.000E+04 -1.128E+00
   1   14   22     1    22    8.5810E+05 -2.8231E+03   8.6092E+05  0.000E+00  0.000E+00  0.000E+00  3.87645E+01  5.259E-01  2.000E+01  2.000E+04 -1.412E-01
   1    9   30     2     1    5.0000E+04 -2.9527E+04   7.9527E+04  0.000E+00  0.000E+00  0.000E+00  4.02603E+01  1.353E-01  2.000E+01  2.000E+04 -1.476E+00
   1    9   29     2     2    7.9527E+04 -3.1946E+04   1.1147E+05  0.000E+00  0.000E+00  0.000E+00  4.00458E+01  1.708E-01  2.000E+01  2.000E+04 -1.597E+00
   1    9   28     2     3    1.1147E+05 -3.6212E+04   1.4768E+05  0.000E+00  0.000E+00  0.000E+00  3.98302E+01  2.052E-01  2.000E+01  2.000E+04 -1.811E+00
   1    9   27     2     4    1.4768E+05 -5.0680E+04   1.9836E+05  0.000E+00  0.000E+00  0.000E+00  3.96190E+01  2.440E-01  2.000E+01  2.000E+04 -2.534E+00
   1   10   26     2     5    1.9836E+05 -3.7123E+04   2.3549E+05  0.000E+00  0.000E+00  0.000E+00  3.94045E+01  2.795E-01  2.000E+01  2.000E+04 -1.856E+00
   1   11   25     2     6    2.3549E+05 -2.8781E+04   2.6427E+05  0.000E+00  0.000E+00  0.000E+00  3.91792E+01  3.042E-01  2.000E+01  2.000E+04 -1.439E+00
   1   12   24     2     7    2.6427E+05 -2.1891E+04   2.8616E+05  0.000E+00  0.000E+00  0.000E+00  3.89474E+01  3.224E-01  2.000E+01  2.000E+04 -1.095E+00
   1   13   23     2     8    2.8616E+05 -1.5922E+04   3.0208E+05  0.000E+00  0.000E+00  0.000E+00  3.87105E+01  3.355E-01  2.000E+01  2.000E+04 -7.961E-01
   1   14   22     2     9    3.0208E+05 -8.7358E+03   3.1082E+05  0.000E+00  0.000E+00  0.000E+00  3.84689E+01  3.439E-01  2.000E+01  2.000E+04 -4.368E-01
   1   14   22     3     1    1.1717E+06 -1.6447E+04   1.1882E+06  0.000E+00  0.000E+00  0.000E+00  3.80833E+01  5.277E-01  2.000E+01  2.000E+04 -8.224E-01
   1   15   23     3     2    1.1882E+06 -2.6283E+04   1.2145E+06  0.000E+00  0.000E+00  0.000E+00  3.72001E+01  5.335E-01  2.000E+01  2.000E+04 -1.314E+00
   1   15   24     3     3    1.2145E+06 -2.2093E+04   1.2366E+06  0.000E+00  0.000E+00  0.000E+00  3.63176E+01  5.399E-01  2.000E+01  2.000E+04 -1.105E+00
   1   15   25     3     4    1.2366E+06 -2.1897E+04   1.2585E+06  0.000E+00  0.000E+00  0.000E+00  3.54346E+01  5.457E-01  2.000E+01  2.000E+04 -1.095E+00
   1   15   26     3     5    1.2585E+06 -2.5376E+04   1.2838E+06  0.000E+00  0.000E+00  0.000E+00  3.45518E+01  5.518E-01  2.000E+01  2.000E+04 -1.269E+00
   1   16   27     3     6    1.2838E+06 -3.3035E+04   1.3169E+06  0.000E+00  0.000E+00  0.000E+00  3.36705E+01  5.594E-01  2.000E+01  2.000E+04 -1.652E+00
   1   17   28     3     7    1.3169E+06 -4.0042E+04   1.3569E+06  0.000E+00  0.000E+00  0.000E+00  3.27910E+01  5.688E-01  2.000E+01  2.000E+04 -2.002E+00
   1   18   29     3     8    1.3569E+06 -5.0507E+04   1.4074E+06  0.000E+00  0.000E+00  0.000E+00  3.19136E+01  5.803E-01  2.000E+01  2.000E+04 -2.525E+00
   1   18   30     3     9    1.4074E+06 -4.6585E+04   1.4540E+06  0.000E+00  0.000E+00  0.000E+00  3.10369E+01  5.924E-01  2.000E+01  2.000E+04 -2.329E+00



1
              HEAD IN LAYER   1 AT END OF TIME STEP   1 IN STRESS PERIOD    1
  ---------------------------------------------------------------------------

          1      2      3      4      5      6      7      8      9     10
         11     12     13     14     15     16     17     18     19     20
         21     22     23     24     25     26     27     28     29     30
 .........................................................................
   1  ****** ****** ****** ****** ****** ****** ****** ****** ****** ******
      ****** ****** ****** ****** ****** ****** ****** ****** ****** ******
      ****** ****** ****** ****** ****** ****** ****** ****** ****** ******
   2  ****** ****** ****** ****** ****** ****** ****** ****** ****** ******
      ****** ****** ****** ****** ****** ****** ****** ****** ****** ******
      ****** ****** ****** ****** ****** ****** ****** ****** ****** ******
   3  ****** ****** ****** ****** ****** ****** ****** ****** ****** ******
      ****** ****** ****** ****** ****** ****** ****** ****** ****** ******
      ****** ****** ****** ****** ****** ****** ****** ****** ****** ******
   4  ****** ****** ****** ****** ****** ****** ****** ****** ****** ******
      ****** ****** ****** ****** ****** ****** ****** ****** ****** ******
      ****** ****** ****** ****** ****** ****** ****** ****** ****** ******
   5  ****** ****** ****** ****** ****** ****** ****** ****** ****** ******
      ****** ****** ****** ****** ****** ****** ****** ****** ****** ******
      ****** ****** ****** ****** ****** ****** ****** ****** ****** ******
   6  ****** ****** ****** ****** ****** ****** ****** ****** ****** ******
      ****** ****** ****** ****** ****** ****** ****** ****** ****** ******
      ****** ****** ****** ****** ****** ****** ****** ****** ****** ******
   7  ****** ****** ****** ****** ****** ****** ****** ****** ****** ******
      ****** ****** ****** ****** ****** ****** ****** ****** ****** ******
      ****** ****** ****** ****** ****** ****** ****** ****** ****** ******
   8  ****** ****** ****** ****** ****** ****** ****** ****** ****** ******
      ****** ****** ****** ****** ****** ****** ****** ****** ****** ******
      ****** ****** ****** ****** ****** ****** ****** ****** ****** ******
   9  ****** ****** ****** ****** ****** ****** ****** ****** ****** ******
      ****** ****** ****** ****** ****** ****** ****** ****** ****** ******
      ****** ****** ****** ****** ****** ****** ****** ****** ****** ******
  10  ****** ****** ****** ****** ****** ****** ****** ****** ****** ******
      ****** ****** ****** ****** ****** ****** ****** ****** ****** ******
      ****** ****** ****** ****** ****** ****** ****** ****** ****** ******
  11  ****** ****** ****** ****** ****** ****** ****** ****** ****** ******
      ****** ****** ****** ****** ****** ****** ****** ****** ****** ******
      ****** ****** ****** ****** ****** ****** ****** ****** ****** ******
  12  ****** ****** ****** ****** ****** ****** ****** ****** ****** ******
      ****** ****** ****** ****** ****** ****** ****** ****** ****** ******
      ****** ****** ****** ****** ****** ****** ****** ****** ****** ******
  13  ****** ****** ****** ****** ****** ****** ****** ****** ****** ******
      ****** ****** ****** ****** ****** ****** ****** ****** ****** ******
      ****** ****** ****** ****** ****** ****** ****** ****** ****** ******
  14  ****** ****** ****** ****** ****** ****** ****** ****** ****** ******
      ****** ****** ****** ****** ****** ****** ****** ****** ****** ******
      ****** ****** ****** ****** ****** ****** ****** ****** ****** ******
  15  ****** ****** ****** ****** ****** ****** ****** ****** ****** ******
      ****** ****** ****** ****** ****** ****** ****** ****** ****** ******
      ****** ****** ****** ****** ****** ****** ****** ****** ****** ******
  16  ****** ****** ****** ****** ****** ****** ****** ****** ****** ******
      ****** ****** ****** ****** ****** ****** ****** ****** ****** ******
      ****** ****** ****** ****** ****** ****** ****** ****** ****** ******
  17  ****** ****** ****** ****** ****** ****** ****** ****** ****** ******
      ****** ****** ****** ****** ****** ****** ****** ****** ****** ******
      ****** ****** ****** ****** ****** ****** ****** ****** ****** ******
  18  ****** ****** ****** ****** ****** ****** ****** ****** ****** ******
      ****** ****** ****** ****** ****** ****** ****** ****** ****** ******
      ****** ****** ****** ****** ****** ****** ****** ****** ****** ******
  19  ****** ****** ****** ****** ****** ****** ****** ****** ****** ******
      ****** ****** ****** ****** ****** ****** ****** ****** ****** ******
      ****** ****** ****** ****** ****** ****** ****** ****** ****** ******
  20  ****** ****** ****** ****** ****** ****** ****** ****** ****** ******
      ****** ****** ****** ****** ****** ****** ****** ****** ****** ******
      ****** ****** ****** ****** ****** ****** ****** ****** ****** ******
  21  ****** ****** ****** ****** ****** ****** ****** ****** ****** ******
      ****** ****** ****** ****** ****** ****** ****** ****** ****** ******
      ****** ****** ****** ****** ****** ****** ****** ****** ****** ******
  22  ****** ****** ****** ****** ****** ****** ****** ****** ****** ******
      ****** ****** ****** ****** ****** ****** ****** ****** ****** ******
      ****** ****** ****** ****** ****** ****** ****** ****** ****** ******
  23  ****** ****** ****** ****** ****** ****** ****** ****** ****** ******
      ****** ****** ****** ****** ****** ****** ****** ****** ****** ******
      ****** ****** ****** ****** ****** ****** ****** ****** ****** ******
  24  ****** ****** ****** ****** ****** ****** ****** ****** ****** ******
      ****** ****** ****** ****** ****** ****** ****** ****** ****** ******
      ****** ****** ****** ****** ****** ****** ****** ****** ****** ******
  25  ****** ****** ****** ****** ****** ****** ****** ****** ****** ******
      ****** ****** ****** ****** ****** ****** ****** ****** ****** ******
      ****** ****** ****** ****** ****** ****** ****** ****** ****** ******

 HEAD WILL BE SAVED ON UNIT   51 AT END OF TIME STEP    1, STRESS PERIOD    1
1
  VOLUMETRIC BUDGET FOR ENTIRE MODEL AT END OF TIME STEP    1, STRESS PERIOD   1
  ------------------------------------------------------------------------------

     CUMULATIVE VOLUMES      L**3       RATES FOR THIS TIME STEP      L**3/T
     ------------------                 ------------------------

           IN:                                      IN:
           ---                                      ---
             STORAGE =    19055381.5198               STORAGE =      207123.7122
       CONSTANT HEAD =   107003206.8409         CONSTANT HEAD =     1163078.3352
               WELLS =           0.0000                 WELLS =           0.0000
            RECHARGE =     1269600.0000              RECHARGE =       13800.0000
      STREAM LEAKAGE =           0.0000        STREAM LEAKAGE =           0.0000

            TOTAL IN =   127328188.3607              TOTAL IN =     1384002.0474

          OUT:                                     OUT:
          ----                                     ----
             STORAGE =           0.0000               STORAGE =           0.0000
       CONSTANT HEAD =           0.0000         CONSTANT HEAD =           0.0000
               WELLS =     7360000.0000                 WELLS =       80000.0000
            RECHARGE =           0.0000              RECHARGE =           0.0000
      STREAM LEAKAGE =   119968190.0531        STREAM LEAKAGE =     1304002.0658

           TOTAL OUT =   127328190.0531             TOTAL OUT =     1384002.0658

            IN - OUT =          -1.6924              IN - OUT =      -1.8396E-02

 PERCENT DISCREPANCY =          -0.00     PERCENT DISCREPANCY =          -0.00






         TIME SUMMARY AT END OF TIME STEP    1 IN STRESS PERIOD    1
                    SECONDS     MINUTES      HOURS       DAYS        YEARS
                    -----------------------------------------------------------
   TIME STEP LENGTH 7.94880E+06 1.32480E+05  2208.0      92.000     0.25188    
 STRESS PERIOD TIME 7.94880E+06 1.32480E+05  2208.0      92.000     0.25188    
         TOTAL TIME 7.94880E+06 1.32480E+05  2208.0      92.000     0.25188    
1
1
                            STRESS PERIOD NO.    2, LENGTH =   91.00000    
                            -----------------------------------------------

                              NUMBER OF TIME STEPS =     1

                               MULTIPLIER FOR DELT =     1.500

                            INITIAL TIME STEP SIZE =   91.00000    

 WELL NO.  LAYER   ROW   COL   STRESS RATE         
 --------------------------------------------------
      1      1      2     21     -0.4767E+05
      2      1     23     19       0.000    
      3      1     20      2     -0.3483E+05

      3 WELLS

                 RECHARGE =  2.000000E-03

 REUSING STREAM SEGMENT DATA FROM LAST STRESS PERIOD
 
 SOLVING FOR HEAD 


     7 CALLS TO PCG ROUTINE FOR TIME STEP   1 IN STRESS PERIOD    2
    27 TOTAL ITERATIONS

 OUTPUT CONTROL FOR STRESS PERIOD    2   TIME STEP    1
    SAVE BUDGET
    SAVE HEAD FOR ALL LAYERS
    PRINT HEAD FOR ALL LAYERS
 UBDSV2 SAVING "STREAMFLOW OUT  " ON UNIT  50 AT TIME STEP  1, STRESS PERIOD   2



 STREAM LISTING     PERIOD      2   STEP        1

 LAYER ROW COL. STREAM  RCH.  FLOW INTO     FLOW TO   FLOW OUT OF   OVRLND.     DIRECT     STREAM       STREAM     STREAM     STREAM   STREAMBED  STREAMBED
                SEG.NO.  NO.  STRM. RCH.    AQUIFER    STRM. RCH.    RUNOFF     PRECIP       ET          HEAD       DEPTH      WIDTH   CONDCTNC.   GRADIENT

   1   13    1     1     1    1.0000E+05 -2.7312E+04   1.2731E+05  0.000E+00  0.000E+00  0.000E+00  4.84176E+01  1.562E-01  2.000E+01  2.000E+04 -1.366E+00
   1   13    2     1     2    1.2731E+05 -3.7315E+04   1.6463E+05  0.000E+00  0.000E+00  0.000E+00  4.79656E+01  1.815E-01  2.000E+01  2.000E+04 -1.866E+00
   1   14    3     1     3    1.6463E+05 -3.1836E+04   1.9646E+05  0.000E+00  0.000E+00  0.000E+00  4.75130E+01  2.062E-01  2.000E+01  2.000E+04 -1.592E+00
   1   15    4     1     4    1.9646E+05 -3.0370E+04   2.2683E+05  0.000E+00  0.000E+00  0.000E+00  4.70564E+01  2.268E-01  2.000E+01  2.000E+04 -1.518E+00
   1   16    5     1     5    2.2683E+05 -3.1347E+04   2.5818E+05  0.000E+00  0.000E+00  0.000E+00  4.65984E+01  2.461E-01  2.000E+01  2.000E+04 -1.567E+00
   1   16    6     1     6    2.5818E+05 -2.8435E+04   2.8662E+05  0.000E+00  0.000E+00  0.000E+00  4.61389E+01  2.639E-01  2.000E+01  2.000E+04 -1.422E+00
   1   16    7     1     7    2.8662E+05 -2.8852E+04   3.1547E+05  0.000E+00  0.000E+00  0.000E+00  4.56779E+01  2.802E-01  2.000E+01  2.000E+04 -1.443E+00
   1   16    8     1     8    3.1547E+05 -2.9398E+04   3.4486E+05  0.000E+00  0.000E+00  0.000E+00  4.52166E+01  2.962E-01  2.000E+01  2.000E+04 -1.470E+00
   1   16    9     1     9    3.4486E+05 -2.9723E+04   3.7459E+05  0.000E+00  0.000E+00  0.000E+00  4.47550E+01  3.118E-01  2.000E+01  2.000E+04 -1.486E+00
   1   16   10     1    10    3.7459E+05 -2.9924E+04   4.0451E+05  0.000E+00  0.000E+00  0.000E+00  4.42930E+01  3.271E-01  2.000E+01  2.000E+04 -1.496E+00
   1   16   11     1    11    4.0451E+05 -3.0665E+04   4.3518E+05  0.000E+00  0.000E+00  0.000E+00  4.38308E+01  3.421E-01  2.000E+01  2.000E+04 -1.533E+00
   1   16   12     1    12    4.3518E+05 -3.6370E+04   4.7155E+05  0.000E+00  0.000E+00  0.000E+00  4.33696E+01  3.583E-01  2.000E+01  2.000E+04 -1.818E+00
   1   15   13     1    13    4.7155E+05 -3.5303E+04   5.0685E+05  0.000E+00  0.000E+00  0.000E+00  4.29091E+01  3.750E-01  2.000E+01  2.000E+04 -1.765E+00
   1   14   14     1    14    5.0685E+05 -3.5953E+04   5.4280E+05  0.000E+00  0.000E+00  0.000E+00  4.24480E+01  3.911E-01  2.000E+01  2.000E+04 -1.798E+00
   1   13   15     1    15    5.4280E+05 -3.8151E+04   5.8095E+05  0.000E+00  0.000E+00  0.000E+00  4.19870E+01  4.075E-01  2.000E+01  2.000E+04 -1.908E+00
   1   12   16     1    16    5.8095E+05 -4.4076E+04   6.2503E+05  0.000E+00  0.000E+00  0.000E+00  4.15274E+01  4.251E-01  2.000E+01  2.000E+04 -2.204E+00
   1   12   17     1    17    6.2503E+05 -3.4456E+04   6.5949E+05  0.000E+00  0.000E+00  0.000E+00  4.10665E+01  4.415E-01  2.000E+01  2.000E+04 -1.723E+00
   1   12   18     1    18    6.5949E+05 -3.2776E+04   6.9226E+05  0.000E+00  0.000E+00  0.000E+00  4.06030E+01  4.552E-01  2.000E+01  2.000E+04 -1.639E+00
   1   12   19     1    19    6.9226E+05 -3.6826E+04   7.2909E+05  0.000E+00  0.000E+00  0.000E+00  4.01396E+01  4.692E-01  2.000E+01  2.000E+04 -1.841E+00
   1   13   20     1    20    7.2909E+05 -2.7231E+04   7.5632E+05  0.000E+00  0.000E+00  0.000E+00  3.96749E+01  4.817E-01  2.000E+01  2.000E+04 -1.362E+00
   1   14   21     1    21    7.5632E+05 -2.0183E+04   7.7650E+05  0.000E+00  0.000E+00  0.000E+00  3.92068E+01  4.909E-01  2.000E+01  2.000E+04 -1.009E+00
   1   14   22     1    22    7.7650E+05 -1.9281E+03   7.7843E+05  0.000E+00  0.000E+00  0.000E+00  3.87338E+01  4.951E-01  2.000E+01  2.000E+04 -9.641E-02
   1    9   30     2     1    5.0000E+04 -2.6866E+04   7.6866E+04  0.000E+00  0.000E+00  0.000E+00  4.02586E+01  1.336E-01  2.000E+01  2.000E+04 -1.343E+00
   1    9   29     2     2    7.6866E+04 -2.9311E+04   1.0618E+05  0.000E+00  0.000E+00  0.000E+00  4.00415E+01  1.665E-01  2.000E+01  2.000E+04 -1.466E+00
   1    9   28     2     3    1.0618E+05 -3.3557E+04   1.3973E+05  0.000E+00  0.000E+00  0.000E+00  3.98238E+01  1.988E-01  2.000E+01  2.000E+04 -1.678E+00
   1    9   27     2     4    1.3973E+05 -4.7622E+04   1.8736E+05  0.000E+00  0.000E+00  0.000E+00  3.96109E+01  2.359E-01  2.000E+01  2.000E+04 -2.381E+00
   1   10   26     2     5    1.8736E+05 -3.3660E+04   2.2102E+05  0.000E+00  0.000E+00  0.000E+00  3.93945E+01  2.695E-01  2.000E+01  2.000E+04 -1.683E+00
   1   11   25     2     6    2.2102E+05 -2.5348E+04   2.4636E+05  0.000E+00  0.000E+00  0.000E+00  3.91673E+01  2.923E-01  2.000E+01  2.000E+04 -1.267E+00
   1   12   24     2     7    2.4636E+05 -1.8794E+04   2.6516E+05  0.000E+00  0.000E+00  0.000E+00  3.89335E+01  3.085E-01  2.000E+01  2.000E+04 -9.397E-01
   1   13   23     2     8    2.6516E+05 -1.3434E+04   2.7859E+05  0.000E+00  0.000E+00  0.000E+00  3.86950E+01  3.200E-01  2.000E+01  2.000E+04 -6.717E-01
   1   14   22     2     9    2.7859E+05 -7.5560E+03   2.8615E+05  0.000E+00  0.000E+00  0.000E+00  3.84524E+01  3.274E-01  2.000E+01  2.000E+04 -3.778E-01
   1   14   22     3     1    1.0646E+06 -1.5526E+04   1.0801E+06  0.000E+00  0.000E+00  0.000E+00  3.80539E+01  4.983E-01  2.000E+01  2.000E+04 -7.763E-01
   1   15   23     3     2    1.0801E+06 -2.4173E+04   1.1043E+06  0.000E+00  0.000E+00  0.000E+00  3.71705E+01  5.038E-01  2.000E+01  2.000E+04 -1.209E+00
   1   15   24     3     3    1.1043E+06 -2.0117E+04   1.1244E+06  0.000E+00  0.000E+00  0.000E+00  3.62877E+01  5.099E-01  2.000E+01  2.000E+04 -1.006E+00
   1   15   25     3     4    1.1244E+06 -1.9709E+04   1.1441E+06  0.000E+00  0.000E+00  0.000E+00  3.54043E+01  5.154E-01  2.000E+01  2.000E+04 -9.855E-01
   1   15   26     3     5    1.1441E+06 -2.2530E+04   1.1666E+06  0.000E+00  0.000E+00  0.000E+00  3.45211E+01  5.211E-01  2.000E+01  2.000E+04 -1.126E+00
   1   16   27     3     6    1.1666E+06 -2.9809E+04   1.1964E+06  0.000E+00  0.000E+00  0.000E+00  3.36393E+01  5.282E-01  2.000E+01  2.000E+04 -1.490E+00
   1   17   28     3     7    1.1964E+06 -3.6886E+04   1.2333E+06  0.000E+00  0.000E+00  0.000E+00  3.27593E+01  5.371E-01  2.000E+01  2.000E+04 -1.844E+00
   1   18   29     3     8    1.2333E+06 -4.7844E+04   1.2812E+06  0.000E+00  0.000E+00  0.000E+00  3.18816E+01  5.482E-01  2.000E+01  2.000E+04 -2.392E+00
   1   18   30     3     9    1.2812E+06 -4.4177E+04   1.3254E+06  0.000E+00  0.000E+00  0.000E+00  3.10046E+01  5.602E-01  2.000E+01  2.000E+04 -2.209E+00



1
              HEAD IN LAYER   1 AT END OF TIME STEP   1 IN STRESS PERIOD    2
  ---------------------------------------------------------------------------

          1      2      3      4      5      6      7      8      9     10
         11     12     13     14     15     16     17     18     19     20
         21     22     23     24     25     26     27     28     29     30
 .........................................................................
   1  ****** ****** ****** ****** ****** ****** ****** ****** ****** ******
      ****** ****** ****** ****** ****** ****** ****** ****** ****** ******
      ****** ****** ****** ****** ****** ****** ****** ****** ****** ******
   2  ****** ****** ****** ****** ****** ****** ****** ****** ****** ******
      ****** ****** ****** ****** ****** ****** ****** ****** ****** ******
      ****** ****** ****** ****** ****** ****** ****** ****** ****** ******
   3  ****** ****** ****** ****** ****** ****** ****** ****** ****** ******
      ****** ****** ****** ****** ****** ****** ****** ****** ****** ******
      ****** ****** ****** ****** ****** ****** ****** ****** ****** ******
   4  ****** ****** ****** ****** ****** ****** ****** ****** ****** ******
      ****** ****** ****** ****** ****** ****** ****** ****** ****** ******
      ****** ****** ****** ****** ****** ****** ****** ****** ****** ******
   5  ****** ****** ****** ****** ****** ****** ****** ****** ****** ******
      ****** ****** ****** ****** ****** ****** ****** ****** ****** ******
      ****** ****** ****** ****** ****** ****** ****** ****** ****** ******
   6  ****** ****** ****** ****** ****** ****** ****** ****** ****** ******
      ****** ****** ****** ****** ****** ****** ****** ****** ****** ******
      ****** ****** ****** ****** ****** ****** ****** ****** ****** ******
   7  ****** ****** ****** ****** ****** ****** ****** ****** ****** ******
      ****** ****** ****** ****** ****** ****** ****** ****** ****** ******
      ****** ****** ****** ****** ****** ****** ****** ****** ****** ******
   8  ****** ****** ****** ****** ****** ****** ****** ****** ****** ******
      ****** ****** ****** ****** ****** ****** ****** ****** ****** ******
      ****** ****** ****** ****** ****** ****** ****** ****** ****** ******
   9  ****** ****** ****** ****** ****** ****** ****** ****** ****** ******
      ****** ****** ****** ****** ****** ****** ****** ****** ****** ******
      ****** ****** ****** ****** ****** ****** ****** ****** ****** ******
  10  ****** ****** ****** ****** ****** ****** ****** ****** ****** ******
      ****** ****** ****** ****** ****** ****** ****** ****** ****** ******
      ****** ****** ****** ****** ****** ****** ****** ****** ****** ******
  11  ****** ****** ****** ****** ****** ****** ****** ****** ****** ******
      ****** ****** ****** ****** ****** ****** ****** ****** ****** ******
      ****** ****** ****** ****** ****** ****** ****** ****** ****** ******
  12  ****** ****** ****** ****** ****** ****** ****** ****** ****** ******
      ****** ****** ****** ****** ****** ****** ****** ****** ****** ******
      ****** ****** ****** ****** ****** ****** ****** ****** ****** ******
  13  ****** ****** ****** ****** ****** ****** ****** ****** ****** ******
      ****** ****** ****** ****** ****** ****** ****** ****** ****** ******
      ****** ****** ****** ****** ****** ****** ****** ****** ****** ******
  14  ****** ****** ****** ****** ****** ****** ****** ****** ****** ******
      ****** ****** ****** ****** ****** ****** ****** ****** ****** ******
      ****** ****** ****** ****** ****** ****** ****** ****** ****** ******
  15  ****** ****** ****** ****** ****** ****** ****** ****** ****** ******
      ****** ****** ****** ****** ****** ****** ****** ****** ****** ******
      ****** ****** ****** ****** ****** ****** ****** ****** ****** ******
  16  ****** ****** ****** ****** ****** ****** ****** ****** ****** ******
      ****** ****** ****** ****** ****** ****** ****** ****** ****** ******
      ****** ****** ****** ****** ****** ****** ****** ****** ****** ******
  17  ****** ****** ****** ****** ****** ****** ****** ****** ****** ******
      ****** ****** ****** ****** ****** ****** ****** ****** ****** ******
      ****** ****** ****** ****** ****** ****** ****** ****** ****** ******
  18  ****** ****** ****** ****** ****** ****** ****** ****** ****** ******
      ****** ****** ****** ****** ****** ****** ****** ****** ****** ******
      ****** ****** ****** ****** ****** ****** ****** ****** ****** ******
  19  ****** ****** ****** ****** ****** ****** ****** ****** ****** ******
      ****** ****** ****** ****** ****** ****** ****** ****** ****** ******
      ****** ****** ****** ****** ****** ****** ****** ****** ****** ******
  20  ****** ****** ****** ****** ****** ****** ****** ****** ****** ******
      ****** ****** ****** ****** ****** ****** ****** ****** ****** ******
      ****** ****** ****** ****** ****** ****** ****** ****** ****** ******
  21  ****** ****** ****** ****** ****** ****** ****** ****** ****** ******
      ****** ****** ****** ****** ****** ****** ****** ****** ****** ******
      ****** ****** ****** ****** ****** ****** ****** ****** ****** ******
  22  ****** ****** ****** ****** ****** ****** ****** ****** ****** ******
      ****** ****** ****** ****** ****** ****** ****** ****** ****** ******
      ****** ****** ****** ****** ****** ****** ****** ****** ****** ******
  23  ****** ****** ****** ****** ****** ****** ****** ****** ****** ******
      ****** ****** ****** ****** ****** ****** ****** ****** ****** ******
      ****** ****** ****** ****** ****** ****** ****** ****** ****** ******
  24  ****** ****** ****** ****** ****** ****** ****** ****** ****** ******
      ****** ****** ****** ****** ****** ****** ****** ****** ****** ******
      ****** ****** ****** ****** ****** ****** ****** ****** ****** ******
  25  ****** ****** ****** ****** ****** ****** ****** ****** ****** ******
      ****** ****** ****** ****** ****** ****** ****** ****** ****** ******
      ****** ****** ****** ****** ****** ****** ****** ****** ****** ******

 HEAD WILL BE SAVED ON UNIT   51 AT END OF TIME STEP    1, STRESS PERIOD    2
1
  VOLUMETRIC BUDGET FOR ENTIRE MODEL AT END OF TIME STEP    1, STRESS PERIOD   2
  ------------------------------------------------------------------------------

     CUMULATIVE VOLUMES      L**3       RATES FOR THIS TIME STEP      L**3/T
     ------------------                 ------------------------

           IN:                                      IN:
           ---                                      ---
             STORAGE =    19835130.3948               STORAGE =        8568.6690
       CONSTANT HEAD =   215693352.6410         CONSTANT HEAD =     1194397.2066
               WELLS =           0.0000                 WELLS =           0.0000
            RECHARGE =     6292800.0000              RECHARGE =       55200.0000
      STREAM LEAKAGE =           0.0000        STREAM LEAKAGE =           0.0000

            TOTAL IN =   241821283.0357              TOTAL IN =     1258165.8756

          OUT:                                     OUT:
          ----                                     ----
             STORAGE =       28579.0951               STORAGE =         314.0560
       CONSTANT HEAD =           0.0000         CONSTANT HEAD =           0.0000
               WELLS =    14867568.2500                 WELLS =       82500.7500
            RECHARGE =           0.0000              RECHARGE =           0.0000
      STREAM LEAKAGE =   226925138.5346        STREAM LEAKAGE =     1175351.0822

           TOTAL OUT =   241821285.8796             TOTAL OUT =     1258165.8882

            IN - OUT =          -2.8439              IN - OUT =      -1.2654E-02

 PERCENT DISCREPANCY =          -0.00     PERCENT DISCREPANCY =          -0.00






         TIME SUMMARY AT END OF TIME STEP    1 IN STRESS PERIOD    2
                    SECONDS     MINUTES      HOURS       DAYS        YEARS
                    -----------------------------------------------------------
   TIME STEP LENGTH 7.86240E+06 1.31040E+05  2184.0      91.000     0.24914    
 STRESS PERIOD TIME 7.86240E+06 1.31040E+05  2184.0      91.000     0.24914    
         TOTAL TIME 1.58112E+07 2.63520E+05  4392.0      183.00     0.50103    
1
1
                            STRESS PERIOD NO.    3, LENGTH =   91.00000    
                            -----------------------------------------------

                              NUMBER OF TIME STEPS =     1

                               MULTIPLIER FOR DELT =     1.500

                            INITIAL TIME STEP SIZE =   91.00000    

 WELL NO.  LAYER   ROW   COL   STRESS RATE         
 --------------------------------------------------
      1      1      2     21     -0.4767E+05
      2      1     23     19     -0.3233E+05

      2 WELLS

                 RECHARGE =   0.00000    

 REUSING STREAM SEGMENT DATA FROM LAST STRESS PERIOD
 
 SOLVING FOR HEAD 


     5 CALLS TO PCG ROUTINE FOR TIME STEP   1 IN STRESS PERIOD    3
    20 TOTAL ITERATIONS

 OUTPUT CONTROL FOR STRESS PERIOD    3   TIME STEP    1
    SAVE BUDGET
    SAVE HEAD FOR ALL LAYERS
    PRINT HEAD FOR ALL LAYERS
 UBDSV2 SAVING "STREAMFLOW OUT  " ON UNIT  50 AT TIME STEP  1, STRESS PERIOD   3



 STREAM LISTING     PERIOD      3   STEP        1

 LAYER ROW COL. STREAM  RCH.  FLOW INTO     FLOW TO   FLOW OUT OF   OVRLND.     DIRECT     STREAM       STREAM     STREAM     STREAM   STREAMBED  STREAMBED
                SEG.NO.  NO.  STRM. RCH.    AQUIFER    STRM. RCH.    RUNOFF     PRECIP       ET          HEAD       DEPTH      WIDTH   CONDCTNC.   GRADIENT

   1   13    1     1     1    1.0000E+05 -2.7434E+04   1.2743E+05  0.000E+00  0.000E+00  0.000E+00  4.84176E+01  1.562E-01  2.000E+01  2.000E+04 -1.372E+00
   1   13    2     1     2    1.2743E+05 -3.7119E+04   1.6455E+05  0.000E+00  0.000E+00  0.000E+00  4.79656E+01  1.815E-01  2.000E+01  2.000E+04 -1.856E+00
   1   14    3     1     3    1.6455E+05 -3.2552E+04   1.9710E+05  0.000E+00  0.000E+00  0.000E+00  4.75132E+01  2.064E-01  2.000E+01  2.000E+04 -1.628E+00
   1   15    4     1     4    1.9710E+05 -3.1767E+04   2.2887E+05  0.000E+00  0.000E+00  0.000E+00  4.70572E+01  2.277E-01  2.000E+01  2.000E+04 -1.588E+00
   1   16    5     1     5    2.2887E+05 -3.3291E+04   2.6216E+05  0.000E+00  0.000E+00  0.000E+00  4.66002E+01  2.480E-01  2.000E+01  2.000E+04 -1.665E+00
   1   16    6     1     6    2.6216E+05 -2.9134E+04   2.9130E+05  0.000E+00  0.000E+00  0.000E+00  4.61414E+01  2.664E-01  2.000E+01  2.000E+04 -1.457E+00
   1   16    7     1     7    2.9130E+05 -2.8984E+04   3.2028E+05  0.000E+00  0.000E+00  0.000E+00  4.56806E+01  2.829E-01  2.000E+01  2.000E+04 -1.449E+00
   1   16    8     1     8    3.2028E+05 -2.9177E+04   3.4946E+05  0.000E+00  0.000E+00  0.000E+00  4.52192E+01  2.987E-01  2.000E+01  2.000E+04 -1.459E+00
   1   16    9     1     9    3.4946E+05 -2.9260E+04   3.7872E+05  0.000E+00  0.000E+00  0.000E+00  4.47573E+01  3.141E-01  2.000E+01  2.000E+04 -1.463E+00
   1   16   10     1    10    3.7872E+05 -2.9278E+04   4.0799E+05  0.000E+00  0.000E+00  0.000E+00  4.42949E+01  3.290E-01  2.000E+01  2.000E+04 -1.464E+00
   1   16   11     1    11    4.0799E+05 -2.9846E+04   4.3784E+05  0.000E+00  0.000E+00  0.000E+00  4.38323E+01  3.436E-01  2.000E+01  2.000E+04 -1.492E+00
   1   16   12     1    12    4.3784E+05 -3.5199E+04   4.7304E+05  0.000E+00  0.000E+00  0.000E+00  4.33706E+01  3.592E-01  2.000E+01  2.000E+04 -1.760E+00
   1   15   13     1    13    4.7304E+05 -3.3926E+04   5.0697E+05  0.000E+00  0.000E+00  0.000E+00  4.29094E+01  3.754E-01  2.000E+01  2.000E+04 -1.696E+00
   1   14   14     1    14    5.0697E+05 -3.4521E+04   5.4149E+05  0.000E+00  0.000E+00  0.000E+00  4.24477E+01  3.909E-01  2.000E+01  2.000E+04 -1.726E+00
   1   13   15     1    15    5.4149E+05 -3.6763E+04   5.7825E+05  0.000E+00  0.000E+00  0.000E+00  4.19862E+01  4.066E-01  2.000E+01  2.000E+04 -1.838E+00
   1   12   16     1    16    5.7825E+05 -4.2805E+04   6.2105E+05  0.000E+00  0.000E+00  0.000E+00  4.15260E+01  4.237E-01  2.000E+01  2.000E+04 -2.140E+00
   1   12   17     1    17    6.2105E+05 -3.3399E+04   6.5445E+05  0.000E+00  0.000E+00  0.000E+00  4.10647E+01  4.397E-01  2.000E+01  2.000E+04 -1.670E+00
   1   12   18     1    18    6.5445E+05 -3.1756E+04   6.8621E+05  0.000E+00  0.000E+00  0.000E+00  4.06007E+01  4.530E-01  2.000E+01  2.000E+04 -1.588E+00
   1   12   19     1    19    6.8621E+05 -3.5734E+04   7.2194E+05  0.000E+00  0.000E+00  0.000E+00  4.01370E+01  4.665E-01  2.000E+01  2.000E+04 -1.787E+00
   1   13   20     1    20    7.2194E+05 -2.6084E+04   7.4803E+05  0.000E+00  0.000E+00  0.000E+00  3.96719E+01  4.787E-01  2.000E+01  2.000E+04 -1.304E+00
   1   14   21     1    21    7.4803E+05 -1.9036E+04   7.6706E+05  0.000E+00  0.000E+00  0.000E+00  3.92034E+01  4.875E-01  2.000E+01  2.000E+04 -9.518E-01
   1   14   22     1    22    7.6706E+05 -1.5146E+03   7.6858E+05  0.000E+00  0.000E+00  0.000E+00  3.87301E+01  4.915E-01  2.000E+01  2.000E+04 -7.573E-02
   1    9   30     2     1    5.0000E+04 -2.6194E+04   7.6194E+04  0.000E+00  0.000E+00  0.000E+00  4.02582E+01  1.332E-01  2.000E+01  2.000E+04 -1.310E+00
   1    9   29     2     2    7.6194E+04 -2.8639E+04   1.0483E+05  0.000E+00  0.000E+00  0.000E+00  4.00404E+01  1.654E-01  2.000E+01  2.000E+04 -1.432E+00
   1    9   28     2     3    1.0483E+05 -3.2861E+04   1.3769E+05  0.000E+00  0.000E+00  0.000E+00  3.98222E+01  1.972E-01  2.000E+01  2.000E+04 -1.643E+00
   1    9   27     2     4    1.3769E+05 -4.6764E+04   1.8446E+05  0.000E+00  0.000E+00  0.000E+00  3.96088E+01  2.338E-01  2.000E+01  2.000E+04 -2.338E+00
   1   10   26     2     5    1.8446E+05 -3.2763E+04   2.1722E+05  0.000E+00  0.000E+00  0.000E+00  3.93919E+01  2.669E-01  2.000E+01  2.000E+04 -1.638E+00
   1   11   25     2     6    2.1722E+05 -2.4478E+04   2.4170E+05  0.000E+00  0.000E+00  0.000E+00  3.91641E+01  2.891E-01  2.000E+01  2.000E+04 -1.224E+00
   1   12   24     2     7    2.4170E+05 -1.8008E+04   2.5971E+05  0.000E+00  0.000E+00  0.000E+00  3.89298E+01  3.048E-01  2.000E+01  2.000E+04 -9.004E-01
   1   13   23     2     8    2.5971E+05 -1.2773E+04   2.7248E+05  0.000E+00  0.000E+00  0.000E+00  3.86909E+01  3.159E-01  2.000E+01  2.000E+04 -6.387E-01
   1   14   22     2     9    2.7248E+05 -7.1568E+03   2.7964E+05  0.000E+00  0.000E+00  0.000E+00  3.84480E+01  3.230E-01  2.000E+01  2.000E+04 -3.578E-01
   1   14   22     3     1    1.0482E+06 -1.5132E+04   1.0633E+06  0.000E+00  0.000E+00  0.000E+00  3.80492E+01  4.937E-01  2.000E+01  2.000E+04 -7.566E-01
   1   15   23     3     2    1.0633E+06 -2.3048E+04   1.0864E+06  0.000E+00  0.000E+00  0.000E+00  3.71657E+01  4.990E-01  2.000E+01  2.000E+04 -1.152E+00
   1   15   24     3     3    1.0864E+06 -1.9278E+04   1.1057E+06  0.000E+00  0.000E+00  0.000E+00  3.62827E+01  5.049E-01  2.000E+01  2.000E+04 -9.639E-01
   1   15   25     3     4    1.1057E+06 -1.8952E+04   1.1246E+06  0.000E+00  0.000E+00  0.000E+00  3.53990E+01  5.102E-01  2.000E+01  2.000E+04 -9.476E-01
   1   15   26     3     5    1.1246E+06 -2.1728E+04   1.1464E+06  0.000E+00  0.000E+00  0.000E+00  3.45157E+01  5.157E-01  2.000E+01  2.000E+04 -1.086E+00
   1   16   27     3     6    1.1464E+06 -2.8801E+04   1.1752E+06  0.000E+00  0.000E+00  0.000E+00  3.36337E+01  5.226E-01  2.000E+01  2.000E+04 -1.440E+00
   1   17   28     3     7    1.1752E+06 -3.5856E+04   1.2110E+06  0.000E+00  0.000E+00  0.000E+00  3.27535E+01  5.313E-01  2.000E+01  2.000E+04 -1.793E+00
   1   18   29     3     8    1.2110E+06 -4.6880E+04   1.2579E+06  0.000E+00  0.000E+00  0.000E+00  3.18756E+01  5.422E-01  2.000E+01  2.000E+04 -2.344E+00
   1   18   30     3     9    1.2579E+06 -4.3419E+04   1.3013E+06  0.000E+00  0.000E+00  0.000E+00  3.09985E+01  5.540E-01  2.000E+01  2.000E+04 -2.171E+00



1
              HEAD IN LAYER   1 AT END OF TIME STEP   1 IN STRESS PERIOD    3
  ---------------------------------------------------------------------------

          1      2      3      4      5      6      7      8      9     10
         11     12     13     14     15     16     17     18     19     20
         21     22     23     24     25     26     27     28     29     30
 .........................................................................
   1  ****** ****** ****** ****** ****** ****** ****** ****** ****** ******
      ****** ****** ****** ****** ****** ****** ****** ****** ****** ******
      ****** ****** ****** ****** ****** ****** ****** ****** ****** ******
   2  ****** ****** ****** ****** ****** ****** ****** ****** ****** ******
      ****** ****** ****** ****** ****** ****** ****** ****** ****** ******
      ****** ****** ****** ****** ****** ****** ****** ****** ****** ******
   3  ****** ****** ****** ****** ****** ****** ****** ****** ****** ******
      ****** ****** ****** ****** ****** ****** ****** ****** ****** ******
      ****** ****** ****** ****** ****** ****** ****** ****** ****** ******
   4  ****** ****** ****** ****** ****** ****** ****** ****** ****** ******
      ****** ****** ****** ****** ****** ****** ****** ****** ****** ******
      ****** ****** ****** ****** ****** ****** ****** ****** ****** ******
   5  ****** ****** ****** ****** ****** ****** ****** ****** ****** ******
      ****** ****** ****** ****** ****** ****** ****** ****** ****** ******
      ****** ****** ****** ****** ****** ****** ****** ****** ****** ******
   6  ****** ****** ****** ****** ****** ****** ****** ****** ****** ******
      ****** ****** ****** ****** ****** ****** ****** ****** ****** ******
      ****** ****** ****** ****** ****** ****** ****** ****** ****** ******
   7  ****** ****** ****** ****** ****** ****** ****** ****** ****** ******
      ****** ****** ****** ****** ****** ****** ****** ****** ****** ******
      ****** ****** ****** ****** ****** ****** ****** ****** ****** ******
   8  ****** ****** ****** ****** ****** ****** ****** ****** ****** ******
      ****** ****** ****** ****** ****** ****** ****** ****** ****** ******
      ****** ****** ****** ****** ****** ****** ****** ****** ****** ******
   9  ****** ****** ****** ****** ****** ****** ****** ****** ****** ******
      ****** ****** ****** ****** ****** ****** ****** ****** ****** ******
      ****** ****** ****** ****** ****** ****** ****** ****** ****** ******
  10  ****** ****** ****** ****** ****** ****** ****** ****** ****** ******
      ****** ****** ****** ****** ****** ****** ****** ****** ****** ******
      ****** ****** ****** ****** ****** ****** ****** ****** ****** ******
  11  ****** ****** ****** ****** ****** ****** ****** ****** ****** ******
      ****** ****** ****** ****** ****** ****** ****** ****** ****** ******
      ****** ****** ****** ****** ****** ****** ****** ****** ****** ******
  12  ****** ****** ****** ****** ****** ****** ****** ****** ****** ******
      ****** ****** ****** ****** ****** ****** ****** ****** ****** ******
      ****** ****** ****** ****** ****** ****** ****** ****** ****** ******
  13  ****** ****** ****** ****** ****** ****** ****** ****** ****** ******
      ****** ****** ****** ****** ****** ****** ****** ****** ****** ******
      ****** ****** ****** ****** ****** ****** ****** ****** ****** ******
  14  ****** ****** ****** ****** ****** ****** ****** ****** ****** ******
      ****** ****** ****** ****** ****** ****** ****** ****** ****** ******
      ****** ****** ****** ****** ****** ****** ****** ****** ****** ******
  15  ****** ****** ****** ****** ****** ****** ****** ****** ****** ******
      ****** ****** ****** ****** ****** ****** ****** ****** ****** ******
      ****** ****** ****** ****** ****** ****** ****** ****** ****** ******
  16  ****** ****** ****** ****** ****** ****** ****** ****** ****** ******
      ****** ****** ****** ****** ****** ****** ****** ****** ****** ******
      ****** ****** ****** ****** ****** ****** ****** ****** ****** ******
  17  ****** ****** ****** ****** ****** ****** ****** ****** ****** ******
      ****** ****** ****** ****** ****** ****** ****** ****** ****** ******
      ****** ****** ****** ****** ****** ****** ****** ****** ****** ******
  18  ****** ****** ****** ****** ****** ****** ****** ****** ****** ******
      ****** ****** ****** ****** ****** ****** ****** ****** ****** ******
      ****** ****** ****** ****** ****** ****** ****** ****** ****** ******
  19  ****** ****** ****** ****** ****** ****** ****** ****** ****** ******
      ****** ****** ****** ****** ****** ****** ****** ****** ****** ******
      ****** ****** ****** ****** ****** ****** ****** ****** ****** ******
  20  ****** ****** ****** ****** ****** ****** ****** ****** ****** ******
      ****** ****** ****** ****** ****** ****** ****** ****** ****** ******
      ****** ****** ****** ****** ****** ****** ****** ****** ****** ******
  21  ****** ****** ****** ****** ****** ****** ****** ****** ****** ******
      ****** ****** ****** ****** ****** ****** ****** ****** ****** ******
      ****** ****** ****** ****** ****** ****** ****** ****** ****** ******
  22  ****** ****** ****** ****** ****** ****** ****** ****** ****** ******
      ****** ****** ****** ****** ****** ****** ****** ****** ****** ******
      ****** ****** ****** ****** ****** ****** ****** ****** ****** ******
  23  ****** ****** ****** ****** ****** ****** ****** ****** ****** ******
      ****** ****** ****** ****** ****** ****** ****** ****** ****** ******
      ****** ****** ****** ****** ****** ****** ****** ****** ****** ******
  24  ****** ****** ****** ****** ****** ****** ****** ****** ****** ******
      ****** ****** ****** ****** ****** ****** ****** ****** ****** ******
      ****** ****** ****** ****** ****** ****** ****** ****** ****** ******
  25  ****** ****** ****** ****** ****** ****** ****** ****** ****** ******
      ****** ****** ****** ****** ****** ****** ****** ****** ****** ******
      ****** ****** ****** ****** ****** ****** ****** ****** ****** ******

 HEAD WILL BE SAVED ON UNIT   51 AT END OF TIME STEP    1, STRESS PERIOD    3
1
  VOLUMETRIC BUDGET FOR ENTIRE MODEL AT END OF TIME STEP    1, STRESS PERIOD   3
  ------------------------------------------------------------------------------

     CUMULATIVE VOLUMES      L**3       RATES FOR THIS TIME STEP      L**3/T
     ------------------                 ------------------------

           IN:                                      IN:
           ---                                      ---
             STORAGE =    20167414.3473               STORAGE =        3651.4720
       CONSTANT HEAD =   327538951.4692         CONSTANT HEAD =     1229072.5146
               WELLS =           0.0000                 WELLS =           0.0000
            RECHARGE =     6292800.0000              RECHARGE =           0.0000
      STREAM LEAKAGE =           0.0000        STREAM LEAKAGE =           0.0000

            TOTAL IN =   353999165.8164              TOTAL IN =     1232723.9866

          OUT:                                     OUT:
          ----                                     ----
             STORAGE =      157374.2465               STORAGE =        1415.3313
       CONSTANT HEAD =           0.0000         CONSTANT HEAD =           0.0000
               WELLS =    22147568.2500                 WELLS =       80000.0000
            RECHARGE =           0.0000              RECHARGE =           0.0000
      STREAM LEAKAGE =   331694222.7795        STREAM LEAKAGE =     1151308.6181

           TOTAL OUT =   353999165.2759             TOTAL OUT =     1232723.9494

            IN - OUT =           0.5405              IN - OUT =       3.7191E-02

 PERCENT DISCREPANCY =           0.00     PERCENT DISCREPANCY =           0.00






         TIME SUMMARY AT END OF TIME STEP    1 IN STRESS PERIOD    3
                    SECONDS     MINUTES      HOURS       DAYS        YEARS
                    -----------------------------------------------------------
   TIME STEP LENGTH 7.86240E+06 1.31040E+05  2184.0      91.000     0.24914    
 STRESS PERIOD TIME 7.86240E+06 1.31040E+05  2184.0      91.000     0.24914    
         TOTAL TIME 2.36736E+07 3.94560E+05  6576.0      274.00     0.75017    
1
1
                            STRESS PERIOD NO.    4, LENGTH =   91.00000    
                            -----------------------------------------------

                              NUMBER OF TIME STEPS =     1

                               MULTIPLIER FOR DELT =     1.500

                            INITIAL TIME STEP SIZE =   91.00000    

 WELL NO.  LAYER   ROW   COL   STRESS RATE         
 --------------------------------------------------
      1      1      2     21     -0.4767E+05
      2      1     23     19       0.000    
      3      1     20      2     -0.3233E+05

      3 WELLS

                 RECHARGE =  1.000000E-03

 REUSING STREAM SEGMENT DATA FROM LAST STRESS PERIOD
 
 SOLVING FOR HEAD 


     6 CALLS TO PCG ROUTINE FOR TIME STEP   1 IN STRESS PERIOD    4
    23 TOTAL ITERATIONS

 OUTPUT CONTROL FOR STRESS PERIOD    4   TIME STEP    1
    SAVE BUDGET
    SAVE HEAD FOR ALL LAYERS
    PRINT HEAD FOR ALL LAYERS
 UBDSV2 SAVING "STREAMFLOW OUT  " ON UNIT  50 AT TIME STEP  1, STRESS PERIOD   4



 STREAM LISTING     PERIOD      4   STEP        1

 LAYER ROW COL. STREAM  RCH.  FLOW INTO     FLOW TO   FLOW OUT OF   OVRLND.     DIRECT     STREAM       STREAM     STREAM     STREAM   STREAMBED  STREAMBED
                SEG.NO.  NO.  STRM. RCH.    AQUIFER    STRM. RCH.    RUNOFF     PRECIP       ET          HEAD       DEPTH      WIDTH   CONDCTNC.   GRADIENT

   1   13    1     1     1    1.0000E+05 -2.6746E+04   1.2675E+05  0.000E+00  0.000E+00  0.000E+00  4.84173E+01  1.560E-01  2.000E+01  2.000E+04 -1.337E+00
   1   13    2     1     2    1.2675E+05 -3.6602E+04   1.6335E+05  0.000E+00  0.000E+00  0.000E+00  4.79649E+01  1.808E-01  2.000E+01  2.000E+04 -1.830E+00
   1   14    3     1     3    1.6335E+05 -3.1227E+04   1.9457E+05  0.000E+00  0.000E+00  0.000E+00  4.75119E+01  2.051E-01  2.000E+01  2.000E+04 -1.561E+00
   1   15    4     1     4    1.9457E+05 -2.9850E+04   2.2442E+05  0.000E+00  0.000E+00  0.000E+00  4.70550E+01  2.254E-01  2.000E+01  2.000E+04 -1.493E+00
   1   16    5     1     5    2.2442E+05 -3.0945E+04   2.5537E+05  0.000E+00  0.000E+00  0.000E+00  4.65968E+01  2.445E-01  2.000E+01  2.000E+04 -1.547E+00
   1   16    6     1     6    2.5537E+05 -2.8009E+04   2.8338E+05  0.000E+00  0.000E+00  0.000E+00  4.61371E+01  2.621E-01  2.000E+01  2.000E+04 -1.400E+00
   1   16    7     1     7    2.8338E+05 -2.8386E+04   3.1177E+05  0.000E+00  0.000E+00  0.000E+00  4.56760E+01  2.783E-01  2.000E+01  2.000E+04 -1.419E+00
   1   16    8     1     8    3.1177E+05 -2.8904E+04   3.4067E+05  0.000E+00  0.000E+00  0.000E+00  4.52145E+01  2.941E-01  2.000E+01  2.000E+04 -1.445E+00
   1   16    9     1     9    3.4067E+05 -2.9214E+04   3.6988E+05  0.000E+00  0.000E+00  0.000E+00  4.47527E+01  3.095E-01  2.000E+01  2.000E+04 -1.461E+00
   1   16   10     1    10    3.6988E+05 -2.9407E+04   3.9929E+05  0.000E+00  0.000E+00  0.000E+00  4.42905E+01  3.246E-01  2.000E+01  2.000E+04 -1.470E+00
   1   16   11     1    11    3.9929E+05 -3.0134E+04   4.2942E+05  0.000E+00  0.000E+00  0.000E+00  4.38281E+01  3.394E-01  2.000E+01  2.000E+04 -1.507E+00
   1   16   12     1    12    4.2942E+05 -3.5747E+04   4.6517E+05  0.000E+00  0.000E+00  0.000E+00  4.33667E+01  3.554E-01  2.000E+01  2.000E+04 -1.787E+00
   1   15   13     1    13    4.6517E+05 -3.4590E+04   4.9976E+05  0.000E+00  0.000E+00  0.000E+00  4.29060E+01  3.719E-01  2.000E+01  2.000E+04 -1.730E+00
   1   14   14     1    14    4.9976E+05 -3.5205E+04   5.3497E+05  0.000E+00  0.000E+00  0.000E+00  4.24446E+01  3.878E-01  2.000E+01  2.000E+04 -1.760E+00
   1   13   15     1    15    5.3497E+05 -3.7402E+04   5.7237E+05  0.000E+00  0.000E+00  0.000E+00  4.19834E+01  4.039E-01  2.000E+01  2.000E+04 -1.870E+00
   1   12   16     1    16    5.7237E+05 -4.3345E+04   6.1571E+05  0.000E+00  0.000E+00  0.000E+00  4.15236E+01  4.213E-01  2.000E+01  2.000E+04 -2.167E+00
   1   12   17     1    17    6.1571E+05 -3.3882E+04   6.4960E+05  0.000E+00  0.000E+00  0.000E+00  4.10625E+01  4.375E-01  2.000E+01  2.000E+04 -1.694E+00
   1   12   18     1    18    6.4960E+05 -3.2234E+04   6.8183E+05  0.000E+00  0.000E+00  0.000E+00  4.05989E+01  4.511E-01  2.000E+01  2.000E+04 -1.612E+00
   1   12   19     1    19    6.8183E+05 -3.6238E+04   7.1807E+05  0.000E+00  0.000E+00  0.000E+00  4.01354E+01  4.649E-01  2.000E+01  2.000E+04 -1.812E+00
   1   13   20     1    20    7.1807E+05 -2.6695E+04   7.4476E+05  0.000E+00  0.000E+00  0.000E+00  3.96705E+01  4.773E-01  2.000E+01  2.000E+04 -1.335E+00
   1   14   21     1    21    7.4476E+05 -1.9725E+04   7.6449E+05  0.000E+00  0.000E+00  0.000E+00  3.92023E+01  4.864E-01  2.000E+01  2.000E+04 -9.863E-01
   1   14   22     1    22    7.6449E+05 -1.7717E+03   7.6626E+05  0.000E+00  0.000E+00  0.000E+00  3.87291E+01  4.905E-01  2.000E+01  2.000E+04 -8.859E-02
   1    9   30     2     1    5.0000E+04 -2.6476E+04   7.6476E+04  0.000E+00  0.000E+00  0.000E+00  4.02584E+01  1.334E-01  2.000E+01  2.000E+04 -1.324E+00
   1    9   29     2     2    7.6476E+04 -2.8921E+04   1.0540E+05  0.000E+00  0.000E+00  0.000E+00  4.00409E+01  1.659E-01  2.000E+01  2.000E+04 -1.446E+00
   1    9   28     2     3    1.0540E+05 -3.3151E+04   1.3855E+05  0.000E+00  0.000E+00  0.000E+00  3.98228E+01  1.978E-01  2.000E+01  2.000E+04 -1.658E+00
   1    9   27     2     4    1.3855E+05 -4.7115E+04   1.8566E+05  0.000E+00  0.000E+00  0.000E+00  3.96097E+01  2.347E-01  2.000E+01  2.000E+04 -2.356E+00
   1   10   26     2     5    1.8566E+05 -3.3132E+04   2.1879E+05  0.000E+00  0.000E+00  0.000E+00  3.93930E+01  2.680E-01  2.000E+01  2.000E+04 -1.657E+00
   1   11   25     2     6    2.1879E+05 -2.4838E+04   2.4363E+05  0.000E+00  0.000E+00  0.000E+00  3.91654E+01  2.904E-01  2.000E+01  2.000E+04 -1.242E+00
   1   12   24     2     7    2.4363E+05 -1.8340E+04   2.6197E+05  0.000E+00  0.000E+00  0.000E+00  3.89314E+01  3.064E-01  2.000E+01  2.000E+04 -9.170E-01
   1   13   23     2     8    2.6197E+05 -1.3070E+04   2.7504E+05  0.000E+00  0.000E+00  0.000E+00  3.86926E+01  3.176E-01  2.000E+01  2.000E+04 -6.535E-01
   1   14   22     2     9    2.7504E+05 -7.3578E+03   2.8240E+05  0.000E+00  0.000E+00  0.000E+00  3.84498E+01  3.248E-01  2.000E+01  2.000E+04 -3.679E-01
   1   14   22     3     1    1.0487E+06 -1.5367E+04   1.0640E+06  0.000E+00  0.000E+00  0.000E+00  3.80494E+01  4.938E-01  2.000E+01  2.000E+04 -7.683E-01
   1   15   23     3     2    1.0640E+06 -2.3755E+04   1.0878E+06  0.000E+00  0.000E+00  0.000E+00  3.71660E+01  4.993E-01  2.000E+01  2.000E+04 -1.188E+00
   1   15   24     3     3    1.0878E+06 -1.9779E+04   1.1076E+06  0.000E+00  0.000E+00  0.000E+00  3.62831E+01  5.053E-01  2.000E+01  2.000E+04 -9.890E-01
   1   15   25     3     4    1.1076E+06 -1.9377E+04   1.1269E+06  0.000E+00  0.000E+00  0.000E+00  3.53996E+01  5.107E-01  2.000E+01  2.000E+04 -9.688E-01
   1   15   26     3     5    1.1269E+06 -2.2141E+04   1.1491E+06  0.000E+00  0.000E+00  0.000E+00  3.45164E+01  5.164E-01  2.000E+01  2.000E+04 -1.107E+00
   1   16   27     3     6    1.1491E+06 -2.9336E+04   1.1784E+06  0.000E+00  0.000E+00  0.000E+00  3.36345E+01  5.234E-01  2.000E+01  2.000E+04 -1.467E+00
   1   17   28     3     7    1.1784E+06 -3.6403E+04   1.2148E+06  0.000E+00  0.000E+00  0.000E+00  3.27544E+01  5.322E-01  2.000E+01  2.000E+04 -1.820E+00
   1   18   29     3     8    1.2148E+06 -4.7395E+04   1.2622E+06  0.000E+00  0.000E+00  0.000E+00  3.18766E+01  5.433E-01  2.000E+01  2.000E+04 -2.370E+00
   1   18   30     3     9    1.2622E+06 -4.3806E+04   1.3060E+06  0.000E+00  0.000E+00  0.000E+00  3.09997E+01  5.552E-01  2.000E+01  2.000E+04 -2.190E+00



1
              HEAD IN LAYER   1 AT END OF TIME STEP   1 IN STRESS PERIOD    4
  ---------------------------------------------------------------------------

          1      2      3      4      5      6      7      8      9     10
         11     12     13     14     15     16     17     18     19     20
         21     22     23     24     25     26     27     28     29     30
 .........................................................................
   1  ****** ****** ****** ****** ****** ****** ****** ****** ****** ******
      ****** ****** ****** ****** ****** ****** ****** ****** ****** ******
      ****** ****** ****** ****** ****** ****** ****** ****** ****** ******
   2  ****** ****** ****** ****** ****** ****** ****** ****** ****** ******
      ****** ****** ****** ****** ****** ****** ****** ****** ****** ******
      ****** ****** ****** ****** ****** ****** ****** ****** ****** ******
   3  ****** ****** ****** ****** ****** ****** ****** ****** ****** ******
      ****** ****** ****** ****** ****** ****** ****** ****** ****** ******
      ****** ****** ****** ****** ****** ****** ****** ****** ****** ******
   4  ****** ****** ****** ****** ****** ****** ****** ****** ****** ******
      ****** ****** ****** ****** ****** ****** ****** ****** ****** ******
      ****** ****** ****** ****** ****** ****** ****** ****** ****** ******
   5  ****** ****** ****** ****** ****** ****** ****** ****** ****** ******
      ****** ****** ****** ****** ****** ****** ****** ****** ****** ******
      ****** ****** ****** ****** ****** ****** ****** ****** ****** ******
   6  ****** ****** ****** ****** ****** ****** ****** ****** ****** ******
      ****** ****** ****** ****** ****** ****** ****** ****** ****** ******
      ****** ****** ****** ****** ****** ****** ****** ****** ****** ******
   7  ****** ****** ****** ****** ****** ****** ****** ****** ****** ******
      ****** ****** ****** ****** ****** ****** ****** ****** ****** ******
      ****** ****** ****** ****** ****** ****** ****** ****** ****** ******
   8  ****** ****** ****** ****** ****** ****** ****** ****** ****** ******
      ****** ****** ****** ****** ****** ****** ****** ****** ****** ******
      ****** ****** ****** ****** ****** ****** ****** ****** ****** ******
   9  ****** ****** ****** ****** ****** ****** ****** ****** ****** ******
      ****** ****** ****** ****** ****** ****** ****** ****** ****** ******
      ****** ****** ****** ****** ****** ****** ****** ****** ****** ******
  10  ****** ****** ****** ****** ****** ****** ****** ****** ****** ******
      ****** ****** ****** ****** ****** ****** ****** ****** ****** ******
      ****** ****** ****** ****** ****** ****** ****** ****** ****** ******
  11  ****** ****** ****** ****** ****** ****** ****** ****** ****** ******
      ****** ****** ****** ****** ****** ****** ****** ****** ****** ******
      ****** ****** ****** ****** ****** ****** ****** ****** ****** ******
  12  ****** ****** ****** ****** ****** ****** ****** ****** ****** ******
      ****** ****** ****** ****** ****** ****** ****** ****** ****** ******
      ****** ****** ****** ****** ****** ****** ****** ****** ****** ******
  13  ****** ****** ****** ****** ****** ****** ****** ****** ****** ******
      ****** ****** ****** ****** ****** ****** ****** ****** ****** ******
      ****** ****** ****** ****** ****** ****** ****** ****** ****** ******
  14  ****** ****** ****** ****** ****** ****** ****** ****** ****** ******
      ****** ****** ****** ****** ****** ****** ****** ****** ****** ******
      ****** ****** ****** ****** ****** ****** ****** ****** ****** ******
  15  ****** ****** ****** ****** ****** ****** ****** ****** ****** ******
      ****** ****** ****** ****** ****** ****** ****** ****** ****** ******
      ****** ****** ****** ****** ****** ****** ****** ****** ****** ******
  16  ****** ****** ****** ****** ****** ****** ****** ****** ****** ******
      ****** ****** ****** ****** ****** ****** ****** ****** ****** ******
      ****** ****** ****** ****** ****** ****** ****** ****** ****** ******
  17  ****** ****** ****** ****** ****** ****** ****** ****** ****** ******
      ****** ****** ****** ****** ****** ****** ****** ****** ****** ******
      ****** ****** ****** ****** ****** ****** ****** ****** ****** ******
  18  ****** ****** ****** ****** ****** ****** ****** ****** ****** ******
      ****** ****** ****** ****** ****** ****** ****** ****** ****** ******
      ****** ****** ****** ****** ****** ****** ****** ****** ****** ******
  19  ****** ****** ****** ****** ****** ****** ****** ****** ****** ******
      ****** ****** ****** ****** ****** ****** ****** ****** ****** ******
      ****** ****** ****** ****** ****** ****** ****** ****** ****** ******
  20  ****** ****** ****** ****** ****** ****** ****** ****** ****** ******
      ****** ****** ****** ****** ****** ****** ****** ****** ****** ******
      ****** ****** ****** ****** ****** ****** ****** ****** ****** ******
  21  ****** ****** ****** ****** ****** ****** ****** ****** ****** ******
      ****** ****** ****** ****** ****** ****** ****** ****** ****** ******
      ****** ****** ****** ****** ****** ****** ****** ****** ****** ******
  22  ****** ****** ****** ****** ****** ****** ****** ****** ****** ******
      ****** ****** ****** ****** ****** ****** ****** ****** ****** ******
      ****** ****** ****** ****** ****** ****** ****** ****** ****** ******
  23  ****** ****** ****** ****** ****** ****** ****** ****** ****** ******
      ****** ****** ****** ****** ****** ****** ****** ****** ****** ******
      ****** ****** ****** ****** ****** ****** ****** ****** ****** ******
  24  ****** ****** ****** ****** ****** ****** ****** ****** ****** ******
      ****** ****** ****** ****** ****** ****** ****** ****** ****** ******
      ****** ****** ****** ****** ****** ****** ****** ****** ****** ******
  25  ****** ****** ****** ****** ****** ****** ****** ****** ****** ******
      ****** ****** ****** ****** ****** ****** ****** ****** ****** ******
      ****** ****** ****** ****** ****** ****** ****** ****** ****** ******

 HEAD WILL BE SAVED ON UNIT   51 AT END OF TIME STEP    1, STRESS PERIOD    4
1
  VOLUMETRIC BUDGET FOR ENTIRE MODEL AT END OF TIME STEP    1, STRESS PERIOD   4
  ------------------------------------------------------------------------------

     CUMULATIVE VOLUMES      L**3       RATES FOR THIS TIME STEP      L**3/T
     ------------------                 ------------------------

           IN:                                      IN:
           ---                                      ---
             STORAGE =    20302595.7909               STORAGE =        1485.5104
       CONSTANT HEAD =   437548027.5731         CONSTANT HEAD =     1208890.9462
               WELLS =           0.0000                 WELLS =           0.0000
            RECHARGE =     8804400.0000              RECHARGE =       27600.0000
      STREAM LEAKAGE =           0.0000        STREAM LEAKAGE =           0.0000

            TOTAL IN =   466655023.3640              TOTAL IN =     1237976.4566

          OUT:                                     OUT:
          ----                                     ----
             STORAGE =      335329.2640               STORAGE =        1955.5496
       CONSTANT HEAD =           0.0000         CONSTANT HEAD =           0.0000
               WELLS =    29427568.2500                 WELLS =       80000.0000
            RECHARGE =           0.0000              RECHARGE =           0.0000
      STREAM LEAKAGE =   436892128.7854        STREAM LEAKAGE =     1156020.9451

           TOTAL OUT =   466655026.2995             TOTAL OUT =     1237976.4948

            IN - OUT =          -2.9355              IN - OUT =      -3.8198E-02

 PERCENT DISCREPANCY =          -0.00     PERCENT DISCREPANCY =          -0.00






         TIME SUMMARY AT END OF TIME STEP    1 IN STRESS PERIOD    4
                    SECONDS     MINUTES      HOURS       DAYS        YEARS
                    -----------------------------------------------------------
   TIME STEP LENGTH 7.86240E+06 1.31040E+05  2184.0      91.000     0.24914    
 STRESS PERIOD TIME 7.86240E+06 1.31040E+05  2184.0      91.000     0.24914    
         TOTAL TIME 3.15360E+07 5.25600E+05  8760.0      365.00     0.99932    
1
1
                            STRESS PERIOD NO.    5, LENGTH =   92.00000    
                            -----------------------------------------------

                              NUMBER OF TIME STEPS =     1

                               MULTIPLIER FOR DELT =     1.500

                            INITIAL TIME STEP SIZE =   92.00000    

 WELL NO.  LAYER   ROW   COL   STRESS RATE         
 --------------------------------------------------
      1      1      2     21     -0.4767E+05
      2      1     23     19     -0.3233E+05

      2 WELLS

                 RECHARGE =  5.000000E-04

 REUSING STREAM SEGMENT DATA FROM LAST STRESS PERIOD
 
 SOLVING FOR HEAD 


     6 CALLS TO PCG ROUTINE FOR TIME STEP   1 IN STRESS PERIOD    5
    23 TOTAL ITERATIONS

 OUTPUT CONTROL FOR STRESS PERIOD    5   TIME STEP    1
    SAVE BUDGET
    SAVE HEAD FOR ALL LAYERS
    PRINT HEAD FOR ALL LAYERS
 UBDSV2 SAVING "STREAMFLOW OUT  " ON UNIT  50 AT TIME STEP  1, STRESS PERIOD   5



 STREAM LISTING     PERIOD      5   STEP        1

 LAYER ROW COL. STREAM  RCH.  FLOW INTO     FLOW TO   FLOW OUT OF   OVRLND.     DIRECT     STREAM       STREAM     STREAM     STREAM   STREAMBED  STREAMBED
                SEG.NO.  NO.  STRM. RCH.    AQUIFER    STRM. RCH.    RUNOFF     PRECIP       ET          HEAD       DEPTH      WIDTH   CONDCTNC.   GRADIENT

   1   13    1     1     1    1.0000E+05 -2.7620E+04   1.2762E+05  0.000E+00  0.000E+00  0.000E+00  4.84177E+01  1.563E-01  2.000E+01  2.000E+04 -1.381E+00
   1   13    2     1     2    1.2762E+05 -3.7338E+04   1.6496E+05  0.000E+00  0.000E+00  0.000E+00  4.79658E+01  1.817E-01  2.000E+01  2.000E+04 -1.867E+00
   1   14    3     1     3    1.6496E+05 -3.2776E+04   1.9773E+05  0.000E+00  0.000E+00  0.000E+00  4.75136E+01  2.067E-01  2.000E+01  2.000E+04 -1.639E+00
   1   15    4     1     4    1.9773E+05 -3.1988E+04   2.2972E+05  0.000E+00  0.000E+00  0.000E+00  4.70577E+01  2.282E-01  2.000E+01  2.000E+04 -1.599E+00
   1   16    5     1     5    2.2972E+05 -3.3496E+04   2.6322E+05  0.000E+00  0.000E+00  0.000E+00  4.66008E+01  2.485E-01  2.000E+01  2.000E+04 -1.675E+00
   1   16    6     1     6    2.6322E+05 -2.9308E+04   2.9253E+05  0.000E+00  0.000E+00  0.000E+00  4.61421E+01  2.671E-01  2.000E+01  2.000E+04 -1.465E+00
   1   16    7     1     7    2.9253E+05 -2.9153E+04   3.2168E+05  0.000E+00  0.000E+00  0.000E+00  4.56813E+01  2.836E-01  2.000E+01  2.000E+04 -1.458E+00
   1   16    8     1     8    3.2168E+05 -2.9346E+04   3.5102E+05  0.000E+00  0.000E+00  0.000E+00  4.52200E+01  2.995E-01  2.000E+01  2.000E+04 -1.467E+00
   1   16    9     1     9    3.5102E+05 -2.9427E+04   3.8045E+05  0.000E+00  0.000E+00  0.000E+00  4.47581E+01  3.149E-01  2.000E+01  2.000E+04 -1.471E+00
   1   16   10     1    10    3.8045E+05 -2.9445E+04   4.0990E+05  0.000E+00  0.000E+00  0.000E+00  4.42958E+01  3.299E-01  2.000E+01  2.000E+04 -1.472E+00
   1   16   11     1    11    4.0990E+05 -3.0014E+04   4.3991E+05  0.000E+00  0.000E+00  0.000E+00  4.38332E+01  3.446E-01  2.000E+01  2.000E+04 -1.501E+00
   1   16   12     1    12    4.3991E+05 -3.5396E+04   4.7531E+05  0.000E+00  0.000E+00  0.000E+00  4.33716E+01  3.603E-01  2.000E+01  2.000E+04 -1.770E+00
   1   15   13     1    13    4.7531E+05 -3.4139E+04   5.0944E+05  0.000E+00  0.000E+00  0.000E+00  4.29105E+01  3.764E-01  2.000E+01  2.000E+04 -1.707E+00
   1   14   14     1    14    5.0944E+05 -3.4740E+04   5.4418E+05  0.000E+00  0.000E+00  0.000E+00  4.24488E+01  3.920E-01  2.000E+01  2.000E+04 -1.737E+00
   1   13   15     1    15    5.4418E+05 -3.6979E+04   5.8116E+05  0.000E+00  0.000E+00  0.000E+00  4.19874E+01  4.078E-01  2.000E+01  2.000E+04 -1.849E+00
   1   12   16     1    16    5.8116E+05 -4.3012E+04   6.2418E+05  0.000E+00  0.000E+00  0.000E+00  4.15273E+01  4.250E-01  2.000E+01  2.000E+04 -2.151E+00
   1   12   17     1    17    6.2418E+05 -3.3568E+04   6.5774E+05  0.000E+00  0.000E+00  0.000E+00  4.10660E+01  4.410E-01  2.000E+01  2.000E+04 -1.678E+00
   1   12   18     1    18    6.5774E+05 -3.1919E+04   6.8966E+05  0.000E+00  0.000E+00  0.000E+00  4.06021E+01  4.544E-01  2.000E+01  2.000E+04 -1.596E+00
   1   12   19     1    19    6.8966E+05 -3.5913E+04   7.2558E+05  0.000E+00  0.000E+00  0.000E+00  4.01384E+01  4.680E-01  2.000E+01  2.000E+04 -1.796E+00
   1   13   20     1    20    7.2558E+05 -2.6254E+04   7.5183E+05  0.000E+00  0.000E+00  0.000E+00  3.96734E+01  4.802E-01  2.000E+01  2.000E+04 -1.313E+00
   1   14   21     1    21    7.5183E+05 -1.9183E+04   7.7101E+05  0.000E+00  0.000E+00  0.000E+00  3.92049E+01  4.890E-01  2.000E+01  2.000E+04 -9.592E-01
   1   14   22     1    22    7.7101E+05 -1.5676E+03   7.7258E+05  0.000E+00  0.000E+00  0.000E+00  3.87316E+01  4.930E-01  2.000E+01  2.000E+04 -7.838E-02
   1    9   30     2     1    5.0000E+04 -2.6331E+04   7.6331E+04  0.000E+00  0.000E+00  0.000E+00  4.02583E+01  1.333E-01  2.000E+01  2.000E+04 -1.317E+00
   1    9   29     2     2    7.6331E+04 -2.8776E+04   1.0511E+05  0.000E+00  0.000E+00  0.000E+00  4.00406E+01  1.656E-01  2.000E+01  2.000E+04 -1.439E+00
   1    9   28     2     3    1.0511E+05 -3.3002E+04   1.3811E+05  0.000E+00  0.000E+00  0.000E+00  3.98225E+01  1.975E-01  2.000E+01  2.000E+04 -1.650E+00
   1    9   27     2     4    1.3811E+05 -4.6934E+04   1.8504E+05  0.000E+00  0.000E+00  0.000E+00  3.96092E+01  2.342E-01  2.000E+01  2.000E+04 -2.347E+00
   1   10   26     2     5    1.8504E+05 -3.2940E+04   2.1798E+05  0.000E+00  0.000E+00  0.000E+00  3.93924E+01  2.674E-01  2.000E+01  2.000E+04 -1.647E+00
   1   11   25     2     6    2.1798E+05 -2.4649E+04   2.4263E+05  0.000E+00  0.000E+00  0.000E+00  3.91647E+01  2.897E-01  2.000E+01  2.000E+04 -1.232E+00
   1   12   24     2     7    2.4263E+05 -1.8161E+04   2.6079E+05  0.000E+00  0.000E+00  0.000E+00  3.89306E+01  3.056E-01  2.000E+01  2.000E+04 -9.080E-01
   1   13   23     2     8    2.6079E+05 -1.2898E+04   2.7369E+05  0.000E+00  0.000E+00  0.000E+00  3.86917E+01  3.167E-01  2.000E+01  2.000E+04 -6.449E-01
   1   14   22     2     9    2.7369E+05 -7.2229E+03   2.8091E+05  0.000E+00  0.000E+00  0.000E+00  3.84489E+01  3.239E-01  2.000E+01  2.000E+04 -3.611E-01
   1   14   22     3     1    1.0535E+06 -1.5185E+04   1.0687E+06  0.000E+00  0.000E+00  0.000E+00  3.80507E+01  4.952E-01  2.000E+01  2.000E+04 -7.593E-01
   1   15   23     3     2    1.0687E+06 -2.3186E+04   1.0919E+06  0.000E+00  0.000E+00  0.000E+00  3.71672E+01  5.005E-01  2.000E+01  2.000E+04 -1.159E+00
   1   15   24     3     3    1.0919E+06 -1.9394E+04   1.1113E+06  0.000E+00  0.000E+00  0.000E+00  3.62842E+01  5.064E-01  2.000E+01  2.000E+04 -9.697E-01
   1   15   25     3     4    1.1113E+06 -1.9068E+04   1.1303E+06  0.000E+00  0.000E+00  0.000E+00  3.54006E+01  5.117E-01  2.000E+01  2.000E+04 -9.534E-01
   1   15   26     3     5    1.1303E+06 -2.1864E+04   1.1522E+06  0.000E+00  0.000E+00  0.000E+00  3.45173E+01  5.173E-01  2.000E+01  2.000E+04 -1.093E+00
   1   16   27     3     6    1.1522E+06 -2.8964E+04   1.1812E+06  0.000E+00  0.000E+00  0.000E+00  3.36353E+01  5.242E-01  2.000E+01  2.000E+04 -1.448E+00
   1   17   28     3     7    1.1812E+06 -3.6023E+04   1.2172E+06  0.000E+00  0.000E+00  0.000E+00  3.27551E+01  5.329E-01  2.000E+01  2.000E+04 -1.801E+00
   1   18   29     3     8    1.2172E+06 -4.7037E+04   1.2642E+06  0.000E+00  0.000E+00  0.000E+00  3.18772E+01  5.439E-01  2.000E+01  2.000E+04 -2.352E+00
   1   18   30     3     9    1.2642E+06 -4.3551E+04   1.3078E+06  0.000E+00  0.000E+00  0.000E+00  3.10001E+01  5.557E-01  2.000E+01  2.000E+04 -2.178E+00



1
              HEAD IN LAYER   1 AT END OF TIME STEP   1 IN STRESS PERIOD    5
  ---------------------------------------------------------------------------

          1      2      3      4      5      6      7      8      9     10
         11     12     13     14     15     16     17     18     19     20
         21     22     23     24     25     26     27     28     29     30
 .........................................................................
   1  ****** ****** ****** ****** ****** ****** ****** ****** ****** ******
      ****** ****** ****** ****** ****** ****** ****** ****** ****** ******
      ****** ****** ****** ****** ****** ****** ****** ****** ****** ******
   2  ****** ****** ****** ****** ****** ****** ****** ****** ****** ******
      ****** ****** ****** ****** ****** ****** ****** ****** ****** ******
      ****** ****** ****** ****** ****** ****** ****** ****** ****** ******
   3  ****** ****** ****** ****** ****** ****** ****** ****** ****** ******
      ****** ****** ****** ****** ****** ****** ****** ****** ****** ******
      ****** ****** ****** ****** ****** ****** ****** ****** ****** ******
   4  ****** ****** ****** ****** ****** ****** ****** ****** ****** ******
      ****** ****** ****** ****** ****** ****** ****** ****** ****** ******
      ****** ****** ****** ****** ****** ****** ****** ****** ****** ******
   5  ****** ****** ****** ****** ****** ****** ****** ****** ****** ******
      ****** ****** ****** ****** ****** ****** ****** ****** ****** ******
      ****** ****** ****** ****** ****** ****** ****** ****** ****** ******
   6  ****** ****** ****** ****** ****** ****** ****** ****** ****** ******
      ****** ****** ****** ****** ****** ****** ****** ****** ****** ******
      ****** ****** ****** ****** ****** ****** ****** ****** ****** ******
   7  ****** ****** ****** ****** ****** ****** ****** ****** ****** ******
      ****** ****** ****** ****** ****** ****** ****** ****** ****** ******
      ****** ****** ****** ****** ****** ****** ****** ****** ****** ******
   8  ****** ****** ****** ****** ****** ****** ****** ****** ****** ******
      ****** ****** ****** ****** ****** ****** ****** ****** ****** ******
      ****** ****** ****** ****** ****** ****** ****** ****** ****** ******
   9  ****** ****** ****** ****** ****** ****** ****** ****** ****** ******
      ****** ****** ****** ****** ****** ****** ****** ****** ****** ******
      ****** ****** ****** ****** ****** ****** ****** ****** ****** ******
  10  ****** ****** ****** ****** ****** ****** ****** ****** ****** ******
      ****** ****** ****** ****** ****** ****** ****** ****** ****** ******
      ****** ****** ****** ****** ****** ****** ****** ****** ****** ******
  11  ****** ****** ****** ****** ****** ****** ****** ****** ****** ******
      ****** ****** ****** ****** ****** ****** ****** ****** ****** ******
      ****** ****** ****** ****** ****** ****** ****** ****** ****** ******
  12  ****** ****** ****** ****** ****** ****** ****** ****** ****** ******
      ****** ****** ****** ****** ****** ****** ****** ****** ****** ******
      ****** ****** ****** ****** ****** ****** ****** ****** ****** ******
  13  ****** ****** ****** ****** ****** ****** ****** ****** ****** ******
      ****** ****** ****** ****** ****** ****** ****** ****** ****** ******
      ****** ****** ****** ****** ****** ****** ****** ****** ****** ******
  14  ****** ****** ****** ****** ****** ****** ****** ****** ****** ******
      ****** ****** ****** ****** ****** ****** ****** ****** ****** ******
      ****** ****** ****** ****** ****** ****** ****** ****** ****** ******
  15  ****** ****** ****** ****** ****** ****** ****** ****** ****** ******
      ****** ****** ****** ****** ****** ****** ****** ****** ****** ******
      ****** ****** ****** ****** ****** ****** ****** ****** ****** ******
  16  ****** ****** ****** ****** ****** ****** ****** ****** ****** ******
      ****** ****** ****** ****** ****** ****** ****** ****** ****** ******
      ****** ****** ****** ****** ****** ****** ****** ****** ****** ******
  17  ****** ****** ****** ****** ****** ****** ****** ****** ****** ******
      ****** ****** ****** ****** ****** ****** ****** ****** ****** ******
      ****** ****** ****** ****** ****** ****** ****** ****** ****** ******
  18  ****** ****** ****** ****** ****** ****** ****** ****** ****** ******
      ****** ****** ****** ****** ****** ****** ****** ****** ****** ******
      ****** ****** ****** ****** ****** ****** ****** ****** ****** ******
  19  ****** ****** ****** ****** ****** ****** ****** ****** ****** ******
      ****** ****** ****** ****** ****** ****** ****** ****** ****** ******
      ****** ****** ****** ****** ****** ****** ****** ****** ****** ******
  20  ****** ****** ****** ****** ****** ****** ****** ****** ****** ******
      ****** ****** ****** ****** ****** ****** ****** ****** ****** ******
      ****** ****** ****** ****** ****** ****** ****** ****** ****** ******
  21  ****** ****** ****** ****** ****** ****** ****** ****** ****** ******
      ****** ****** ****** ****** ****** ****** ****** ****** ****** ******
      ****** ****** ****** ****** ****** ****** ****** ****** ****** ******
  22  ****** ****** ****** ****** ****** ****** ****** ****** ****** ******
      ****** ****** ****** ****** ****** ****** ****** ****** ****** ******
      ****** ****** ****** ****** ****** ****** ****** ****** ****** ******
  23  ****** ****** ****** ****** ****** ****** ****** ****** ****** ******
      ****** ****** ****** ****** ****** ****** ****** ****** ****** ******
      ****** ****** ****** ****** ****** ****** ****** ****** ****** ******
  24  ****** ****** ****** ****** ****** ****** ****** ****** ****** ******
      ****** ****** ****** ****** ****** ****** ****** ****** ****** ******
      ****** ****** ****** ****** ****** ****** ****** ****** ****** ******
  25  ****** ****** ****** ****** ****** ****** ****** ****** ****** ******
      ****** ****** ****** ****** ****** ****** ****** ****** ****** ******
      ****** ****** ****** ****** ****** ****** ****** ****** ****** ******

 HEAD WILL BE SAVED ON UNIT   51 AT END OF TIME STEP    1, STRESS PERIOD    5
1
  VOLUMETRIC BUDGET FOR ENTIRE MODEL AT END OF TIME STEP    1, STRESS PERIOD   5
  ------------------------------------------------------------------------------

     CUMULATIVE VOLUMES      L**3       RATES FOR THIS TIME STEP      L**3/T
     ------------------                 ------------------------

           IN:                                      IN:
           ---                                      ---
             STORAGE =    20437663.2646               STORAGE =        1468.1247
       CONSTANT HEAD =   550160433.6854         CONSTANT HEAD =     1224047.8925
               WELLS =           0.0000                 WELLS =           0.0000
            RECHARGE =    10074000.0000              RECHARGE =       13800.0000
      STREAM LEAKAGE =           0.0000        STREAM LEAKAGE =           0.0000

            TOTAL IN =   580672096.9500              TOTAL IN =     1239316.0172

          OUT:                                     OUT:
          ----                                     ----
             STORAGE =      477776.9529               STORAGE =        1548.3444
       CONSTANT HEAD =           0.0000         CONSTANT HEAD =           0.0000
               WELLS =    36787568.2500                 WELLS =       80000.0000
            RECHARGE =           0.0000              RECHARGE =           0.0000
      STREAM LEAKAGE =   543406750.5937        STREAM LEAKAGE =     1157767.6284

           TOTAL OUT =   580672095.7966             TOTAL OUT =     1239315.9728

            IN - OUT =           1.1533              IN - OUT =       4.4444E-02

 PERCENT DISCREPANCY =           0.00     PERCENT DISCREPANCY =           0.00






         TIME SUMMARY AT END OF TIME STEP    1 IN STRESS PERIOD    5
                    SECONDS     MINUTES      HOURS       DAYS        YEARS
                    -----------------------------------------------------------
   TIME STEP LENGTH 7.94880E+06 1.32480E+05  2208.0      92.000     0.25188    
 STRESS PERIOD TIME 7.94880E+06 1.32480E+05  2208.0      92.000     0.25188    
         TOTAL TIME 3.94848E+07 6.58080E+05  10968.      457.00      1.2512    
1
1
                            STRESS PERIOD NO.    6, LENGTH =   91.00000    
                            -----------------------------------------------

                              NUMBER OF TIME STEPS =     1

                               MULTIPLIER FOR DELT =     1.500

                            INITIAL TIME STEP SIZE =   91.00000    

 WELL NO.  LAYER   ROW   COL   STRESS RATE         
 --------------------------------------------------
      1      1      2     21     -0.4767E+05
      2      1     23     19       0.000    
      3      1     20      2     -0.3483E+05

      3 WELLS

                 RECHARGE =  2.000000E-03

 REUSING STREAM SEGMENT DATA FROM LAST STRESS PERIOD
 
 SOLVING FOR HEAD 


     6 CALLS TO PCG ROUTINE FOR TIME STEP   1 IN STRESS PERIOD    6
    22 TOTAL ITERATIONS

 OUTPUT CONTROL FOR STRESS PERIOD    6   TIME STEP    1
    SAVE BUDGET
    SAVE HEAD FOR ALL LAYERS
    PRINT HEAD FOR ALL LAYERS
 UBDSV2 SAVING "STREAMFLOW OUT  " ON UNIT  50 AT TIME STEP  1, STRESS PERIOD   6



 STREAM LISTING     PERIOD      6   STEP        1

 LAYER ROW COL. STREAM  RCH.  FLOW INTO     FLOW TO   FLOW OUT OF   OVRLND.     DIRECT     STREAM       STREAM     STREAM     STREAM   STREAMBED  STREAMBED
                SEG.NO.  NO.  STRM. RCH.    AQUIFER    STRM. RCH.    RUNOFF     PRECIP       ET          HEAD       DEPTH      WIDTH   CONDCTNC.   GRADIENT

   1   13    1     1     1    1.0000E+05 -2.7111E+04   1.2711E+05  0.000E+00  0.000E+00  0.000E+00  4.84175E+01  1.561E-01  2.000E+01  2.000E+04 -1.356E+00
   1   13    2     1     2    1.2711E+05 -3.7064E+04   1.6417E+05  0.000E+00  0.000E+00  0.000E+00  4.79653E+01  1.813E-01  2.000E+01  2.000E+04 -1.853E+00
   1   14    3     1     3    1.6417E+05 -3.1609E+04   1.9578E+05  0.000E+00  0.000E+00  0.000E+00  4.75126E+01  2.058E-01  2.000E+01  2.000E+04 -1.580E+00
   1   15    4     1     4    1.9578E+05 -3.0163E+04   2.2595E+05  0.000E+00  0.000E+00  0.000E+00  4.70559E+01  2.263E-01  2.000E+01  2.000E+04 -1.508E+00
   1   16    5     1     5    2.2595E+05 -3.1175E+04   2.5712E+05  0.000E+00  0.000E+00  0.000E+00  4.65978E+01  2.455E-01  2.000E+01  2.000E+04 -1.559E+00
   1   16    6     1     6    2.5712E+05 -2.8283E+04   2.8540E+05  0.000E+00  0.000E+00  0.000E+00  4.61382E+01  2.632E-01  2.000E+01  2.000E+04 -1.414E+00
   1   16    7     1     7    2.8540E+05 -2.8699E+04   3.1410E+05  0.000E+00  0.000E+00  0.000E+00  4.56772E+01  2.795E-01  2.000E+01  2.000E+04 -1.435E+00
   1   16    8     1     8    3.1410E+05 -2.9243E+04   3.4334E+05  0.000E+00  0.000E+00  0.000E+00  4.52159E+01  2.954E-01  2.000E+01  2.000E+04 -1.462E+00
   1   16    9     1     9    3.4334E+05 -2.9569E+04   3.7291E+05  0.000E+00  0.000E+00  0.000E+00  4.47542E+01  3.110E-01  2.000E+01  2.000E+04 -1.478E+00
   1   16   10     1    10    3.7291E+05 -2.9772E+04   4.0269E+05  0.000E+00  0.000E+00  0.000E+00  4.42921E+01  3.262E-01  2.000E+01  2.000E+04 -1.489E+00
   1   16   11     1    11    4.0269E+05 -3.0512E+04   4.3320E+05  0.000E+00  0.000E+00  0.000E+00  4.38298E+01  3.412E-01  2.000E+01  2.000E+04 -1.526E+00
   1   16   12     1    12    4.3320E+05 -3.6194E+04   4.6939E+05  0.000E+00  0.000E+00  0.000E+00  4.33686E+01  3.573E-01  2.000E+01  2.000E+04 -1.810E+00
   1   15   13     1    13    4.6939E+05 -3.5095E+04   5.0449E+05  0.000E+00  0.000E+00  0.000E+00  4.29080E+01  3.739E-01  2.000E+01  2.000E+04 -1.755E+00
   1   14   14     1    14    5.0449E+05 -3.5730E+04   5.4022E+05  0.000E+00  0.000E+00  0.000E+00  4.24469E+01  3.900E-01  2.000E+01  2.000E+04 -1.786E+00
   1   13   15     1    15    5.4022E+05 -3.7926E+04   5.7814E+05  0.000E+00  0.000E+00  0.000E+00  4.19859E+01  4.063E-01  2.000E+01  2.000E+04 -1.896E+00
   1   12   16     1    16    5.7814E+05 -4.3853E+04   6.2200E+05  0.000E+00  0.000E+00  0.000E+00  4.15262E+01  4.239E-01  2.000E+01  2.000E+04 -2.193E+00
   1   12   17     1    17    6.2200E+05 -3.4290E+04   6.5628E+05  0.000E+00  0.000E+00  0.000E+00  4.10652E+01  4.402E-01  2.000E+01  2.000E+04 -1.714E+00
   1   12   18     1    18    6.5628E+05 -3.2623E+04   6.8891E+05  0.000E+00  0.000E+00  0.000E+00  4.06016E+01  4.539E-01  2.000E+01  2.000E+04 -1.631E+00
   1   12   19     1    19    6.8891E+05 -3.6664E+04   7.2557E+05  0.000E+00  0.000E+00  0.000E+00  4.01383E+01  4.678E-01  2.000E+01  2.000E+04 -1.833E+00
   1   13   20     1    20    7.2557E+05 -2.7092E+04   7.5266E+05  0.000E+00  0.000E+00  0.000E+00  3.96735E+01  4.803E-01  2.000E+01  2.000E+04 -1.355E+00
   1   14   21     1    21    7.5266E+05 -2.0067E+04   7.7273E+05  0.000E+00  0.000E+00  0.000E+00  3.92054E+01  4.895E-01  2.000E+01  2.000E+04 -1.003E+00
   1   14   22     1    22    7.7273E+05 -1.8941E+03   7.7462E+05  0.000E+00  0.000E+00  0.000E+00  3.87323E+01  4.937E-01  2.000E+01  2.000E+04 -9.470E-02
   1    9   30     2     1    5.0000E+04 -2.6780E+04   7.6780E+04  0.000E+00  0.000E+00  0.000E+00  4.02586E+01  1.336E-01  2.000E+01  2.000E+04 -1.339E+00
   1    9   29     2     2    7.6780E+04 -2.9224E+04   1.0600E+05  0.000E+00  0.000E+00  0.000E+00  4.00414E+01  1.664E-01  2.000E+01  2.000E+04 -1.461E+00
   1    9   28     2     3    1.0600E+05 -3.3466E+04   1.3947E+05  0.000E+00  0.000E+00  0.000E+00  3.98236E+01  1.986E-01  2.000E+01  2.000E+04 -1.673E+00
   1    9   27     2     4    1.3947E+05 -4.7502E+04   1.8697E+05  0.000E+00  0.000E+00  0.000E+00  3.96106E+01  2.356E-01  2.000E+01  2.000E+04 -2.375E+00
   1   10   26     2     5    1.8697E+05 -3.3532E+04   2.2050E+05  0.000E+00  0.000E+00  0.000E+00  3.93942E+01  2.692E-01  2.000E+01  2.000E+04 -1.677E+00
   1   11   25     2     6    2.2050E+05 -2.5224E+04   2.4573E+05  0.000E+00  0.000E+00  0.000E+00  3.91668E+01  2.918E-01  2.000E+01  2.000E+04 -1.261E+00
   1   12   24     2     7    2.4573E+05 -1.8685E+04   2.6441E+05  0.000E+00  0.000E+00  0.000E+00  3.89330E+01  3.080E-01  2.000E+01  2.000E+04 -9.342E-01
   1   13   23     2     8    2.6441E+05 -1.3349E+04   2.7776E+05  0.000E+00  0.000E+00  0.000E+00  3.86945E+01  3.195E-01  2.000E+01  2.000E+04 -6.675E-01
   1   14   22     2     9    2.7776E+05 -7.5048E+03   2.8527E+05  0.000E+00  0.000E+00  0.000E+00  3.84518E+01  3.268E-01  2.000E+01  2.000E+04 -3.752E-01
   1   14   22     3     1    1.0599E+06 -1.5490E+04   1.0754E+06  0.000E+00  0.000E+00  0.000E+00  3.80526E+01  4.970E-01  2.000E+01  2.000E+04 -7.745E-01
   1   15   23     3     2    1.0754E+06 -2.4072E+04   1.0995E+06  0.000E+00  0.000E+00  0.000E+00  3.71692E+01  5.025E-01  2.000E+01  2.000E+04 -1.204E+00
   1   15   24     3     3    1.0995E+06 -2.0040E+04   1.1195E+06  0.000E+00  0.000E+00  0.000E+00  3.62864E+01  5.086E-01  2.000E+01  2.000E+04 -1.002E+00
   1   15   25     3     4    1.1195E+06 -1.9636E+04   1.1391E+06  0.000E+00  0.000E+00  0.000E+00  3.54029E+01  5.140E-01  2.000E+01  2.000E+04 -9.818E-01
   1   15   26     3     5    1.1391E+06 -2.2442E+04   1.1616E+06  0.000E+00  0.000E+00  0.000E+00  3.45198E+01  5.198E-01  2.000E+01  2.000E+04 -1.122E+00
   1   16   27     3     6    1.1616E+06 -2.9700E+04   1.1913E+06  0.000E+00  0.000E+00  0.000E+00  3.36379E+01  5.268E-01  2.000E+01  2.000E+04 -1.485E+00
   1   17   28     3     7    1.1913E+06 -3.6776E+04   1.2280E+06  0.000E+00  0.000E+00  0.000E+00  3.27579E+01  5.357E-01  2.000E+01  2.000E+04 -1.839E+00
   1   18   29     3     8    1.2280E+06 -4.7746E+04   1.2758E+06  0.000E+00  0.000E+00  0.000E+00  3.18802E+01  5.468E-01  2.000E+01  2.000E+04 -2.387E+00
   1   18   30     3     9    1.2758E+06 -4.4098E+04   1.3199E+06  0.000E+00  0.000E+00  0.000E+00  3.10032E+01  5.588E-01  2.000E+01  2.000E+04 -2.205E+00



1
              HEAD IN LAYER   1 AT END OF TIME STEP   1 IN STRESS PERIOD    6
  ---------------------------------------------------------------------------

          1      2      3      4      5      6      7      8      9     10
         11     12     13     14     15     16     17     18     19     20
         21     22     23     24     25     26     27     28     29     30
 .........................................................................
   1  ****** ****** ****** ****** ****** ****** ****** ****** ****** ******
      ****** ****** ****** ****** ****** ****** ****** ****** ****** ******
      ****** ****** ****** ****** ****** ****** ****** ****** ****** ******
   2  ****** ****** ****** ****** ****** ****** ****** ****** ****** ******
      ****** ****** ****** ****** ****** ****** ****** ****** ****** ******
      ****** ****** ****** ****** ****** ****** ****** ****** ****** ******
   3  ****** ****** ****** ****** ****** ****** ****** ****** ****** ******
      ****** ****** ****** ****** ****** ****** ****** ****** ****** ******
      ****** ****** ****** ****** ****** ****** ****** ****** ****** ******
   4  ****** ****** ****** ****** ****** ****** ****** ****** ****** ******
      ****** ****** ****** ****** ****** ****** ****** ****** ****** ******
      ****** ****** ****** ****** ****** ****** ****** ****** ****** ******
   5  ****** ****** ****** ****** ****** ****** ****** ****** ****** ******
      ****** ****** ****** ****** ****** ****** ****** ****** ****** ******
      ****** ****** ****** ****** ****** ****** ****** ****** ****** ******
   6  ****** ****** ****** ****** ****** ****** ****** ****** ****** ******
      ****** ****** ****** ****** ****** ****** ****** ****** ****** ******
      ****** ****** ****** ****** ****** ****** ****** ****** ****** ******
   7  ****** ****** ****** ****** ****** ****** ****** ****** ****** ******
      ****** ****** ****** ****** ****** ****** ****** ****** ****** ******
      ****** ****** ****** ****** ****** ****** ****** ****** ****** ******
   8  ****** ****** ****** ****** ****** ****** ****** ****** ****** ******
      ****** ****** ****** ****** ****** ****** ****** ****** ****** ******
      ****** ****** ****** ****** ****** ****** ****** ****** ****** ******
   9  ****** ****** ****** ****** ****** ****** ****** ****** ****** ******
      ****** ****** ****** ****** ****** ****** ****** ****** ****** ******
      ****** ****** ****** ****** ****** ****** ****** ****** ****** ******
  10  ****** ****** ****** ****** ****** ****** ****** ****** ****** ******
      ****** ****** ****** ****** ****** ****** ****** ****** ****** ******
      ****** ****** ****** ****** ****** ****** ****** ****** ****** ******
  11  ****** ****** ****** ****** ****** ****** ****** ****** ****** ******
      ****** ****** ****** ****** ****** ****** ****** ****** ****** ******
      ****** ****** ****** ****** ****** ****** ****** ****** ****** ******
  12  ****** ****** ****** ****** ****** ****** ****** ****** ****** ******
      ****** ****** ****** ****** ****** ****** ****** ****** ****** ******
      ****** ****** ****** ****** ****** ****** ****** ****** ****** ******
  13  ****** ****** ****** ****** ****** ****** ****** ****** ****** ******
      ****** ****** ****** ****** ****** ****** ****** ****** ****** ******
      ****** ****** ****** ****** ****** ****** ****** ****** ****** ******
  14  ****** ****** ****** ****** ****** ****** ****** ****** ****** ******
      ****** ****** ****** ****** ****** ****** ****** ****** ****** ******
      ****** ****** ****** ****** ****** ****** ****** ****** ****** ******
  15  ****** ****** ****** ****** ****** ****** ****** ****** ****** ******
      ****** ****** ****** ****** ****** ****** ****** ****** ****** ******
      ****** ****** ****** ****** ****** ****** ****** ****** ****** ******
  16  ****** ****** ****** ****** ****** ****** ****** ****** ****** ******
      ****** ****** ****** ****** ****** ****** ****** ****** ****** ******
      ****** ****** ****** ****** ****** ****** ****** ****** ****** ******
  17  ****** ****** ****** ****** ****** ****** ****** ****** ****** ******
      ****** ****** ****** ****** ****** ****** ****** ****** ****** ******
      ****** ****** ****** ****** ****** ****** ****** ****** ****** ******
  18  ****** ****** ****** ****** ****** ****** ****** ****** ****** ******
      ****** ****** ****** ****** ****** ****** ****** ****** ****** ******
      ****** ****** ****** ****** ****** ****** ****** ****** ****** ******
  19  ****** ****** ****** ****** ****** ****** ****** ****** ****** ******
      ****** ****** ****** ****** ****** ****** ****** ****** ****** ******
      ****** ****** ****** ****** ****** ****** ****** ****** ****** ******
  20  ****** ****** ****** ****** ****** ****** ****** ****** ****** ******
      ****** ****** ****** ****** ****** ****** ****** ****** ****** ******
      ****** ****** ****** ****** ****** ****** ****** ****** ****** ******
  21  ****** ****** ****** ****** ****** ****** ****** ****** ****** ******
      ****** ****** ****** ****** ****** ****** ****** ****** ****** ******
      ****** ****** ****** ****** ****** ****** ****** ****** ****** ******
  22  ****** ****** ****** ****** ****** ****** ****** ****** ****** ******
      ****** ****** ****** ****** ****** ****** ****** ****** ****** ******
      ****** ****** ****** ****** ****** ****** ****** ****** ****** ******
  23  ****** ****** ****** ****** ****** ****** ****** ****** ****** ******
      ****** ****** ****** ****** ****** ****** ****** ****** ****** ******
      ****** ****** ****** ****** ****** ****** ****** ****** ****** ******
  24  ****** ****** ****** ****** ****** ****** ****** ****** ****** ******
      ****** ****** ****** ****** ****** ****** ****** ****** ****** ******
      ****** ****** ****** ****** ****** ****** ****** ****** ****** ******
  25  ****** ****** ****** ****** ****** ****** ****** ****** ****** ******
      ****** ****** ****** ****** ****** ****** ****** ****** ****** ******
      ****** ****** ****** ****** ****** ****** ****** ****** ****** ******

 HEAD WILL BE SAVED ON UNIT   51 AT END OF TIME STEP    1, STRESS PERIOD    6
1
  VOLUMETRIC BUDGET FOR ENTIRE MODEL AT END OF TIME STEP    1, STRESS PERIOD   6
  ------------------------------------------------------------------------------

     CUMULATIVE VOLUMES      L**3       RATES FOR THIS TIME STEP      L**3/T
     ------------------                 ------------------------

           IN:                                      IN:
           ---                                      ---
             STORAGE =    20577227.9699               STORAGE =        1533.6781
       CONSTANT HEAD =   659206304.3114         CONSTANT HEAD =     1198306.2706
               WELLS =           0.0000                 WELLS =           0.0000
            RECHARGE =    15097200.0000              RECHARGE =       55200.0000
      STREAM LEAKAGE =           0.0000        STREAM LEAKAGE =           0.0000

            TOTAL IN =   694880732.2813              TOTAL IN =     1255039.9487

          OUT:                                     OUT:
          ----                                     ----
             STORAGE =      718924.0671               STORAGE =        2649.9683
       CONSTANT HEAD =           0.0000         CONSTANT HEAD =           0.0000
               WELLS =    44295136.5000                 WELLS =       82500.7500
            RECHARGE =           0.0000              RECHARGE =           0.0000
      STREAM LEAKAGE =   649866673.6924        STREAM LEAKAGE =     1169889.2648

           TOTAL OUT =   694880734.2594             TOTAL OUT =     1255039.9831

            IN - OUT =          -1.9781              IN - OUT =      -3.4412E-02

 PERCENT DISCREPANCY =          -0.00     PERCENT DISCREPANCY =          -0.00






         TIME SUMMARY AT END OF TIME STEP    1 IN STRESS PERIOD    6
                    SECONDS     MINUTES      HOURS       DAYS        YEARS
                    -----------------------------------------------------------
   TIME STEP LENGTH 7.86240E+06 1.31040E+05  2184.0      91.000     0.24914    
 STRESS PERIOD TIME 7.86240E+06 1.31040E+05  2184.0      91.000     0.24914    
         TOTAL TIME 4.73472E+07 7.89120E+05  13152.      548.00      1.5003    
1
1
                            STRESS PERIOD NO.    7, LENGTH =   91.00000    
                            -----------------------------------------------

                              NUMBER OF TIME STEPS =     1

                               MULTIPLIER FOR DELT =     1.500

                            INITIAL TIME STEP SIZE =   91.00000    

 WELL NO.  LAYER   ROW   COL   STRESS RATE         
 --------------------------------------------------
      1      1      2     21     -0.4767E+05
      2      1     23     19     -0.3233E+05

      2 WELLS

                 RECHARGE =   0.00000    

 REUSING STREAM SEGMENT DATA FROM LAST STRESS PERIOD
 
 SOLVING FOR HEAD 


     6 CALLS TO PCG ROUTINE FOR TIME STEP   1 IN STRESS PERIOD    7
    22 TOTAL ITERATIONS

 OUTPUT CONTROL FOR STRESS PERIOD    7   TIME STEP    1
    SAVE BUDGET
    SAVE HEAD FOR ALL LAYERS
    PRINT HEAD FOR ALL LAYERS
 UBDSV2 SAVING "STREAMFLOW OUT  " ON UNIT  50 AT TIME STEP  1, STRESS PERIOD   7



 STREAM LISTING     PERIOD      7   STEP        1

 LAYER ROW COL. STREAM  RCH.  FLOW INTO     FLOW TO   FLOW OUT OF   OVRLND.     DIRECT     STREAM       STREAM     STREAM     STREAM   STREAMBED  STREAMBED
                SEG.NO.  NO.  STRM. RCH.    AQUIFER    STRM. RCH.    RUNOFF     PRECIP       ET          HEAD       DEPTH      WIDTH   CONDCTNC.   GRADIENT

   1   13    1     1     1    1.0000E+05 -2.7420E+04   1.2742E+05  0.000E+00  0.000E+00  0.000E+00  4.84176E+01  1.562E-01  2.000E+01  2.000E+04 -1.371E+00
   1   13    2     1     2    1.2742E+05 -3.7102E+04   1.6452E+05  0.000E+00  0.000E+00  0.000E+00  4.79656E+01  1.815E-01  2.000E+01  2.000E+04 -1.855E+00
   1   14    3     1     3    1.6452E+05 -3.2538E+04   1.9706E+05  0.000E+00  0.000E+00  0.000E+00  4.75132E+01  2.064E-01  2.000E+01  2.000E+04 -1.627E+00
   1   15    4     1     4    1.9706E+05 -3.1755E+04   2.2881E+05  0.000E+00  0.000E+00  0.000E+00  4.70572E+01  2.277E-01  2.000E+01  2.000E+04 -1.588E+00
   1   16    5     1     5    2.2881E+05 -3.3281E+04   2.6210E+05  0.000E+00  0.000E+00  0.000E+00  4.66002E+01  2.479E-01  2.000E+01  2.000E+04 -1.664E+00
   1   16    6     1     6    2.6210E+05 -2.9125E+04   2.9122E+05  0.000E+00  0.000E+00  0.000E+00  4.61414E+01  2.664E-01  2.000E+01  2.000E+04 -1.456E+00
   1   16    7     1     7    2.9122E+05 -2.8975E+04   3.2019E+05  0.000E+00  0.000E+00  0.000E+00  4.56805E+01  2.828E-01  2.000E+01  2.000E+04 -1.449E+00
   1   16    8     1     8    3.2019E+05 -2.9168E+04   3.4936E+05  0.000E+00  0.000E+00  0.000E+00  4.52191E+01  2.987E-01  2.000E+01  2.000E+04 -1.458E+00
   1   16    9     1     9    3.4936E+05 -2.9251E+04   3.7861E+05  0.000E+00  0.000E+00  0.000E+00  4.47572E+01  3.140E-01  2.000E+01  2.000E+04 -1.463E+00
   1   16   10     1    10    3.7861E+05 -2.9269E+04   4.0788E+05  0.000E+00  0.000E+00  0.000E+00  4.42949E+01  3.289E-01  2.000E+01  2.000E+04 -1.463E+00
   1   16   11     1    11    4.0788E+05 -2.9837E+04   4.3772E+05  0.000E+00  0.000E+00  0.000E+00  4.38322E+01  3.436E-01  2.000E+01  2.000E+04 -1.492E+00
   1   16   12     1    12    4.3772E+05 -3.5190E+04   4.7291E+05  0.000E+00  0.000E+00  0.000E+00  4.33705E+01  3.592E-01  2.000E+01  2.000E+04 -1.759E+00
   1   15   13     1    13    4.7291E+05 -3.3914E+04   5.0682E+05  0.000E+00  0.000E+00  0.000E+00  4.29094E+01  3.753E-01  2.000E+01  2.000E+04 -1.696E+00
   1   14   14     1    14    5.0682E+05 -3.4508E+04   5.4133E+05  0.000E+00  0.000E+00  0.000E+00  4.24476E+01  3.908E-01  2.000E+01  2.000E+04 -1.725E+00
   1   13   15     1    15    5.4133E+05 -3.6750E+04   5.7808E+05  0.000E+00  0.000E+00  0.000E+00  4.19861E+01  4.065E-01  2.000E+01  2.000E+04 -1.837E+00
   1   12   16     1    16    5.7808E+05 -4.2791E+04   6.2087E+05  0.000E+00  0.000E+00  0.000E+00  4.15259E+01  4.236E-01  2.000E+01  2.000E+04 -2.140E+00
   1   12   17     1    17    6.2087E+05 -3.3389E+04   6.5426E+05  0.000E+00  0.000E+00  0.000E+00  4.10646E+01  4.396E-01  2.000E+01  2.000E+04 -1.669E+00
   1   12   18     1    18    6.5426E+05 -3.1748E+04   6.8601E+05  0.000E+00  0.000E+00  0.000E+00  4.06006E+01  4.529E-01  2.000E+01  2.000E+04 -1.587E+00
   1   12   19     1    19    6.8601E+05 -3.5725E+04   7.2173E+05  0.000E+00  0.000E+00  0.000E+00  4.01369E+01  4.665E-01  2.000E+01  2.000E+04 -1.786E+00
   1   13   20     1    20    7.2173E+05 -2.6077E+04   7.4781E+05  0.000E+00  0.000E+00  0.000E+00  3.96718E+01  4.786E-01  2.000E+01  2.000E+04 -1.304E+00
   1   14   21     1    21    7.4781E+05 -1.9030E+04   7.6684E+05  0.000E+00  0.000E+00  0.000E+00  3.92033E+01  4.874E-01  2.000E+01  2.000E+04 -9.515E-01
   1   14   22     1    22    7.6684E+05 -1.5132E+03   7.6836E+05  0.000E+00  0.000E+00  0.000E+00  3.87300E+01  4.914E-01  2.000E+01  2.000E+04 -7.566E-02
   1    9   30     2     1    5.0000E+04 -2.6191E+04   7.6191E+04  0.000E+00  0.000E+00  0.000E+00  4.02582E+01  1.332E-01  2.000E+01  2.000E+04 -1.310E+00
   1    9   29     2     2    7.6191E+04 -2.8636E+04   1.0483E+05  0.000E+00  0.000E+00  0.000E+00  4.00404E+01  1.654E-01  2.000E+01  2.000E+04 -1.432E+00
   1    9   28     2     3    1.0483E+05 -3.2858E+04   1.3768E+05  0.000E+00  0.000E+00  0.000E+00  3.98221E+01  1.971E-01  2.000E+01  2.000E+04 -1.643E+00
   1    9   27     2     4    1.3768E+05 -4.6759E+04   1.8444E+05  0.000E+00  0.000E+00  0.000E+00  3.96088E+01  2.338E-01  2.000E+01  2.000E+04 -2.338E+00
   1   10   26     2     5    1.8444E+05 -3.2758E+04   2.1720E+05  0.000E+00  0.000E+00  0.000E+00  3.93918E+01  2.668E-01  2.000E+01  2.000E+04 -1.638E+00
   1   11   25     2     6    2.1720E+05 -2.4473E+04   2.4167E+05  0.000E+00  0.000E+00  0.000E+00  3.91640E+01  2.890E-01  2.000E+01  2.000E+04 -1.224E+00
   1   12   24     2     7    2.4167E+05 -1.8003E+04   2.5968E+05  0.000E+00  0.000E+00  0.000E+00  3.89298E+01  3.048E-01  2.000E+01  2.000E+04 -9.001E-01
   1   13   23     2     8    2.5968E+05 -1.2770E+04   2.7245E+05  0.000E+00  0.000E+00  0.000E+00  3.86909E+01  3.159E-01  2.000E+01  2.000E+04 -6.385E-01
   1   14   22     2     9    2.7245E+05 -7.1542E+03   2.7960E+05  0.000E+00  0.000E+00  0.000E+00  3.84480E+01  3.230E-01  2.000E+01  2.000E+04 -3.577E-01
   1   14   22     3     1    1.0480E+06 -1.5130E+04   1.0631E+06  0.000E+00  0.000E+00  0.000E+00  3.80492E+01  4.936E-01  2.000E+01  2.000E+04 -7.565E-01
   1   15   23     3     2    1.0631E+06 -2.3043E+04   1.0861E+06  0.000E+00  0.000E+00  0.000E+00  3.71656E+01  4.989E-01  2.000E+01  2.000E+04 -1.152E+00
   1   15   24     3     3    1.0861E+06 -1.9275E+04   1.1054E+06  0.000E+00  0.000E+00  0.000E+00  3.62826E+01  5.048E-01  2.000E+01  2.000E+04 -9.637E-01
   1   15   25     3     4    1.1054E+06 -1.8949E+04   1.1244E+06  0.000E+00  0.000E+00  0.000E+00  3.53990E+01  5.101E-01  2.000E+01  2.000E+04 -9.474E-01
   1   15   26     3     5    1.1244E+06 -2.1725E+04   1.1461E+06  0.000E+00  0.000E+00  0.000E+00  3.45156E+01  5.156E-01  2.000E+01  2.000E+04 -1.086E+00
   1   16   27     3     6    1.1461E+06 -2.8797E+04   1.1749E+06  0.000E+00  0.000E+00  0.000E+00  3.36336E+01  5.225E-01  2.000E+01  2.000E+04 -1.440E+00
   1   17   28     3     7    1.1749E+06 -3.5852E+04   1.2107E+06  0.000E+00  0.000E+00  0.000E+00  3.27534E+01  5.312E-01  2.000E+01  2.000E+04 -1.793E+00
   1   18   29     3     8    1.2107E+06 -4.6877E+04   1.2576E+06  0.000E+00  0.000E+00  0.000E+00  3.18755E+01  5.422E-01  2.000E+01  2.000E+04 -2.344E+00
   1   18   30     3     9    1.2576E+06 -4.3416E+04   1.3010E+06  0.000E+00  0.000E+00  0.000E+00  3.09984E+01  5.540E-01  2.000E+01  2.000E+04 -2.171E+00



1
              HEAD IN LAYER   1 AT END OF TIME STEP   1 IN STRESS PERIOD    7
  ---------------------------------------------------------------------------

          1      2      3      4      5      6      7      8      9     10
         11     12     13     14     15     16     17     18     19     20
         21     22     23     24     25     26     27     28     29     30
 .........................................................................
   1  ****** ****** ****** ****** ****** ****** ****** ****** ****** ******
      ****** ****** ****** ****** ****** ****** ****** ****** ****** ******
      ****** ****** ****** ****** ****** ****** ****** ****** ****** ******
   2  ****** ****** ****** ****** ****** ****** ****** ****** ****** ******
      ****** ****** ****** ****** ****** ****** ****** ****** ****** ******
      ****** ****** ****** ****** ****** ****** ****** ****** ****** ******
   3  ****** ****** ****** ****** ****** ****** ****** ****** ****** ******
      ****** ****** ****** ****** ****** ****** ****** ****** ****** ******
      ****** ****** ****** ****** ****** ****** ****** ****** ****** ******
   4  ****** ****** ****** ****** ****** ****** ****** ****** ****** ******
      ****** ****** ****** ****** ****** ****** ****** ****** ****** ******
      ****** ****** ****** ****** ****** ****** ****** ****** ****** ******
   5  ****** ****** ****** ****** ****** ****** ****** ****** ****** ******
      ****** ****** ****** ****** ****** ****** ****** ****** ****** ******
      ****** ****** ****** ****** ****** ****** ****** ****** ****** ******
   6  ****** ****** ****** ****** ****** ****** ****** ****** ****** ******
      ****** ****** ****** ****** ****** ****** ****** ****** ****** ******
      ****** ****** ****** ****** ****** ****** ****** ****** ****** ******
   7  ****** ****** ****** ****** ****** ****** ****** ****** ****** ******
      ****** ****** ****** ****** ****** ****** ****** ****** ****** ******
      ****** ****** ****** ****** ****** ****** ****** ****** ****** ******
   8  ****** ****** ****** ****** ****** ****** ****** ****** ****** ******
      ****** ****** ****** ****** ****** ****** ****** ****** ****** ******
      ****** ****** ****** ****** ****** ****** ****** ****** ****** ******
   9  ****** ****** ****** ****** ****** ****** ****** ****** ****** ******
      ****** ****** ****** ****** ****** ****** ****** ****** ****** ******
      ****** ****** ****** ****** ****** ****** ****** ****** ****** ******
  10  ****** ****** ****** ****** ****** ****** ****** ****** ****** ******
      ****** ****** ****** ****** ****** ****** ****** ****** ****** ******
      ****** ****** ****** ****** ****** ****** ****** ****** ****** ******
  11  ****** ****** ****** ****** ****** ****** ****** ****** ****** ******
      ****** ****** ****** ****** ****** ****** ****** ****** ****** ******
      ****** ****** ****** ****** ****** ****** ****** ****** ****** ******
  12  ****** ****** ****** ****** ****** ****** ****** ****** ****** ******
      ****** ****** ****** ****** ****** ****** ****** ****** ****** ******
      ****** ****** ****** ****** ****** ****** ****** ****** ****** ******
  13  ****** ****** ****** ****** ****** ****** ****** ****** ****** ******
      ****** ****** ****** ****** ****** ****** ****** ****** ****** ******
      ****** ****** ****** ****** ****** ****** ****** ****** ****** ******
  14  ****** ****** ****** ****** ****** ****** ****** ****** ****** ******
      ****** ****** ****** ****** ****** ****** ****** ****** ****** ******
      ****** ****** ****** ****** ****** ****** ****** ****** ****** ******
  15  ****** ****** ****** ****** ****** ****** ****** ****** ****** ******
      ****** ****** ****** ****** ****** ****** ****** ****** ****** ******
      ****** ****** ****** ****** ****** ****** ****** ****** ****** ******
  16  ****** ****** ****** ****** ****** ****** ****** ****** ****** ******
      ****** ****** ****** ****** ****** ****** ****** ****** ****** ******
      ****** ****** ****** ****** ****** ****** ****** ****** ****** ******
  17  ****** ****** ****** ****** ****** ****** ****** ****** ****** ******
      ****** ****** ****** ****** ****** ****** ****** ****** ****** ******
      ****** ****** ****** ****** ****** ****** ****** ****** ****** ******
  18  ****** ****** ****** ****** ****** ****** ****** ****** ****** ******
      ****** ****** ****** ****** ****** ****** ****** ****** ****** ******
      ****** ****** ****** ****** ****** ****** ****** ****** ****** ******
  19  ****** ****** ****** ****** ****** ****** ****** ****** ****** ******
      ****** ****** ****** ****** ****** ****** ****** ****** ****** ******
      ****** ****** ****** ****** ****** ****** ****** ****** ****** ******
  20  ****** ****** ****** ****** ****** ****** ****** ****** ****** ******
      ****** ****** ****** ****** ****** ****** ****** ****** ****** ******
      ****** ****** ****** ****** ****** ****** ****** ****** ****** ******
  21  ****** ****** ****** ****** ****** ****** ****** ****** ****** ******
      ****** ****** ****** ****** ****** ****** ****** ****** ****** ******
      ****** ****** ****** ****** ****** ****** ****** ****** ****** ******
  22  ****** ****** ****** ****** ****** ****** ****** ****** ****** ******
      ****** ****** ****** ****** ****** ****** ****** ****** ****** ******
      ****** ****** ****** ****** ****** ****** ****** ****** ****** ******
  23  ****** ****** ****** ****** ****** ****** ****** ****** ****** ******
      ****** ****** ****** ****** ****** ****** ****** ****** ****** ******
      ****** ****** ****** ****** ****** ****** ****** ****** ****** ******
  24  ****** ****** ****** ****** ****** ****** ****** ****** ****** ******
      ****** ****** ****** ****** ****** ****** ****** ****** ****** ******
      ****** ****** ****** ****** ****** ****** ****** ****** ****** ******
  25  ****** ****** ****** ****** ****** ****** ****** ****** ****** ******
      ****** ****** ****** ****** ****** ****** ****** ****** ****** ******
      ****** ****** ****** ****** ****** ****** ****** ****** ****** ******

 HEAD WILL BE SAVED ON UNIT   51 AT END OF TIME STEP    1, STRESS PERIOD    7
1
  VOLUMETRIC BUDGET FOR ENTIRE MODEL AT END OF TIME STEP    1, STRESS PERIOD   7
  ------------------------------------------------------------------------------

     CUMULATIVE VOLUMES      L**3       RATES FOR THIS TIME STEP      L**3/T
     ------------------                 ------------------------

           IN:                                      IN:
           ---                                      ---
             STORAGE =    20865300.1986               STORAGE =        3165.6289
       CONSTANT HEAD =   771074032.5330         CONSTANT HEAD =     1229315.6947
               WELLS =           0.0000                 WELLS =           0.0000
            RECHARGE =    15097200.0000              RECHARGE =           0.0000
      STREAM LEAKAGE =           0.0000        STREAM LEAKAGE =           0.0000

            TOTAL IN =   807036532.7316              TOTAL IN =     1232481.3236

          OUT:                                     OUT:
          ----                                     ----
             STORAGE =      852056.7100               STORAGE =        1462.9961
       CONSTANT HEAD =           0.0000         CONSTANT HEAD =           0.0000
               WELLS =    51575136.5000                 WELLS =       80000.0000
            RECHARGE =           0.0000              RECHARGE =           0.0000
      STREAM LEAKAGE =   754609339.4717        STREAM LEAKAGE =     1151018.3053

           TOTAL OUT =   807036532.6818             TOTAL OUT =     1232481.3013

            IN - OUT =       4.9871E-02              IN - OUT =       2.2285E-02

 PERCENT DISCREPANCY =           0.00     PERCENT DISCREPANCY =           0.00






         TIME SUMMARY AT END OF TIME STEP    1 IN STRESS PERIOD    7
                    SECONDS     MINUTES      HOURS       DAYS        YEARS
                    -----------------------------------------------------------
   TIME STEP LENGTH 7.86240E+06 1.31040E+05  2184.0      91.000     0.24914    
 STRESS PERIOD TIME 7.86240E+06 1.31040E+05  2184.0      91.000     0.24914    
         TOTAL TIME 5.52096E+07 9.20160E+05  15336.      639.00      1.7495    
1
1
                            STRESS PERIOD NO.    8, LENGTH =   91.00000    
                            -----------------------------------------------

                              NUMBER OF TIME STEPS =     1

                               MULTIPLIER FOR DELT =     1.500

                            INITIAL TIME STEP SIZE =   91.00000    

 WELL NO.  LAYER   ROW   COL   STRESS RATE         
 --------------------------------------------------
      1      1      2     21     -0.4767E+05
      2      1     23     19       0.000    
      3      1     20      2     -0.3233E+05

      3 WELLS

                 RECHARGE =  1.000000E-03

 REUSING STREAM SEGMENT DATA FROM LAST STRESS PERIOD
 
 SOLVING FOR HEAD 


     6 CALLS TO PCG ROUTINE FOR TIME STEP   1 IN STRESS PERIOD    8
    23 TOTAL ITERATIONS

 OUTPUT CONTROL FOR STRESS PERIOD    8   TIME STEP    1
    SAVE BUDGET
    SAVE HEAD FOR ALL LAYERS
    PRINT HEAD FOR ALL LAYERS
 UBDSV2 SAVING "STREAMFLOW OUT  " ON UNIT  50 AT TIME STEP  1, STRESS PERIOD   8



 STREAM LISTING     PERIOD      8   STEP        1

 LAYER ROW COL. STREAM  RCH.  FLOW INTO     FLOW TO   FLOW OUT OF   OVRLND.     DIRECT     STREAM       STREAM     STREAM     STREAM   STREAMBED  STREAMBED
                SEG.NO.  NO.  STRM. RCH.    AQUIFER    STRM. RCH.    RUNOFF     PRECIP       ET          HEAD       DEPTH      WIDTH   CONDCTNC.   GRADIENT

   1   13    1     1     1    1.0000E+05 -2.6745E+04   1.2675E+05  0.000E+00  0.000E+00  0.000E+00  4.84173E+01  1.560E-01  2.000E+01  2.000E+04 -1.337E+00
   1   13    2     1     2    1.2675E+05 -3.6601E+04   1.6335E+05  0.000E+00  0.000E+00  0.000E+00  4.79649E+01  1.808E-01  2.000E+01  2.000E+04 -1.830E+00
   1   14    3     1     3    1.6335E+05 -3.1226E+04   1.9457E+05  0.000E+00  0.000E+00  0.000E+00  4.75119E+01  2.051E-01  2.000E+01  2.000E+04 -1.561E+00
   1   15    4     1     4    1.9457E+05 -2.9849E+04   2.2442E+05  0.000E+00  0.000E+00  0.000E+00  4.70550E+01  2.254E-01  2.000E+01  2.000E+04 -1.492E+00
   1   16    5     1     5    2.2442E+05 -3.0944E+04   2.5537E+05  0.000E+00  0.000E+00  0.000E+00  4.65968E+01  2.445E-01  2.000E+01  2.000E+04 -1.547E+00
   1   16    6     1     6    2.5537E+05 -2.8008E+04   2.8337E+05  0.000E+00  0.000E+00  0.000E+00  4.61371E+01  2.621E-01  2.000E+01  2.000E+04 -1.400E+00
   1   16    7     1     7    2.8337E+05 -2.8386E+04   3.1176E+05  0.000E+00  0.000E+00  0.000E+00  4.56760E+01  2.783E-01  2.000E+01  2.000E+04 -1.419E+00
   1   16    8     1     8    3.1176E+05 -2.8904E+04   3.4066E+05  0.000E+00  0.000E+00  0.000E+00  4.52145E+01  2.941E-01  2.000E+01  2.000E+04 -1.445E+00
   1   16    9     1     9    3.4066E+05 -2.9213E+04   3.6988E+05  0.000E+00  0.000E+00  0.000E+00  4.47527E+01  3.095E-01  2.000E+01  2.000E+04 -1.461E+00
   1   16   10     1    10    3.6988E+05 -2.9406E+04   3.9928E+05  0.000E+00  0.000E+00  0.000E+00  4.42905E+01  3.246E-01  2.000E+01  2.000E+04 -1.470E+00
   1   16   11     1    11    3.9928E+05 -3.0134E+04   4.2942E+05  0.000E+00  0.000E+00  0.000E+00  4.38281E+01  3.394E-01  2.000E+01  2.000E+04 -1.507E+00
   1   16   12     1    12    4.2942E+05 -3.5746E+04   4.6516E+05  0.000E+00  0.000E+00  0.000E+00  4.33667E+01  3.554E-01  2.000E+01  2.000E+04 -1.787E+00
   1   15   13     1    13    4.6516E+05 -3.4590E+04   4.9975E+05  0.000E+00  0.000E+00  0.000E+00  4.29060E+01  3.719E-01  2.000E+01  2.000E+04 -1.729E+00
   1   14   14     1    14    4.9975E+05 -3.5204E+04   5.3496E+05  0.000E+00  0.000E+00  0.000E+00  4.24446E+01  3.878E-01  2.000E+01  2.000E+04 -1.760E+00
   1   13   15     1    15    5.3496E+05 -3.7402E+04   5.7236E+05  0.000E+00  0.000E+00  0.000E+00  4.19834E+01  4.039E-01  2.000E+01  2.000E+04 -1.870E+00
   1   12   16     1    16    5.7236E+05 -4.3345E+04   6.1570E+05  0.000E+00  0.000E+00  0.000E+00  4.15236E+01  4.213E-01  2.000E+01  2.000E+04 -2.167E+00
   1   12   17     1    17    6.1570E+05 -3.3881E+04   6.4958E+05  0.000E+00  0.000E+00  0.000E+00  4.10625E+01  4.375E-01  2.000E+01  2.000E+04 -1.694E+00
   1   12   18     1    18    6.4958E+05 -3.2233E+04   6.8182E+05  0.000E+00  0.000E+00  0.000E+00  4.05988E+01  4.511E-01  2.000E+01  2.000E+04 -1.612E+00
   1   12   19     1    19    6.8182E+05 -3.6238E+04   7.1805E+05  0.000E+00  0.000E+00  0.000E+00  4.01354E+01  4.649E-01  2.000E+01  2.000E+04 -1.812E+00
   1   13   20     1    20    7.1805E+05 -2.6695E+04   7.4475E+05  0.000E+00  0.000E+00  0.000E+00  3.96705E+01  4.773E-01  2.000E+01  2.000E+04 -1.335E+00
   1   14   21     1    21    7.4475E+05 -1.9725E+04   7.6447E+05  0.000E+00  0.000E+00  0.000E+00  3.92023E+01  4.864E-01  2.000E+01  2.000E+04 -9.863E-01
   1   14   22     1    22    7.6447E+05 -1.7717E+03   7.6625E+05  0.000E+00  0.000E+00  0.000E+00  3.87291E+01  4.905E-01  2.000E+01  2.000E+04 -8.858E-02
   1    9   30     2     1    5.0000E+04 -2.6476E+04   7.6476E+04  0.000E+00  0.000E+00  0.000E+00  4.02584E+01  1.334E-01  2.000E+01  2.000E+04 -1.324E+00
   1    9   29     2     2    7.6476E+04 -2.8920E+04   1.0540E+05  0.000E+00  0.000E+00  0.000E+00  4.00409E+01  1.659E-01  2.000E+01  2.000E+04 -1.446E+00
   1    9   28     2     3    1.0540E+05 -3.3151E+04   1.3855E+05  0.000E+00  0.000E+00  0.000E+00  3.98228E+01  1.978E-01  2.000E+01  2.000E+04 -1.658E+00
   1    9   27     2     4    1.3855E+05 -4.7115E+04   1.8566E+05  0.000E+00  0.000E+00  0.000E+00  3.96097E+01  2.347E-01  2.000E+01  2.000E+04 -2.356E+00
   1   10   26     2     5    1.8566E+05 -3.3131E+04   2.1879E+05  0.000E+00  0.000E+00  0.000E+00  3.93930E+01  2.680E-01  2.000E+01  2.000E+04 -1.657E+00
   1   11   25     2     6    2.1879E+05 -2.4838E+04   2.4363E+05  0.000E+00  0.000E+00  0.000E+00  3.91654E+01  2.904E-01  2.000E+01  2.000E+04 -1.242E+00
   1   12   24     2     7    2.4363E+05 -1.8340E+04   2.6197E+05  0.000E+00  0.000E+00  0.000E+00  3.89314E+01  3.064E-01  2.000E+01  2.000E+04 -9.170E-01
   1   13   23     2     8    2.6197E+05 -1.3070E+04   2.7504E+05  0.000E+00  0.000E+00  0.000E+00  3.86926E+01  3.176E-01  2.000E+01  2.000E+04 -6.535E-01
   1   14   22     2     9    2.7504E+05 -7.3577E+03   2.8240E+05  0.000E+00  0.000E+00  0.000E+00  3.84498E+01  3.248E-01  2.000E+01  2.000E+04 -3.679E-01
   1   14   22     3     1    1.0486E+06 -1.5367E+04   1.0640E+06  0.000E+00  0.000E+00  0.000E+00  3.80494E+01  4.938E-01  2.000E+01  2.000E+04 -7.683E-01
   1   15   23     3     2    1.0640E+06 -2.3755E+04   1.0878E+06  0.000E+00  0.000E+00  0.000E+00  3.71660E+01  4.993E-01  2.000E+01  2.000E+04 -1.188E+00
   1   15   24     3     3    1.0878E+06 -1.9779E+04   1.1075E+06  0.000E+00  0.000E+00  0.000E+00  3.62831E+01  5.053E-01  2.000E+01  2.000E+04 -9.889E-01
   1   15   25     3     4    1.1075E+06 -1.9377E+04   1.1269E+06  0.000E+00  0.000E+00  0.000E+00  3.53996E+01  5.107E-01  2.000E+01  2.000E+04 -9.688E-01
   1   15   26     3     5    1.1269E+06 -2.2141E+04   1.1491E+06  0.000E+00  0.000E+00  0.000E+00  3.45164E+01  5.164E-01  2.000E+01  2.000E+04 -1.107E+00
   1   16   27     3     6    1.1491E+06 -2.9336E+04   1.1784E+06  0.000E+00  0.000E+00  0.000E+00  3.36345E+01  5.234E-01  2.000E+01  2.000E+04 -1.467E+00
   1   17   28     3     7    1.1784E+06 -3.6403E+04   1.2148E+06  0.000E+00  0.000E+00  0.000E+00  3.27544E+01  5.322E-01  2.000E+01  2.000E+04 -1.820E+00
   1   18   29     3     8    1.2148E+06 -4.7395E+04   1.2622E+06  0.000E+00  0.000E+00  0.000E+00  3.18766E+01  5.433E-01  2.000E+01  2.000E+04 -2.370E+00
   1   18   30     3     9    1.2622E+06 -4.3806E+04   1.3060E+06  0.000E+00  0.000E+00  0.000E+00  3.09997E+01  5.552E-01  2.000E+01  2.000E+04 -2.190E+00



1
              HEAD IN LAYER   1 AT END OF TIME STEP   1 IN STRESS PERIOD    8
  ---------------------------------------------------------------------------

          1      2      3      4      5      6      7      8      9     10
         11     12     13     14     15     16     17     18     19     20
         21     22     23     24     25     26     27     28     29     30
 .........................................................................
   1  ****** ****** ****** ****** ****** ****** ****** ****** ****** ******
      ****** ****** ****** ****** ****** ****** ****** ****** ****** ******
      ****** ****** ****** ****** ****** ****** ****** ****** ****** ******
   2  ****** ****** ****** ****** ****** ****** ****** ****** ****** ******
      ****** ****** ****** ****** ****** ****** ****** ****** ****** ******
      ****** ****** ****** ****** ****** ****** ****** ****** ****** ******
   3  ****** ****** ****** ****** ****** ****** ****** ****** ****** ******
      ****** ****** ****** ****** ****** ****** ****** ****** ****** ******
      ****** ****** ****** ****** ****** ****** ****** ****** ****** ******
   4  ****** ****** ****** ****** ****** ****** ****** ****** ****** ******
      ****** ****** ****** ****** ****** ****** ****** ****** ****** ******
      ****** ****** ****** ****** ****** ****** ****** ****** ****** ******
   5  ****** ****** ****** ****** ****** ****** ****** ****** ****** ******
      ****** ****** ****** ****** ****** ****** ****** ****** ****** ******
      ****** ****** ****** ****** ****** ****** ****** ****** ****** ******
   6  ****** ****** ****** ****** ****** ****** ****** ****** ****** ******
      ****** ****** ****** ****** ****** ****** ****** ****** ****** ******
      ****** ****** ****** ****** ****** ****** ****** ****** ****** ******
   7  ****** ****** ****** ****** ****** ****** ****** ****** ****** ******
      ****** ****** ****** ****** ****** ****** ****** ****** ****** ******
      ****** ****** ****** ****** ****** ****** ****** ****** ****** ******
   8  ****** ****** ****** ****** ****** ****** ****** ****** ****** ******
      ****** ****** ****** ****** ****** ****** ****** ****** ****** ******
      ****** ****** ****** ****** ****** ****** ****** ****** ****** ******
   9  ****** ****** ****** ****** ****** ****** ****** ****** ****** ******
      ****** ****** ****** ****** ****** ****** ****** ****** ****** ******
      ****** ****** ****** ****** ****** ****** ****** ****** ****** ******
  10  ****** ****** ****** ****** ****** ****** ****** ****** ****** ******
      ****** ****** ****** ****** ****** ****** ****** ****** ****** ******
      ****** ****** ****** ****** ****** ****** ****** ****** ****** ******
  11  ****** ****** ****** ****** ****** ****** ****** ****** ****** ******
      ****** ****** ****** ****** ****** ****** ****** ****** ****** ******
      ****** ****** ****** ****** ****** ****** ****** ****** ****** ******
  12  ****** ****** ****** ****** ****** ****** ****** ****** ****** ******
      ****** ****** ****** ****** ****** ****** ****** ****** ****** ******
      ****** ****** ****** ****** ****** ****** ****** ****** ****** ******
  13  ****** ****** ****** ****** ****** ****** ****** ****** ****** ******
      ****** ****** ****** ****** ****** ****** ****** ****** ****** ******
      ****** ****** ****** ****** ****** ****** ****** ****** ****** ******
  14  ****** ****** ****** ****** ****** ****** ****** ****** ****** ******
      ****** ****** ****** ****** ****** ****** ****** ****** ****** ******
      ****** ****** ****** ****** ****** ****** ****** ****** ****** ******
  15  ****** ****** ****** ****** ****** ****** ****** ****** ****** ******
      ****** ****** ****** ****** ****** ****** ****** ****** ****** ******
      ****** ****** ****** ****** ****** ****** ****** ****** ****** ******
  16  ****** ****** ****** ****** ****** ****** ****** ****** ****** ******
      ****** ****** ****** ****** ****** ****** ****** ****** ****** ******
      ****** ****** ****** ****** ****** ****** ****** ****** ****** ******
  17  ****** ****** ****** ****** ****** ****** ****** ****** ****** ******
      ****** ****** ****** ****** ****** ****** ****** ****** ****** ******
      ****** ****** ****** ****** ****** ****** ****** ****** ****** ******
  18  ****** ****** ****** ****** ****** ****** ****** ****** ****** ******
      ****** ****** ****** ****** ****** ****** ****** ****** ****** ******
      ****** ****** ****** ****** ****** ****** ****** ****** ****** ******
  19  ****** ****** ****** ****** ****** ****** ****** ****** ****** ******
      ****** ****** ****** ****** ****** ****** ****** ****** ****** ******
      ****** ****** ****** ****** ****** ****** ****** ****** ****** ******
  20  ****** ****** ****** ****** ****** ****** ****** ****** ****** ******
      ****** ****** ****** ****** ****** ****** ****** ****** ****** ******
      ****** ****** ****** ****** ****** ****** ****** ****** ****** ******
  21  ****** ****** ****** ****** ****** ****** ****** ****** ****** ******
      ****** ****** ****** ****** ****** ****** ****** ****** ****** ******
      ****** ****** ****** ****** ****** ****** ****** ****** ****** ******
  22  ****** ****** ****** ****** ****** ****** ****** ****** ****** ******
      ****** ****** ****** ****** ****** ****** ****** ****** ****** ******
      ****** ****** ****** ****** ****** ****** ****** ****** ****** ******
  23  ****** ****** ****** ****** ****** ****** ****** ****** ****** ******
      ****** ****** ****** ****** ****** ****** ****** ****** ****** ******
      ****** ****** ****** ****** ****** ****** ****** ****** ****** ******
  24  ****** ****** ****** ****** ****** ****** ****** ****** ****** ******
      ****** ****** ****** ****** ****** ****** ****** ****** ****** ******
      ****** ****** ****** ****** ****** ****** ****** ****** ****** ******
  25  ****** ****** ****** ****** ****** ****** ****** ****** ****** ******
      ****** ****** ****** ****** ****** ****** ****** ****** ****** ******
      ****** ****** ****** ****** ****** ****** ****** ****** ****** ******

 HEAD WILL BE SAVED ON UNIT   51 AT END OF TIME STEP    1, STRESS PERIOD    8
1
  VOLUMETRIC BUDGET FOR ENTIRE MODEL AT END OF TIME STEP    1, STRESS PERIOD   8
  ------------------------------------------------------------------------------

     CUMULATIVE VOLUMES      L**3       RATES FOR THIS TIME STEP      L**3/T
     ------------------                 ------------------------

           IN:                                      IN:
           ---                                      ---
             STORAGE =    21000219.6223               STORAGE =        1482.6310
       CONSTANT HEAD =   881084514.2766         CONSTANT HEAD =     1208906.3928
               WELLS =           0.0000                 WELLS =           0.0000
            RECHARGE =    17608800.0000              RECHARGE =       27600.0000
      STREAM LEAKAGE =           0.0000        STREAM LEAKAGE =           0.0000

            TOTAL IN =   919693533.8989              TOTAL IN =     1237989.0238

          OUT:                                     OUT:
          ----                                     ----
             STORAGE =     1032745.3189               STORAGE =        1985.5891
       CONSTANT HEAD =           0.0000         CONSTANT HEAD =           0.0000
               WELLS =    58855136.5000                 WELLS =       80000.0000
            RECHARGE =           0.0000              RECHARGE =           0.0000
      STREAM LEAKAGE =   859805655.4713        STREAM LEAKAGE =     1156003.4725

           TOTAL OUT =   919693537.2902             TOTAL OUT =     1237989.0616

            IN - OUT =          -3.3913              IN - OUT =      -3.7815E-02

 PERCENT DISCREPANCY =          -0.00     PERCENT DISCREPANCY =          -0.00






         TIME SUMMARY AT END OF TIME STEP    1 IN STRESS PERIOD    8
                    SECONDS     MINUTES      HOURS       DAYS        YEARS
                    -----------------------------------------------------------
   TIME STEP LENGTH 7.86240E+06 1.31040E+05  2184.0      91.000     0.24914    
 STRESS PERIOD TIME 7.86240E+06 1.31040E+05  2184.0      91.000     0.24914    
         TOTAL TIME 6.30720E+07 1.05120E+06  17520.      730.00      1.9986    
1
1
                            STRESS PERIOD NO.    9, LENGTH =   92.00000    
                            -----------------------------------------------

                              NUMBER OF TIME STEPS =     1

                               MULTIPLIER FOR DELT =     1.500

                            INITIAL TIME STEP SIZE =   92.00000    

 WELL NO.  LAYER   ROW   COL   STRESS RATE         
 --------------------------------------------------
      1      1      2     21     -0.4767E+05
      2      1     23     19     -0.3233E+05

      2 WELLS

                 RECHARGE =  5.000000E-04

 REUSING STREAM SEGMENT DATA FROM LAST STRESS PERIOD
 
 SOLVING FOR HEAD 


     6 CALLS TO PCG ROUTINE FOR TIME STEP   1 IN STRESS PERIOD    9
    23 TOTAL ITERATIONS

 OUTPUT CONTROL FOR STRESS PERIOD    9   TIME STEP    1
    SAVE BUDGET
    SAVE HEAD FOR ALL LAYERS
    PRINT HEAD FOR ALL LAYERS
 UBDSV2 SAVING "STREAMFLOW OUT  " ON UNIT  50 AT TIME STEP  1, STRESS PERIOD   9



 STREAM LISTING     PERIOD      9   STEP        1

 LAYER ROW COL. STREAM  RCH.  FLOW INTO     FLOW TO   FLOW OUT OF   OVRLND.     DIRECT     STREAM       STREAM     STREAM     STREAM   STREAMBED  STREAMBED
                SEG.NO.  NO.  STRM. RCH.    AQUIFER    STRM. RCH.    RUNOFF     PRECIP       ET          HEAD       DEPTH      WIDTH   CONDCTNC.   GRADIENT

   1   13    1     1     1    1.0000E+05 -2.7620E+04   1.2762E+05  0.000E+00  0.000E+00  0.000E+00  4.84177E+01  1.563E-01  2.000E+01  2.000E+04 -1.381E+00
   1   13    2     1     2    1.2762E+05 -3.7338E+04   1.6496E+05  0.000E+00  0.000E+00  0.000E+00  4.79658E+01  1.817E-01  2.000E+01  2.000E+04 -1.867E+00
   1   14    3     1     3    1.6496E+05 -3.2775E+04   1.9773E+05  0.000E+00  0.000E+00  0.000E+00  4.75136E+01  2.067E-01  2.000E+01  2.000E+04 -1.639E+00
   1   15    4     1     4    1.9773E+05 -3.1988E+04   2.2972E+05  0.000E+00  0.000E+00  0.000E+00  4.70577E+01  2.282E-01  2.000E+01  2.000E+04 -1.599E+00
   1   16    5     1     5    2.2972E+05 -3.3496E+04   2.6322E+05  0.000E+00  0.000E+00  0.000E+00  4.66008E+01  2.485E-01  2.000E+01  2.000E+04 -1.675E+00
   1   16    6     1     6    2.6322E+05 -2.9308E+04   2.9252E+05  0.000E+00  0.000E+00  0.000E+00  4.61421E+01  2.671E-01  2.000E+01  2.000E+04 -1.465E+00
   1   16    7     1     7    2.9252E+05 -2.9153E+04   3.2168E+05  0.000E+00  0.000E+00  0.000E+00  4.56813E+01  2.836E-01  2.000E+01  2.000E+04 -1.458E+00
   1   16    8     1     8    3.2168E+05 -2.9346E+04   3.5102E+05  0.000E+00  0.000E+00  0.000E+00  4.52200E+01  2.995E-01  2.000E+01  2.000E+04 -1.467E+00
   1   16    9     1     9    3.5102E+05 -2.9427E+04   3.8045E+05  0.000E+00  0.000E+00  0.000E+00  4.47581E+01  3.149E-01  2.000E+01  2.000E+04 -1.471E+00
   1   16   10     1    10    3.8045E+05 -2.9444E+04   4.0990E+05  0.000E+00  0.000E+00  0.000E+00  4.42958E+01  3.299E-01  2.000E+01  2.000E+04 -1.472E+00
   1   16   11     1    11    4.0990E+05 -3.0014E+04   4.3991E+05  0.000E+00  0.000E+00  0.000E+00  4.38332E+01  3.446E-01  2.000E+01  2.000E+04 -1.501E+00
   1   16   12     1    12    4.3991E+05 -3.5396E+04   4.7531E+05  0.000E+00  0.000E+00  0.000E+00  4.33716E+01  3.603E-01  2.000E+01  2.000E+04 -1.770E+00
   1   15   13     1    13    4.7531E+05 -3.4139E+04   5.0944E+05  0.000E+00  0.000E+00  0.000E+00  4.29105E+01  3.764E-01  2.000E+01  2.000E+04 -1.707E+00
   1   14   14     1    14    5.0944E+05 -3.4740E+04   5.4418E+05  0.000E+00  0.000E+00  0.000E+00  4.24488E+01  3.920E-01  2.000E+01  2.000E+04 -1.737E+00
   1   13   15     1    15    5.4418E+05 -3.6979E+04   5.8116E+05  0.000E+00  0.000E+00  0.000E+00  4.19874E+01  4.078E-01  2.000E+01  2.000E+04 -1.849E+00
   1   12   16     1    16    5.8116E+05 -4.3012E+04   6.2417E+05  0.000E+00  0.000E+00  0.000E+00  4.15273E+01  4.250E-01  2.000E+01  2.000E+04 -2.151E+00
   1   12   17     1    17    6.2417E+05 -3.3568E+04   6.5774E+05  0.000E+00  0.000E+00  0.000E+00  4.10660E+01  4.410E-01  2.000E+01  2.000E+04 -1.678E+00
   1   12   18     1    18    6.5774E+05 -3.1919E+04   6.8966E+05  0.000E+00  0.000E+00  0.000E+00  4.06021E+01  4.544E-01  2.000E+01  2.000E+04 -1.596E+00
   1   12   19     1    19    6.8966E+05 -3.5913E+04   7.2557E+05  0.000E+00  0.000E+00  0.000E+00  4.01384E+01  4.680E-01  2.000E+01  2.000E+04 -1.796E+00
   1   13   20     1    20    7.2557E+05 -2.6254E+04   7.5183E+05  0.000E+00  0.000E+00  0.000E+00  3.96734E+01  4.802E-01  2.000E+01  2.000E+04 -1.313E+00
   1   14   21     1    21    7.5183E+05 -1.9183E+04   7.7101E+05  0.000E+00  0.000E+00  0.000E+00  3.92049E+01  4.890E-01  2.000E+01  2.000E+04 -9.592E-01
   1   14   22     1    22    7.7101E+05 -1.5676E+03   7.7258E+05  0.000E+00  0.000E+00  0.000E+00  3.87316E+01  4.930E-01  2.000E+01  2.000E+04 -7.838E-02
   1    9   30     2     1    5.0000E+04 -2.6331E+04   7.6331E+04  0.000E+00  0.000E+00  0.000E+00  4.02583E+01  1.333E-01  2.000E+01  2.000E+04 -1.317E+00
   1    9   29     2     2    7.6331E+04 -2.8776E+04   1.0511E+05  0.000E+00  0.000E+00  0.000E+00  4.00406E+01  1.656E-01  2.000E+01  2.000E+04 -1.439E+00
   1    9   28     2     3    1.0511E+05 -3.3002E+04   1.3811E+05  0.000E+00  0.000E+00  0.000E+00  3.98225E+01  1.975E-01  2.000E+01  2.000E+04 -1.650E+00
   1    9   27     2     4    1.3811E+05 -4.6934E+04   1.8504E+05  0.000E+00  0.000E+00  0.000E+00  3.96092E+01  2.342E-01  2.000E+01  2.000E+04 -2.347E+00
   1   10   26     2     5    1.8504E+05 -3.2940E+04   2.1798E+05  0.000E+00  0.000E+00  0.000E+00  3.93924E+01  2.674E-01  2.000E+01  2.000E+04 -1.647E+00
   1   11   25     2     6    2.1798E+05 -2.4649E+04   2.4263E+05  0.000E+00  0.000E+00  0.000E+00  3.91647E+01  2.897E-01  2.000E+01  2.000E+04 -1.232E+00
   1   12   24     2     7    2.4263E+05 -1.8161E+04   2.6079E+05  0.000E+00  0.000E+00  0.000E+00  3.89306E+01  3.056E-01  2.000E+01  2.000E+04 -9.080E-01
   1   13   23     2     8    2.6079E+05 -1.2898E+04   2.7369E+05  0.000E+00  0.000E+00  0.000E+00  3.86917E+01  3.167E-01  2.000E+01  2.000E+04 -6.449E-01
   1   14   22     2     9    2.7369E+05 -7.2228E+03   2.8091E+05  0.000E+00  0.000E+00  0.000E+00  3.84489E+01  3.239E-01  2.000E+01  2.000E+04 -3.611E-01
   1   14   22     3     1    1.0535E+06 -1.5185E+04   1.0687E+06  0.000E+00  0.000E+00  0.000E+00  3.80507E+01  4.952E-01  2.000E+01  2.000E+04 -7.593E-01
   1   15   23     3     2    1.0687E+06 -2.3186E+04   1.0919E+06  0.000E+00  0.000E+00  0.000E+00  3.71672E+01  5.005E-01  2.000E+01  2.000E+04 -1.159E+00
   1   15   24     3     3    1.0919E+06 -1.9394E+04   1.1113E+06  0.000E+00  0.000E+00  0.000E+00  3.62842E+01  5.064E-01  2.000E+01  2.000E+04 -9.697E-01
   1   15   25     3     4    1.1113E+06 -1.9068E+04   1.1303E+06  0.000E+00  0.000E+00  0.000E+00  3.54006E+01  5.117E-01  2.000E+01  2.000E+04 -9.534E-01
   1   15   26     3     5    1.1303E+06 -2.1864E+04   1.1522E+06  0.000E+00  0.000E+00  0.000E+00  3.45173E+01  5.173E-01  2.000E+01  2.000E+04 -1.093E+00
   1   16   27     3     6    1.1522E+06 -2.8964E+04   1.1812E+06  0.000E+00  0.000E+00  0.000E+00  3.36353E+01  5.242E-01  2.000E+01  2.000E+04 -1.448E+00
   1   17   28     3     7    1.1812E+06 -3.6023E+04   1.2172E+06  0.000E+00  0.000E+00  0.000E+00  3.27551E+01  5.329E-01  2.000E+01  2.000E+04 -1.801E+00
   1   18   29     3     8    1.2172E+06 -4.7037E+04   1.2642E+06  0.000E+00  0.000E+00  0.000E+00  3.18772E+01  5.439E-01  2.000E+01  2.000E+04 -2.352E+00
   1   18   30     3     9    1.2642E+06 -4.3551E+04   1.3078E+06  0.000E+00  0.000E+00  0.000E+00  3.10001E+01  5.557E-01  2.000E+01  2.000E+04 -2.178E+00



1
              HEAD IN LAYER   1 AT END OF TIME STEP   1 IN STRESS PERIOD    9
  ---------------------------------------------------------------------------

          1      2      3      4      5      6      7      8      9     10
         11     12     13     14     15     16     17     18     19     20
         21     22     23     24     25     26     27     28     29     30
 .........................................................................
   1  ****** ****** ****** ****** ****** ****** ****** ****** ****** ******
      ****** ****** ****** ****** ****** ****** ****** ****** ****** ******
      ****** ****** ****** ****** ****** ****** ****** ****** ****** ******
   2  ****** ****** ****** ****** ****** ****** ****** ****** ****** ******
      ****** ****** ****** ****** ****** ****** ****** ****** ****** ******
      ****** ****** ****** ****** ****** ****** ****** ****** ****** ******
   3  ****** ****** ****** ****** ****** ****** ****** ****** ****** ******
      ****** ****** ****** ****** ****** ****** ****** ****** ****** ******
      ****** ****** ****** ****** ****** ****** ****** ****** ****** ******
   4  ****** ****** ****** ****** ****** ****** ****** ****** ****** ******
      ****** ****** ****** ****** ****** ****** ****** ****** ****** ******
      ****** ****** ****** ****** ****** ****** ****** ****** ****** ******
   5  ****** ****** ****** ****** ****** ****** ****** ****** ****** ******
      ****** ****** ****** ****** ****** ****** ****** ****** ****** ******
      ****** ****** ****** ****** ****** ****** ****** ****** ****** ******
   6  ****** ****** ****** ****** ****** ****** ****** ****** ****** ******
      ****** ****** ****** ****** ****** ****** ****** ****** ****** ******
      ****** ****** ****** ****** ****** ****** ****** ****** ****** ******
   7  ****** ****** ****** ****** ****** ****** ****** ****** ****** ******
      ****** ****** ****** ****** ****** ****** ****** ****** ****** ******
      ****** ****** ****** ****** ****** ****** ****** ****** ****** ******
   8  ****** ****** ****** ****** ****** ****** ****** ****** ****** ******
      ****** ****** ****** ****** ****** ****** ****** ****** ****** ******
      ****** ****** ****** ****** ****** ****** ****** ****** ****** ******
   9  ****** ****** ****** ****** ****** ****** ****** ****** ****** ******
      ****** ****** ****** ****** ****** ****** ****** ****** ****** ******
      ****** ****** ****** ****** ****** ****** ****** ****** ****** ******
  10  ****** ****** ****** ****** ****** ****** ****** ****** ****** ******
      ****** ****** ****** ****** ****** ****** ****** ****** ****** ******
      ****** ****** ****** ****** ****** ****** ****** ****** ****** ******
  11  ****** ****** ****** ****** ****** ****** ****** ****** ****** ******
      ****** ****** ****** ****** ****** ****** ****** ****** ****** ******
      ****** ****** ****** ****** ****** ****** ****** ****** ****** ******
  12  ****** ****** ****** ****** ****** ****** ****** ****** ****** ******
      ****** ****** ****** ****** ****** ****** ****** ****** ****** ******
      ****** ****** ****** ****** ****** ****** ****** ****** ****** ******
  13  ****** ****** ****** ****** ****** ****** ****** ****** ****** ******
      ****** ****** ****** ****** ****** ****** ****** ****** ****** ******
      ****** ****** ****** ****** ****** ****** ****** ****** ****** ******
  14  ****** ****** ****** ****** ****** ****** ****** ****** ****** ******
      ****** ****** ****** ****** ****** ****** ****** ****** ****** ******
      ****** ****** ****** ****** ****** ****** ****** ****** ****** ******
  15  ****** ****** ****** ****** ****** ****** ****** ****** ****** ******
      ****** ****** ****** ****** ****** ****** ****** ****** ****** ******
      ****** ****** ****** ****** ****** ****** ****** ****** ****** ******
  16  ****** ****** ****** ****** ****** ****** ****** ****** ****** ******
      ****** ****** ****** ****** ****** ****** ****** ****** ****** ******
      ****** ****** ****** ****** ****** ****** ****** ****** ****** ******
  17  ****** ****** ****** ****** ****** ****** ****** ****** ****** ******
      ****** ****** ****** ****** ****** ****** ****** ****** ****** ******
      ****** ****** ****** ****** ****** ****** ****** ****** ****** ******
  18  ****** ****** ****** ****** ****** ****** ****** ****** ****** ******
      ****** ****** ****** ****** ****** ****** ****** ****** ****** ******
      ****** ****** ****** ****** ****** ****** ****** ****** ****** ******
  19  ****** ****** ****** ****** ****** ****** ****** ****** ****** ******
      ****** ****** ****** ****** ****** ****** ****** ****** ****** ******
      ****** ****** ****** ****** ****** ****** ****** ****** ****** ******
  20  ****** ****** ****** ****** ****** ****** ****** ****** ****** ******
      ****** ****** ****** ****** ****** ****** ****** ****** ****** ******
      ****** ****** ****** ****** ****** ****** ****** ****** ****** ******
  21  ****** ****** ****** ****** ****** ****** ****** ****** ****** ******
      ****** ****** ****** ****** ****** ****** ****** ****** ****** ******
      ****** ****** ****** ****** ****** ****** ****** ****** ****** ******
  22  ****** ****** ****** ****** ****** ****** ****** ****** ****** ******
      ****** ****** ****** ****** ****** ****** ****** ****** ****** ******
      ****** ****** ****** ****** ****** ****** ****** ****** ****** ******
  23  ****** ****** ****** ****** ****** ****** ****** ****** ****** ******
      ****** ****** ****** ****** ****** ****** ****** ****** ****** ******
      ****** ****** ****** ****** ****** ****** ****** ****** ****** ******
  24  ****** ****** ****** ****** ****** ****** ****** ****** ****** ******
      ****** ****** ****** ****** ****** ****** ****** ****** ****** ******
      ****** ****** ****** ****** ****** ****** ****** ****** ****** ******
  25  ****** ****** ****** ****** ****** ****** ****** ****** ****** ******
      ****** ****** ****** ****** ****** ****** ****** ****** ****** ******
      ****** ****** ****** ****** ****** ****** ****** ****** ****** ******

 HEAD WILL BE SAVED ON UNIT   51 AT END OF TIME STEP    1, STRESS PERIOD    9
1
  VOLUMETRIC BUDGET FOR ENTIRE MODEL AT END OF TIME STEP    1, STRESS PERIOD   9
  ------------------------------------------------------------------------------

     CUMULATIVE VOLUMES      L**3       RATES FOR THIS TIME STEP      L**3/T
     ------------------                 ------------------------

           IN:                                      IN:
           ---                                      ---
             STORAGE =    21135112.0318               STORAGE =        1466.2218
       CONSTANT HEAD =   993697012.4142         CONSTANT HEAD =     1224048.8928
               WELLS =           0.0000                 WELLS =           0.0000
            RECHARGE =    18878400.0000              RECHARGE =       13800.0000
      STREAM LEAKAGE =           0.0000        STREAM LEAKAGE =           0.0000

            TOTAL IN =  1033710524.4460              TOTAL IN =     1239315.1146

          OUT:                                     OUT:
          ----                                     ----
             STORAGE =     1175211.9609               STORAGE =        1548.5505
       CONSTANT HEAD =           0.0000         CONSTANT HEAD =           0.0000
               WELLS =    66215136.5000                 WELLS =       80000.0000
            RECHARGE =           0.0000              RECHARGE =           0.0000
      STREAM LEAKAGE =   966320175.2866        STREAM LEAKAGE =     1157766.5197

           TOTAL OUT =  1033710523.7475             TOTAL OUT =     1239315.0702

            IN - OUT =           0.6985              IN - OUT =       4.4455E-02

 PERCENT DISCREPANCY =           0.00     PERCENT DISCREPANCY =           0.00






         TIME SUMMARY AT END OF TIME STEP    1 IN STRESS PERIOD    9
                    SECONDS     MINUTES      HOURS       DAYS        YEARS
                    -----------------------------------------------------------
   TIME STEP LENGTH 7.94880E+06 1.32480E+05  2208.0      92.000     0.25188    
 STRESS PERIOD TIME 7.94880E+06 1.32480E+05  2208.0      92.000     0.25188    
         TOTAL TIME 7.10208E+07 1.18368E+06  19728.      822.00      2.2505    
1
1
                            STRESS PERIOD NO.   10, LENGTH =   91.00000    
                            -----------------------------------------------

                              NUMBER OF TIME STEPS =     1

                               MULTIPLIER FOR DELT =     1.500

                            INITIAL TIME STEP SIZE =   91.00000    

 WELL NO.  LAYER   ROW   COL   STRESS RATE         
 --------------------------------------------------
      1      1      2     21     -0.4767E+05
      2      1     23     19       0.000    
      3      1     20      2     -0.3483E+05

      3 WELLS

                 RECHARGE =  2.000000E-03

 REUSING STREAM SEGMENT DATA FROM LAST STRESS PERIOD
 
 SOLVING FOR HEAD 


     6 CALLS TO PCG ROUTINE FOR TIME STEP   1 IN STRESS PERIOD   10
    22 TOTAL ITERATIONS

 OUTPUT CONTROL FOR STRESS PERIOD   10   TIME STEP    1
    SAVE BUDGET
    SAVE HEAD FOR ALL LAYERS
    PRINT HEAD FOR ALL LAYERS
 UBDSV2 SAVING "STREAMFLOW OUT  " ON UNIT  50 AT TIME STEP  1, STRESS PERIOD  10



 STREAM LISTING     PERIOD     10   STEP        1

 LAYER ROW COL. STREAM  RCH.  FLOW INTO     FLOW TO   FLOW OUT OF   OVRLND.     DIRECT     STREAM       STREAM     STREAM     STREAM   STREAMBED  STREAMBED
                SEG.NO.  NO.  STRM. RCH.    AQUIFER    STRM. RCH.    RUNOFF     PRECIP       ET          HEAD       DEPTH      WIDTH   CONDCTNC.   GRADIENT

   1   13    1     1     1    1.0000E+05 -2.7111E+04   1.2711E+05  0.000E+00  0.000E+00  0.000E+00  4.84175E+01  1.561E-01  2.000E+01  2.000E+04 -1.356E+00
   1   13    2     1     2    1.2711E+05 -3.7064E+04   1.6417E+05  0.000E+00  0.000E+00  0.000E+00  4.79653E+01  1.813E-01  2.000E+01  2.000E+04 -1.853E+00
   1   14    3     1     3    1.6417E+05 -3.1609E+04   1.9578E+05  0.000E+00  0.000E+00  0.000E+00  4.75126E+01  2.058E-01  2.000E+01  2.000E+04 -1.580E+00
   1   15    4     1     4    1.9578E+05 -3.0163E+04   2.2595E+05  0.000E+00  0.000E+00  0.000E+00  4.70559E+01  2.263E-01  2.000E+01  2.000E+04 -1.508E+00
   1   16    5     1     5    2.2595E+05 -3.1175E+04   2.5712E+05  0.000E+00  0.000E+00  0.000E+00  4.65978E+01  2.455E-01  2.000E+01  2.000E+04 -1.559E+00
   1   16    6     1     6    2.5712E+05 -2.8283E+04   2.8540E+05  0.000E+00  0.000E+00  0.000E+00  4.61382E+01  2.632E-01  2.000E+01  2.000E+04 -1.414E+00
   1   16    7     1     7    2.8540E+05 -2.8699E+04   3.1410E+05  0.000E+00  0.000E+00  0.000E+00  4.56772E+01  2.795E-01  2.000E+01  2.000E+04 -1.435E+00
   1   16    8     1     8    3.1410E+05 -2.9243E+04   3.4334E+05  0.000E+00  0.000E+00  0.000E+00  4.52159E+01  2.954E-01  2.000E+01  2.000E+04 -1.462E+00
   1   16    9     1     9    3.4334E+05 -2.9569E+04   3.7291E+05  0.000E+00  0.000E+00  0.000E+00  4.47542E+01  3.110E-01  2.000E+01  2.000E+04 -1.478E+00
   1   16   10     1    10    3.7291E+05 -2.9772E+04   4.0269E+05  0.000E+00  0.000E+00  0.000E+00  4.42921E+01  3.262E-01  2.000E+01  2.000E+04 -1.489E+00
   1   16   11     1    11    4.0269E+05 -3.0512E+04   4.3320E+05  0.000E+00  0.000E+00  0.000E+00  4.38298E+01  3.412E-01  2.000E+01  2.000E+04 -1.526E+00
   1   16   12     1    12    4.3320E+05 -3.6194E+04   4.6939E+05  0.000E+00  0.000E+00  0.000E+00  4.33686E+01  3.573E-01  2.000E+01  2.000E+04 -1.810E+00
   1   15   13     1    13    4.6939E+05 -3.5095E+04   5.0449E+05  0.000E+00  0.000E+00  0.000E+00  4.29080E+01  3.739E-01  2.000E+01  2.000E+04 -1.755E+00
   1   14   14     1    14    5.0449E+05 -3.5730E+04   5.4022E+05  0.000E+00  0.000E+00  0.000E+00  4.24469E+01  3.900E-01  2.000E+01  2.000E+04 -1.786E+00
   1   13   15     1    15    5.4022E+05 -3.7926E+04   5.7814E+05  0.000E+00  0.000E+00  0.000E+00  4.19859E+01  4.063E-01  2.000E+01  2.000E+04 -1.896E+00
   1   12   16     1    16    5.7814E+05 -4.3853E+04   6.2200E+05  0.000E+00  0.000E+00  0.000E+00  4.15262E+01  4.239E-01  2.000E+01  2.000E+04 -2.193E+00
   1   12   17     1    17    6.2200E+05 -3.4290E+04   6.5628E+05  0.000E+00  0.000E+00  0.000E+00  4.10652E+01  4.402E-01  2.000E+01  2.000E+04 -1.714E+00
   1   12   18     1    18    6.5628E+05 -3.2623E+04   6.8891E+05  0.000E+00  0.000E+00  0.000E+00  4.06016E+01  4.539E-01  2.000E+01  2.000E+04 -1.631E+00
   1   12   19     1    19    6.8891E+05 -3.6664E+04   7.2557E+05  0.000E+00  0.000E+00  0.000E+00  4.01383E+01  4.678E-01  2.000E+01  2.000E+04 -1.833E+00
   1   13   20     1    20    7.2557E+05 -2.7092E+04   7.5266E+05  0.000E+00  0.000E+00  0.000E+00  3.96735E+01  4.803E-01  2.000E+01  2.000E+04 -1.355E+00
   1   14   21     1    21    7.5266E+05 -2.0067E+04   7.7273E+05  0.000E+00  0.000E+00  0.000E+00  3.92054E+01  4.895E-01  2.000E+01  2.000E+04 -1.003E+00
   1   14   22     1    22    7.7273E+05 -1.8941E+03   7.7462E+05  0.000E+00  0.000E+00  0.000E+00  3.87323E+01  4.937E-01  2.000E+01  2.000E+04 -9.470E-02
   1    9   30     2     1    5.0000E+04 -2.6780E+04   7.6780E+04  0.000E+00  0.000E+00  0.000E+00  4.02586E+01  1.336E-01  2.000E+01  2.000E+04 -1.339E+00
   1    9   29     2     2    7.6780E+04 -2.9224E+04   1.0600E+05  0.000E+00  0.000E+00  0.000E+00  4.00414E+01  1.664E-01  2.000E+01  2.000E+04 -1.461E+00
   1    9   28     2     3    1.0600E+05 -3.3466E+04   1.3947E+05  0.000E+00  0.000E+00  0.000E+00  3.98236E+01  1.986E-01  2.000E+01  2.000E+04 -1.673E+00
   1    9   27     2     4    1.3947E+05 -4.7502E+04   1.8697E+05  0.000E+00  0.000E+00  0.000E+00  3.96106E+01  2.356E-01  2.000E+01  2.000E+04 -2.375E+00
   1   10   26     2     5    1.8697E+05 -3.3532E+04   2.2050E+05  0.000E+00  0.000E+00  0.000E+00  3.93942E+01  2.692E-01  2.000E+01  2.000E+04 -1.677E+00
   1   11   25     2     6    2.2050E+05 -2.5224E+04   2.4573E+05  0.000E+00  0.000E+00  0.000E+00  3.91668E+01  2.918E-01  2.000E+01  2.000E+04 -1.261E+00
   1   12   24     2     7    2.4573E+05 -1.8685E+04   2.6441E+05  0.000E+00  0.000E+00  0.000E+00  3.89330E+01  3.080E-01  2.000E+01  2.000E+04 -9.342E-01
   1   13   23     2     8    2.6441E+05 -1.3349E+04   2.7776E+05  0.000E+00  0.000E+00  0.000E+00  3.86945E+01  3.195E-01  2.000E+01  2.000E+04 -6.675E-01
   1   14   22     2     9    2.7776E+05 -7.5048E+03   2.8527E+05  0.000E+00  0.000E+00  0.000E+00  3.84518E+01  3.268E-01  2.000E+01  2.000E+04 -3.752E-01
   1   14   22     3     1    1.0599E+06 -1.5490E+04   1.0754E+06  0.000E+00  0.000E+00  0.000E+00  3.80526E+01  4.970E-01  2.000E+01  2.000E+04 -7.745E-01
   1   15   23     3     2    1.0754E+06 -2.4072E+04   1.0995E+06  0.000E+00  0.000E+00  0.000E+00  3.71692E+01  5.025E-01  2.000E+01  2.000E+04 -1.204E+00
   1   15   24     3     3    1.0995E+06 -2.0040E+04   1.1195E+06  0.000E+00  0.000E+00  0.000E+00  3.62864E+01  5.086E-01  2.000E+01  2.000E+04 -1.002E+00
   1   15   25     3     4    1.1195E+06 -1.9636E+04   1.1391E+06  0.000E+00  0.000E+00  0.000E+00  3.54029E+01  5.140E-01  2.000E+01  2.000E+04 -9.818E-01
   1   15   26     3     5    1.1391E+06 -2.2442E+04   1.1616E+06  0.000E+00  0.000E+00  0.000E+00  3.45198E+01  5.198E-01  2.000E+01  2.000E+04 -1.122E+00
   1   16   27     3     6    1.1616E+06 -2.9700E+04   1.1913E+06  0.000E+00  0.000E+00  0.000E+00  3.36379E+01  5.268E-01  2.000E+01  2.000E+04 -1.485E+00
   1   17   28     3     7    1.1913E+06 -3.6776E+04   1.2280E+06  0.000E+00  0.000E+00  0.000E+00  3.27579E+01  5.357E-01  2.000E+01  2.000E+04 -1.839E+00
   1   18   29     3     8    1.2280E+06 -4.7746E+04   1.2758E+06  0.000E+00  0.000E+00  0.000E+00  3.18802E+01  5.468E-01  2.000E+01  2.000E+04 -2.387E+00
   1   18   30     3     9    1.2758E+06 -4.4098E+04   1.3199E+06  0.000E+00  0.000E+00  0.000E+00  3.10032E+01  5.588E-01  2.000E+01  2.000E+04 -2.205E+00



1
              HEAD IN LAYER   1 AT END OF TIME STEP   1 IN STRESS PERIOD   10
  ---------------------------------------------------------------------------

          1      2      3      4      5      6      7      8      9     10
         11     12     13     14     15     16     17     18     19     20
         21     22     23     24     25     26     27     28     29     30
 .........................................................................
   1  ****** ****** ****** ****** ****** ****** ****** ****** ****** ******
      ****** ****** ****** ****** ****** ****** ****** ****** ****** ******
      ****** ****** ****** ****** ****** ****** ****** ****** ****** ******
   2  ****** ****** ****** ****** ****** ****** ****** ****** ****** ******
      ****** ****** ****** ****** ****** ****** ****** ****** ****** ******
      ****** ****** ****** ****** ****** ****** ****** ****** ****** ******
   3  ****** ****** ****** ****** ****** ****** ****** ****** ****** ******
      ****** ****** ****** ****** ****** ****** ****** ****** ****** ******
      ****** ****** ****** ****** ****** ****** ****** ****** ****** ******
   4  ****** ****** ****** ****** ****** ****** ****** ****** ****** ******
      ****** ****** ****** ****** ****** ****** ****** ****** ****** ******
      ****** ****** ****** ****** ****** ****** ****** ****** ****** ******
   5  ****** ****** ****** ****** ****** ****** ****** ****** ****** ******
      ****** ****** ****** ****** ****** ****** ****** ****** ****** ******
      ****** ****** ****** ****** ****** ****** ****** ****** ****** ******
   6  ****** ****** ****** ****** ****** ****** ****** ****** ****** ******
      ****** ****** ****** ****** ****** ****** ****** ****** ****** ******
      ****** ****** ****** ****** ****** ****** ****** ****** ****** ******
   7  ****** ****** ****** ****** ****** ****** ****** ****** ****** ******
      ****** ****** ****** ****** ****** ****** ****** ****** ****** ******
      ****** ****** ****** ****** ****** ****** ****** ****** ****** ******
   8  ****** ****** ****** ****** ****** ****** ****** ****** ****** ******
      ****** ****** ****** ****** ****** ****** ****** ****** ****** ******
      ****** ****** ****** ****** ****** ****** ****** ****** ****** ******
   9  ****** ****** ****** ****** ****** ****** ****** ****** ****** ******
      ****** ****** ****** ****** ****** ****** ****** ****** ****** ******
      ****** ****** ****** ****** ****** ****** ****** ****** ****** ******
  10  ****** ****** ****** ****** ****** ****** ****** ****** ****** ******
      ****** ****** ****** ****** ****** ****** ****** ****** ****** ******
      ****** ****** ****** ****** ****** ****** ****** ****** ****** ******
  11  ****** ****** ****** ****** ****** ****** ****** ****** ****** ******
      ****** ****** ****** ****** ****** ****** ****** ****** ****** ******
      ****** ****** ****** ****** ****** ****** ****** ****** ****** ******
  12  ****** ****** ****** ****** ****** ****** ****** ****** ****** ******
      ****** ****** ****** ****** ****** ****** ****** ****** ****** ******
      ****** ****** ****** ****** ****** ****** ****** ****** ****** ******
  13  ****** ****** ****** ****** ****** ****** ****** ****** ****** ******
      ****** ****** ****** ****** ****** ****** ****** ****** ****** ******
      ****** ****** ****** ****** ****** ****** ****** ****** ****** ******
  14  ****** ****** ****** ****** ****** ****** ****** ****** ****** ******
      ****** ****** ****** ****** ****** ****** ****** ****** ****** ******
      ****** ****** ****** ****** ****** ****** ****** ****** ****** ******
  15  ****** ****** ****** ****** ****** ****** ****** ****** ****** ******
      ****** ****** ****** ****** ****** ****** ****** ****** ****** ******
      ****** ****** ****** ****** ****** ****** ****** ****** ****** ******
  16  ****** ****** ****** ****** ****** ****** ****** ****** ****** ******
      ****** ****** ****** ****** ****** ****** ****** ****** ****** ******
      ****** ****** ****** ****** ****** ****** ****** ****** ****** ******
  17  ****** ****** ****** ****** ****** ****** ****** ****** ****** ******
      ****** ****** ****** ****** ****** ****** ****** ****** ****** ******
      ****** ****** ****** ****** ****** ****** ****** ****** ****** ******
  18  ****** ****** ****** ****** ****** ****** ****** ****** ****** ******
      ****** ****** ****** ****** ****** ****** ****** ****** ****** ******
      ****** ****** ****** ****** ****** ****** ****** ****** ****** ******
  19  ****** ****** ****** ****** ****** ****** ****** ****** ****** ******
      ****** ****** ****** ****** ****** ****** ****** ****** ****** ******
      ****** ****** ****** ****** ****** ****** ****** ****** ****** ******
  20  ****** ****** ****** ****** ****** ****** ****** ****** ****** ******
      ****** ****** ****** ****** ****** ****** ****** ****** ****** ******
      ****** ****** ****** ****** ****** ****** ****** ****** ****** ******
  21  ****** ****** ****** ****** ****** ****** ****** ****** ****** ******
      ****** ****** ****** ****** ****** ****** ****** ****** ****** ******
      ****** ****** ****** ****** ****** ****** ****** ****** ****** ******
  22  ****** ****** ****** ****** ****** ****** ****** ****** ****** ******
      ****** ****** ****** ****** ****** ****** ****** ****** ****** ******
      ****** ****** ****** ****** ****** ****** ****** ****** ****** ******
  23  ****** ****** ****** ****** ****** ****** ****** ****** ****** ******
      ****** ****** ****** ****** ****** ****** ****** ****** ****** ******
      ****** ****** ****** ****** ****** ****** ****** ****** ****** ******
  24  ****** ****** ****** ****** ****** ****** ****** ****** ****** ******
      ****** ****** ****** ****** ****** ****** ****** ****** ****** ******
      ****** ****** ****** ****** ****** ****** ****** ****** ****** ******
  25  ****** ****** ****** ****** ****** ****** ****** ****** ****** ******
      ****** ****** ****** ****** ****** ****** ****** ****** ****** ******
      ****** ****** ****** ****** ****** ****** ****** ****** ****** ******

 HEAD WILL BE SAVED ON UNIT   51 AT END OF TIME STEP    1, STRESS PERIOD   10
1
  VOLUMETRIC BUDGET FOR ENTIRE MODEL AT END OF TIME STEP    1, STRESS PERIOD  10
  ------------------------------------------------------------------------------

     CUMULATIVE VOLUMES      L**3       RATES FOR THIS TIME STEP      L**3/T
     ------------------                 ------------------------

           IN:                                      IN:
           ---                                      ---
             STORAGE =    21274676.0213               STORAGE =        1533.6702
       CONSTANT HEAD =  1102742889.1491         CONSTANT HEAD =     1198306.3377
               WELLS =           0.0000                 WELLS =           0.0000
            RECHARGE =    23901600.0000              RECHARGE =       55200.0000
      STREAM LEAKAGE =           0.0000        STREAM LEAKAGE =           0.0000

            TOTAL IN =  1147919165.1703              TOTAL IN =     1255040.0080

          OUT:                                     OUT:
          ----                                     ----
             STORAGE =     1416371.1785               STORAGE =        2650.1013
       CONSTANT HEAD =           0.0000         CONSTANT HEAD =           0.0000
               WELLS =    73722704.7500                 WELLS =       82500.7500
            RECHARGE =           0.0000              RECHARGE =           0.0000
      STREAM LEAKAGE =  1072780091.6745        STREAM LEAKAGE =     1169889.1911

           TOTAL OUT =  1147919167.6030             TOTAL OUT =     1255040.0424

            IN - OUT =          -2.4327              IN - OUT =      -3.4409E-02

 PERCENT DISCREPANCY =          -0.00     PERCENT DISCREPANCY =          -0.00






         TIME SUMMARY AT END OF TIME STEP    1 IN STRESS PERIOD   10
                    SECONDS     MINUTES      HOURS       DAYS        YEARS
                    -----------------------------------------------------------
   TIME STEP LENGTH 7.86240E+06 1.31040E+05  2184.0      91.000     0.24914    
 STRESS PERIOD TIME 7.86240E+06 1.31040E+05  2184.0      91.000     0.24914    
         TOTAL TIME 7.88832E+07 1.31472E+06  21912.      913.00      2.4997    
1
1
                            STRESS PERIOD NO.   11, LENGTH =   91.00000    
                            -----------------------------------------------

                              NUMBER OF TIME STEPS =     1

                               MULTIPLIER FOR DELT =     1.500

                            INITIAL TIME STEP SIZE =   91.00000    

 WELL NO.  LAYER   ROW   COL   STRESS RATE         
 --------------------------------------------------
      1      1      2     21     -0.4767E+05
      2      1     23     19     -0.3233E+05

      2 WELLS

                 RECHARGE =   0.00000    

 REUSING STREAM SEGMENT DATA FROM LAST STRESS PERIOD
 
 SOLVING FOR HEAD 


     6 CALLS TO PCG ROUTINE FOR TIME STEP   1 IN STRESS PERIOD   11
    22 TOTAL ITERATIONS

 OUTPUT CONTROL FOR STRESS PERIOD   11   TIME STEP    1
    SAVE BUDGET
    SAVE HEAD FOR ALL LAYERS
    PRINT HEAD FOR ALL LAYERS
 UBDSV2 SAVING "STREAMFLOW OUT  " ON UNIT  50 AT TIME STEP  1, STRESS PERIOD  11



 STREAM LISTING     PERIOD     11   STEP        1

 LAYER ROW COL. STREAM  RCH.  FLOW INTO     FLOW TO   FLOW OUT OF   OVRLND.     DIRECT     STREAM       STREAM     STREAM     STREAM   STREAMBED  STREAMBED
                SEG.NO.  NO.  STRM. RCH.    AQUIFER    STRM. RCH.    RUNOFF     PRECIP       ET          HEAD       DEPTH      WIDTH   CONDCTNC.   GRADIENT

   1   13    1     1     1    1.0000E+05 -2.7420E+04   1.2742E+05  0.000E+00  0.000E+00  0.000E+00  4.84176E+01  1.562E-01  2.000E+01  2.000E+04 -1.371E+00
   1   13    2     1     2    1.2742E+05 -3.7102E+04   1.6452E+05  0.000E+00  0.000E+00  0.000E+00  4.79656E+01  1.815E-01  2.000E+01  2.000E+04 -1.855E+00
   1   14    3     1     3    1.6452E+05 -3.2538E+04   1.9706E+05  0.000E+00  0.000E+00  0.000E+00  4.75132E+01  2.064E-01  2.000E+01  2.000E+04 -1.627E+00
   1   15    4     1     4    1.9706E+05 -3.1755E+04   2.2881E+05  0.000E+00  0.000E+00  0.000E+00  4.70572E+01  2.277E-01  2.000E+01  2.000E+04 -1.588E+00
   1   16    5     1     5    2.2881E+05 -3.3281E+04   2.6210E+05  0.000E+00  0.000E+00  0.000E+00  4.66002E+01  2.479E-01  2.000E+01  2.000E+04 -1.664E+00
   1   16    6     1     6    2.6210E+05 -2.9125E+04   2.9122E+05  0.000E+00  0.000E+00  0.000E+00  4.61414E+01  2.664E-01  2.000E+01  2.000E+04 -1.456E+00
   1   16    7     1     7    2.9122E+05 -2.8975E+04   3.2019E+05  0.000E+00  0.000E+00  0.000E+00  4.56805E+01  2.828E-01  2.000E+01  2.000E+04 -1.449E+00
   1   16    8     1     8    3.2019E+05 -2.9168E+04   3.4936E+05  0.000E+00  0.000E+00  0.000E+00  4.52191E+01  2.987E-01  2.000E+01  2.000E+04 -1.458E+00
   1   16    9     1     9    3.4936E+05 -2.9251E+04   3.7861E+05  0.000E+00  0.000E+00  0.000E+00  4.47572E+01  3.140E-01  2.000E+01  2.000E+04 -1.463E+00
   1   16   10     1    10    3.7861E+05 -2.9269E+04   4.0788E+05  0.000E+00  0.000E+00  0.000E+00  4.42949E+01  3.289E-01  2.000E+01  2.000E+04 -1.463E+00
   1   16   11     1    11    4.0788E+05 -2.9837E+04   4.3772E+05  0.000E+00  0.000E+00  0.000E+00  4.38322E+01  3.436E-01  2.000E+01  2.000E+04 -1.492E+00
   1   16   12     1    12    4.3772E+05 -3.5190E+04   4.7291E+05  0.000E+00  0.000E+00  0.000E+00  4.33705E+01  3.592E-01  2.000E+01  2.000E+04 -1.759E+00
   1   15   13     1    13    4.7291E+05 -3.3914E+04   5.0682E+05  0.000E+00  0.000E+00  0.000E+00  4.29094E+01  3.753E-01  2.000E+01  2.000E+04 -1.696E+00
   1   14   14     1    14    5.0682E+05 -3.4508E+04   5.4133E+05  0.000E+00  0.000E+00  0.000E+00  4.24476E+01  3.908E-01  2.000E+01  2.000E+04 -1.725E+00
   1   13   15     1    15    5.4133E+05 -3.6750E+04   5.7808E+05  0.000E+00  0.000E+00  0.000E+00  4.19861E+01  4.065E-01  2.000E+01  2.000E+04 -1.837E+00
   1   12   16     1    16    5.7808E+05 -4.2791E+04   6.2087E+05  0.000E+00  0.000E+00  0.000E+00  4.15259E+01  4.236E-01  2.000E+01  2.000E+04 -2.140E+00
   1   12   17     1    17    6.2087E+05 -3.3389E+04   6.5426E+05  0.000E+00  0.000E+00  0.000E+00  4.10646E+01  4.396E-01  2.000E+01  2.000E+04 -1.669E+00
   1   12   18     1    18    6.5426E+05 -3.1748E+04   6.8601E+05  0.000E+00  0.000E+00  0.000E+00  4.06006E+01  4.529E-01  2.000E+01  2.000E+04 -1.587E+00
   1   12   19     1    19    6.8601E+05 -3.5725E+04   7.2173E+05  0.000E+00  0.000E+00  0.000E+00  4.01369E+01  4.665E-01  2.000E+01  2.000E+04 -1.786E+00
   1   13   20     1    20    7.2173E+05 -2.6077E+04   7.4781E+05  0.000E+00  0.000E+00  0.000E+00  3.96718E+01  4.786E-01  2.000E+01  2.000E+04 -1.304E+00
   1   14   21     1    21    7.4781E+05 -1.9030E+04   7.6684E+05  0.000E+00  0.000E+00  0.000E+00  3.92033E+01  4.874E-01  2.000E+01  2.000E+04 -9.515E-01
   1   14   22     1    22    7.6684E+05 -1.5132E+03   7.6836E+05  0.000E+00  0.000E+00  0.000E+00  3.87300E+01  4.914E-01  2.000E+01  2.000E+04 -7.566E-02
   1    9   30     2     1    5.0000E+04 -2.6191E+04   7.6191E+04  0.000E+00  0.000E+00  0.000E+00  4.02582E+01  1.332E-01  2.000E+01  2.000E+04 -1.310E+00
   1    9   29     2     2    7.6191E+04 -2.8636E+04   1.0483E+05  0.000E+00  0.000E+00  0.000E+00  4.00404E+01  1.654E-01  2.000E+01  2.000E+04 -1.432E+00
   1    9   28     2     3    1.0483E+05 -3.2858E+04   1.3768E+05  0.000E+00  0.000E+00  0.000E+00  3.98221E+01  1.971E-01  2.000E+01  2.000E+04 -1.643E+00
   1    9   27     2     4    1.3768E+05 -4.6759E+04   1.8444E+05  0.000E+00  0.000E+00  0.000E+00  3.96088E+01  2.338E-01  2.000E+01  2.000E+04 -2.338E+00
   1   10   26     2     5    1.8444E+05 -3.2758E+04   2.1720E+05  0.000E+00  0.000E+00  0.000E+00  3.93918E+01  2.668E-01  2.000E+01  2.000E+04 -1.638E+00
   1   11   25     2     6    2.1720E+05 -2.4473E+04   2.4167E+05  0.000E+00  0.000E+00  0.000E+00  3.91640E+01  2.890E-01  2.000E+01  2.000E+04 -1.224E+00
   1   12   24     2     7    2.4167E+05 -1.8003E+04   2.5968E+05  0.000E+00  0.000E+00  0.000E+00  3.89298E+01  3.048E-01  2.000E+01  2.000E+04 -9.001E-01
   1   13   23     2     8    2.5968E+05 -1.2770E+04   2.7245E+05  0.000E+00  0.000E+00  0.000E+00  3.86909E+01  3.159E-01  2.000E+01  2.000E+04 -6.385E-01
   1   14   22     2     9    2.7245E+05 -7.1542E+03   2.7960E+05  0.000E+00  0.000E+00  0.000E+00  3.84480E+01  3.230E-01  2.000E+01  2.000E+04 -3.577E-01
   1   14   22     3     1    1.0480E+06 -1.5130E+04   1.0631E+06  0.000E+00  0.000E+00  0.000E+00  3.80492E+01  4.936E-01  2.000E+01  2.000E+04 -7.565E-01
   1   15   23     3     2    1.0631E+06 -2.3043E+04   1.0861E+06  0.000E+00  0.000E+00  0.000E+00  3.71656E+01  4.989E-01  2.000E+01  2.000E+04 -1.152E+00
   1   15   24     3     3    1.0861E+06 -1.9275E+04   1.1054E+06  0.000E+00  0.000E+00  0.000E+00  3.62826E+01  5.048E-01  2.000E+01  2.000E+04 -9.637E-01
   1   15   25     3     4    1.1054E+06 -1.8949E+04   1.1244E+06  0.000E+00  0.000E+00  0.000E+00  3.53990E+01  5.101E-01  2.000E+01  2.000E+04 -9.474E-01
   1   15   26     3     5    1.1244E+06 -2.1725E+04   1.1461E+06  0.000E+00  0.000E+00  0.000E+00  3.45156E+01  5.156E-01  2.000E+01  2.000E+04 -1.086E+00
   1   16   27     3     6    1.1461E+06 -2.8797E+04   1.1749E+06  0.000E+00  0.000E+00  0.000E+00  3.36336E+01  5.225E-01  2.000E+01  2.000E+04 -1.440E+00
   1   17   28     3     7    1.1749E+06 -3.5852E+04   1.2107E+06  0.000E+00  0.000E+00  0.000E+00  3.27534E+01  5.312E-01  2.000E+01  2.000E+04 -1.793E+00
   1   18   29     3     8    1.2107E+06 -4.6877E+04   1.2576E+06  0.000E+00  0.000E+00  0.000E+00  3.18755E+01  5.422E-01  2.000E+01  2.000E+04 -2.344E+00
   1   18   30     3     9    1.2576E+06 -4.3416E+04   1.3010E+06  0.000E+00  0.000E+00  0.000E+00  3.09984E+01  5.540E-01  2.000E+01  2.000E+04 -2.171E+00



1
              HEAD IN LAYER   1 AT END OF TIME STEP   1 IN STRESS PERIOD   11
  ---------------------------------------------------------------------------

          1      2      3      4      5      6      7      8      9     10
         11     12     13     14     15     16     17     18     19     20
         21     22     23     24     25     26     27     28     29     30
 .........................................................................
   1  ****** ****** ****** ****** ****** ****** ****** ****** ****** ******
      ****** ****** ****** ****** ****** ****** ****** ****** ****** ******
      ****** ****** ****** ****** ****** ****** ****** ****** ****** ******
   2  ****** ****** ****** ****** ****** ****** ****** ****** ****** ******
      ****** ****** ****** ****** ****** ****** ****** ****** ****** ******
      ****** ****** ****** ****** ****** ****** ****** ****** ****** ******
   3  ****** ****** ****** ****** ****** ****** ****** ****** ****** ******
      ****** ****** ****** ****** ****** ****** ****** ****** ****** ******
      ****** ****** ****** ****** ****** ****** ****** ****** ****** ******
   4  ****** ****** ****** ****** ****** ****** ****** ****** ****** ******
      ****** ****** ****** ****** ****** ****** ****** ****** ****** ******
      ****** ****** ****** ****** ****** ****** ****** ****** ****** ******
   5  ****** ****** ****** ****** ****** ****** ****** ****** ****** ******
      ****** ****** ****** ****** ****** ****** ****** ****** ****** ******
      ****** ****** ****** ****** ****** ****** ****** ****** ****** ******
   6  ****** ****** ****** ****** ****** ****** ****** ****** ****** ******
      ****** ****** ****** ****** ****** ****** ****** ****** ****** ******
      ****** ****** ****** ****** ****** ****** ****** ****** ****** ******
   7  ****** ****** ****** ****** ****** ****** ****** ****** ****** ******
      ****** ****** ****** ****** ****** ****** ****** ****** ****** ******
      ****** ****** ****** ****** ****** ****** ****** ****** ****** ******
   8  ****** ****** ****** ****** ****** ****** ****** ****** ****** ******
      ****** ****** ****** ****** ****** ****** ****** ****** ****** ******
      ****** ****** ****** ****** ****** ****** ****** ****** ****** ******
   9  ****** ****** ****** ****** ****** ****** ****** ****** ****** ******
      ****** ****** ****** ****** ****** ****** ****** ****** ****** ******
      ****** ****** ****** ****** ****** ****** ****** ****** ****** ******
  10  ****** ****** ****** ****** ****** ****** ****** ****** ****** ******
      ****** ****** ****** ****** ****** ****** ****** ****** ****** ******
      ****** ****** ****** ****** ****** ****** ****** ****** ****** ******
  11  ****** ****** ****** ****** ****** ****** ****** ****** ****** ******
      ****** ****** ****** ****** ****** ****** ****** ****** ****** ******
      ****** ****** ****** ****** ****** ****** ****** ****** ****** ******
  12  ****** ****** ****** ****** ****** ****** ****** ****** ****** ******
      ****** ****** ****** ****** ****** ****** ****** ****** ****** ******
      ****** ****** ****** ****** ****** ****** ****** ****** ****** ******
  13  ****** ****** ****** ****** ****** ****** ****** ****** ****** ******
      ****** ****** ****** ****** ****** ****** ****** ****** ****** ******
      ****** ****** ****** ****** ****** ****** ****** ****** ****** ******
  14  ****** ****** ****** ****** ****** ****** ****** ****** ****** ******
      ****** ****** ****** ****** ****** ****** ****** ****** ****** ******
      ****** ****** ****** ****** ****** ****** ****** ****** ****** ******
  15  ****** ****** ****** ****** ****** ****** ****** ****** ****** ******
      ****** ****** ****** ****** ****** ****** ****** ****** ****** ******
      ****** ****** ****** ****** ****** ****** ****** ****** ****** ******
  16  ****** ****** ****** ****** ****** ****** ****** ****** ****** ******
      ****** ****** ****** ****** ****** ****** ****** ****** ****** ******
      ****** ****** ****** ****** ****** ****** ****** ****** ****** ******
  17  ****** ****** ****** ****** ****** ****** ****** ****** ****** ******
      ****** ****** ****** ****** ****** ****** ****** ****** ****** ******
      ****** ****** ****** ****** ****** ****** ****** ****** ****** ******
  18  ****** ****** ****** ****** ****** ****** ****** ****** ****** ******
      ****** ****** ****** ****** ****** ****** ****** ****** ****** ******
      ****** ****** ****** ****** ****** ****** ****** ****** ****** ******
  19  ****** ****** ****** ****** ****** ****** ****** ****** ****** ******
      ****** ****** ****** ****** ****** ****** ****** ****** ****** ******
      ****** ****** ****** ****** ****** ****** ****** ****** ****** ******
  20  ****** ****** ****** ****** ****** ****** ****** ****** ****** ******
      ****** ****** ****** ****** ****** ****** ****** ****** ****** ******
      ****** ****** ****** ****** ****** ****** ****** ****** ****** ******
  21  ****** ****** ****** ****** ****** ****** ****** ****** ****** ******
      ****** ****** ****** ****** ****** ****** ****** ****** ****** ******
      ****** ****** ****** ****** ****** ****** ****** ****** ****** ******
  22  ****** ****** ****** ****** ****** ****** ****** ****** ****** ******
      ****** ****** ****** ****** ****** ****** ****** ****** ****** ******
      ****** ****** ****** ****** ****** ****** ****** ****** ****** ******
  23  ****** ****** ****** ****** ****** ****** ****** ****** ****** ******
      ****** ****** ****** ****** ****** ****** ****** ****** ****** ******
      ****** ****** ****** ****** ****** ****** ****** ****** ****** ******
  24  ****** ****** ****** ****** ****** ****** ****** ****** ****** ******
      ****** ****** ****** ****** ****** ****** ****** ****** ****** ******
      ****** ****** ****** ****** ****** ****** ****** ****** ****** ******
  25  ****** ****** ****** ****** ****** ****** ****** ****** ****** ******
      ****** ****** ****** ****** ****** ****** ****** ****** ****** ******
      ****** ****** ****** ****** ****** ****** ****** ****** ****** ******

 HEAD WILL BE SAVED ON UNIT   51 AT END OF TIME STEP    1, STRESS PERIOD   11
1
  VOLUMETRIC BUDGET FOR ENTIRE MODEL AT END OF TIME STEP    1, STRESS PERIOD  11
  ------------------------------------------------------------------------------

     CUMULATIVE VOLUMES      L**3       RATES FOR THIS TIME STEP      L**3/T
     ------------------                 ------------------------

           IN:                                      IN:
           ---                                      ---
             STORAGE =    21562747.4165               STORAGE =        3165.6197
       CONSTANT HEAD =  1214610617.7885         CONSTANT HEAD =     1229315.6993
               WELLS =           0.0000                 WELLS =           0.0000
            RECHARGE =    23901600.0000              RECHARGE =           0.0000
      STREAM LEAKAGE =           0.0000        STREAM LEAKAGE =           0.0000

            TOTAL IN =  1260074965.2050              TOTAL IN =     1232481.3191

          OUT:                                     OUT:
          ----                                     ----
             STORAGE =     1549503.8628               STORAGE =        1462.9965
       CONSTANT HEAD =           0.0000         CONSTANT HEAD =           0.0000
               WELLS =    81002704.7500                 WELLS =       80000.0000
            RECHARGE =           0.0000              RECHARGE =           0.0000
      STREAM LEAKAGE =  1177522756.9968        STREAM LEAKAGE =     1151018.3002

           TOTAL OUT =  1260074965.6096             TOTAL OUT =     1232481.2968

            IN - OUT =          -0.4047              IN - OUT =       2.2286E-02

 PERCENT DISCREPANCY =          -0.00     PERCENT DISCREPANCY =           0.00






         TIME SUMMARY AT END OF TIME STEP    1 IN STRESS PERIOD   11
                    SECONDS     MINUTES      HOURS       DAYS        YEARS
                    -----------------------------------------------------------
   TIME STEP LENGTH 7.86240E+06 1.31040E+05  2184.0      91.000     0.24914    
 STRESS PERIOD TIME 7.86240E+06 1.31040E+05  2184.0      91.000     0.24914    
         TOTAL TIME 8.67456E+07 1.44576E+06  24096.      1004.0      2.7488    
1
1
                            STRESS PERIOD NO.   12, LENGTH =   91.00000    
                            -----------------------------------------------

                              NUMBER OF TIME STEPS =     1

                               MULTIPLIER FOR DELT =     1.500

                            INITIAL TIME STEP SIZE =   91.00000    

 WELL NO.  LAYER   ROW   COL   STRESS RATE         
 --------------------------------------------------
      1      1      2     21     -0.4767E+05
      2      1     23     19       0.000    
      3      1     20      2     -0.3233E+05

      3 WELLS

                 RECHARGE =  1.000000E-03

 REUSING STREAM SEGMENT DATA FROM LAST STRESS PERIOD
 
 SOLVING FOR HEAD 


     6 CALLS TO PCG ROUTINE FOR TIME STEP   1 IN STRESS PERIOD   12
    23 TOTAL ITERATIONS

 OUTPUT CONTROL FOR STRESS PERIOD   12   TIME STEP    1
    SAVE BUDGET
    SAVE HEAD FOR ALL LAYERS
    PRINT HEAD FOR ALL LAYERS
 UBDSV2 SAVING "STREAMFLOW OUT  " ON UNIT  50 AT TIME STEP  1, STRESS PERIOD  12



 STREAM LISTING     PERIOD     12   STEP        1

 LAYER ROW COL. STREAM  RCH.  FLOW INTO     FLOW TO   FLOW OUT OF   OVRLND.     DIRECT     STREAM       STREAM     STREAM     STREAM   STREAMBED  STREAMBED
                SEG.NO.  NO.  STRM. RCH.    AQUIFER    STRM. RCH.    RUNOFF     PRECIP       ET          HEAD       DEPTH      WIDTH   CONDCTNC.   GRADIENT

   1   13    1     1     1    1.0000E+05 -2.6745E+04   1.2675E+05  0.000E+00  0.000E+00  0.000E+00  4.84173E+01  1.560E-01  2.000E+01  2.000E+04 -1.337E+00
   1   13    2     1     2    1.2675E+05 -3.6601E+04   1.6335E+05  0.000E+00  0.000E+00  0.000E+00  4.79649E+01  1.808E-01  2.000E+01  2.000E+04 -1.830E+00
   1   14    3     1     3    1.6335E+05 -3.1226E+04   1.9457E+05  0.000E+00  0.000E+00  0.000E+00  4.75119E+01  2.051E-01  2.000E+01  2.000E+04 -1.561E+00
   1   15    4     1     4    1.9457E+05 -2.9849E+04   2.2442E+05  0.000E+00  0.000E+00  0.000E+00  4.70550E+01  2.254E-01  2.000E+01  2.000E+04 -1.492E+00
   1   16    5     1     5    2.2442E+05 -3.0944E+04   2.5537E+05  0.000E+00  0.000E+00  0.000E+00  4.65968E+01  2.445E-01  2.000E+01  2.000E+04 -1.547E+00
   1   16    6     1     6    2.5537E+05 -2.8008E+04   2.8337E+05  0.000E+00  0.000E+00  0.000E+00  4.61371E+01  2.621E-01  2.000E+01  2.000E+04 -1.400E+00
   1   16    7     1     7    2.8337E+05 -2.8386E+04   3.1176E+05  0.000E+00  0.000E+00  0.000E+00  4.56760E+01  2.783E-01  2.000E+01  2.000E+04 -1.419E+00
   1   16    8     1     8    3.1176E+05 -2.8904E+04   3.4066E+05  0.000E+00  0.000E+00  0.000E+00  4.52145E+01  2.941E-01  2.000E+01  2.000E+04 -1.445E+00
   1   16    9     1     9    3.4066E+05 -2.9213E+04   3.6988E+05  0.000E+00  0.000E+00  0.000E+00  4.47527E+01  3.095E-01  2.000E+01  2.000E+04 -1.461E+00
   1   16   10     1    10    3.6988E+05 -2.9406E+04   3.9928E+05  0.000E+00  0.000E+00  0.000E+00  4.42905E+01  3.246E-01  2.000E+01  2.000E+04 -1.470E+00
   1   16   11     1    11    3.9928E+05 -3.0134E+04   4.2942E+05  0.000E+00  0.000E+00  0.000E+00  4.38281E+01  3.394E-01  2.000E+01  2.000E+04 -1.507E+00
   1   16   12     1    12    4.2942E+05 -3.5746E+04   4.6516E+05  0.000E+00  0.000E+00  0.000E+00  4.33667E+01  3.554E-01  2.000E+01  2.000E+04 -1.787E+00
   1   15   13     1    13    4.6516E+05 -3.4590E+04   4.9975E+05  0.000E+00  0.000E+00  0.000E+00  4.29060E+01  3.719E-01  2.000E+01  2.000E+04 -1.729E+00
   1   14   14     1    14    4.9975E+05 -3.5204E+04   5.3496E+05  0.000E+00  0.000E+00  0.000E+00  4.24446E+01  3.878E-01  2.000E+01  2.000E+04 -1.760E+00
   1   13   15     1    15    5.3496E+05 -3.7402E+04   5.7236E+05  0.000E+00  0.000E+00  0.000E+00  4.19834E+01  4.039E-01  2.000E+01  2.000E+04 -1.870E+00
   1   12   16     1    16    5.7236E+05 -4.3345E+04   6.1570E+05  0.000E+00  0.000E+00  0.000E+00  4.15236E+01  4.213E-01  2.000E+01  2.000E+04 -2.167E+00
   1   12   17     1    17    6.1570E+05 -3.3881E+04   6.4958E+05  0.000E+00  0.000E+00  0.000E+00  4.10625E+01  4.375E-01  2.000E+01  2.000E+04 -1.694E+00
   1   12   18     1    18    6.4958E+05 -3.2233E+04   6.8182E+05  0.000E+00  0.000E+00  0.000E+00  4.05988E+01  4.511E-01  2.000E+01  2.000E+04 -1.612E+00
   1   12   19     1    19    6.8182E+05 -3.6238E+04   7.1805E+05  0.000E+00  0.000E+00  0.000E+00  4.01354E+01  4.649E-01  2.000E+01  2.000E+04 -1.812E+00
   1   13   20     1    20    7.1805E+05 -2.6695E+04   7.4475E+05  0.000E+00  0.000E+00  0.000E+00  3.96705E+01  4.773E-01  2.000E+01  2.000E+04 -1.335E+00
   1   14   21     1    21    7.4475E+05 -1.9725E+04   7.6447E+05  0.000E+00  0.000E+00  0.000E+00  3.92023E+01  4.864E-01  2.000E+01  2.000E+04 -9.863E-01
   1   14   22     1    22    7.6447E+05 -1.7717E+03   7.6625E+05  0.000E+00  0.000E+00  0.000E+00  3.87291E+01  4.905E-01  2.000E+01  2.000E+04 -8.858E-02
   1    9   30     2     1    5.0000E+04 -2.6476E+04   7.6476E+04  0.000E+00  0.000E+00  0.000E+00  4.02584E+01  1.334E-01  2.000E+01  2.000E+04 -1.324E+00
   1    9   29     2     2    7.6476E+04 -2.8920E+04   1.0540E+05  0.000E+00  0.000E+00  0.000E+00  4.00409E+01  1.659E-01  2.000E+01  2.000E+04 -1.446E+00
   1    9   28     2     3    1.0540E+05 -3.3151E+04   1.3855E+05  0.000E+00  0.000E+00  0.000E+00  3.98228E+01  1.978E-01  2.000E+01  2.000E+04 -1.658E+00
   1    9   27     2     4    1.3855E+05 -4.7115E+04   1.8566E+05  0.000E+00  0.000E+00  0.000E+00  3.96097E+01  2.347E-01  2.000E+01  2.000E+04 -2.356E+00
   1   10   26     2     5    1.8566E+05 -3.3131E+04   2.1879E+05  0.000E+00  0.000E+00  0.000E+00  3.93930E+01  2.680E-01  2.000E+01  2.000E+04 -1.657E+00
   1   11   25     2     6    2.1879E+05 -2.4838E+04   2.4363E+05  0.000E+00  0.000E+00  0.000E+00  3.91654E+01  2.904E-01  2.000E+01  2.000E+04 -1.242E+00
   1   12   24     2     7    2.4363E+05 -1.8340E+04   2.6197E+05  0.000E+00  0.000E+00  0.000E+00  3.89314E+01  3.064E-01  2.000E+01  2.000E+04 -9.170E-01
   1   13   23     2     8    2.6197E+05 -1.3070E+04   2.7504E+05  0.000E+00  0.000E+00  0.000E+00  3.86926E+01  3.176E-01  2.000E+01  2.000E+04 -6.535E-01
   1   14   22     2     9    2.7504E+05 -7.3577E+03   2.8240E+05  0.000E+00  0.000E+00  0.000E+00  3.84498E+01  3.248E-01  2.000E+01  2.000E+04 -3.679E-01
   1   14   22     3     1    1.0486E+06 -1.5367E+04   1.0640E+06  0.000E+00  0.000E+00  0.000E+00  3.80494E+01  4.938E-01  2.000E+01  2.000E+04 -7.683E-01
   1   15   23     3     2    1.0640E+06 -2.3755E+04   1.0878E+06  0.000E+00  0.000E+00  0.000E+00  3.71660E+01  4.993E-01  2.000E+01  2.000E+04 -1.188E+00
   1   15   24     3     3    1.0878E+06 -1.9779E+04   1.1075E+06  0.000E+00  0.000E+00  0.000E+00  3.62831E+01  5.053E-01  2.000E+01  2.000E+04 -9.889E-01
   1   15   25     3     4    1.1075E+06 -1.9377E+04   1.1269E+06  0.000E+00  0.000E+00  0.000E+00  3.53996E+01  5.107E-01  2.000E+01  2.000E+04 -9.688E-01
   1   15   26     3     5    1.1269E+06 -2.2141E+04   1.1491E+06  0.000E+00  0.000E+00  0.000E+00  3.45164E+01  5.164E-01  2.000E+01  2.000E+04 -1.107E+00
   1   16   27     3     6    1.1491E+06 -2.9336E+04   1.1784E+06  0.000E+00  0.000E+00  0.000E+00  3.36345E+01  5.234E-01  2.000E+01  2.000E+04 -1.467E+00
   1   17   28     3     7    1.1784E+06 -3.6403E+04   1.2148E+06  0.000E+00  0.000E+00  0.000E+00  3.27544E+01  5.322E-01  2.000E+01  2.000E+04 -1.820E+00
   1   18   29     3     8    1.2148E+06 -4.7395E+04   1.2622E+06  0.000E+00  0.000E+00  0.000E+00  3.18766E+01  5.433E-01  2.000E+01  2.000E+04 -2.370E+00
   1   18   30     3     9    1.2622E+06 -4.3806E+04   1.3060E+06  0.000E+00  0.000E+00  0.000E+00  3.09997E+01  5.552E-01  2.000E+01  2.000E+04 -2.190E+00



1
              HEAD IN LAYER   1 AT END OF TIME STEP   1 IN STRESS PERIOD   12
  ---------------------------------------------------------------------------

          1      2      3      4      5      6      7      8      9     10
         11     12     13     14     15     16     17     18     19     20
         21     22     23     24     25     26     27     28     29     30
 .........................................................................
   1  ****** ****** ****** ****** ****** ****** ****** ****** ****** ******
      ****** ****** ****** ****** ****** ****** ****** ****** ****** ******
      ****** ****** ****** ****** ****** ****** ****** ****** ****** ******
   2  ****** ****** ****** ****** ****** ****** ****** ****** ****** ******
      ****** ****** ****** ****** ****** ****** ****** ****** ****** ******
      ****** ****** ****** ****** ****** ****** ****** ****** ****** ******
   3  ****** ****** ****** ****** ****** ****** ****** ****** ****** ******
      ****** ****** ****** ****** ****** ****** ****** ****** ****** ******
      ****** ****** ****** ****** ****** ****** ****** ****** ****** ******
   4  ****** ****** ****** ****** ****** ****** ****** ****** ****** ******
      ****** ****** ****** ****** ****** ****** ****** ****** ****** ******
      ****** ****** ****** ****** ****** ****** ****** ****** ****** ******
   5  ****** ****** ****** ****** ****** ****** ****** ****** ****** ******
      ****** ****** ****** ****** ****** ****** ****** ****** ****** ******
      ****** ****** ****** ****** ****** ****** ****** ****** ****** ******
   6  ****** ****** ****** ****** ****** ****** ****** ****** ****** ******
      ****** ****** ****** ****** ****** ****** ****** ****** ****** ******
      ****** ****** ****** ****** ****** ****** ****** ****** ****** ******
   7  ****** ****** ****** ****** ****** ****** ****** ****** ****** ******
      ****** ****** ****** ****** ****** ****** ****** ****** ****** ******
      ****** ****** ****** ****** ****** ****** ****** ****** ****** ******
   8  ****** ****** ****** ****** ****** ****** ****** ****** ****** ******
      ****** ****** ****** ****** ****** ****** ****** ****** ****** ******
      ****** ****** ****** ****** ****** ****** ****** ****** ****** ******
   9  ****** ****** ****** ****** ****** ****** ****** ****** ****** ******
      ****** ****** ****** ****** ****** ****** ****** ****** ****** ******
      ****** ****** ****** ****** ****** ****** ****** ****** ****** ******
  10  ****** ****** ****** ****** ****** ****** ****** ****** ****** ******
      ****** ****** ****** ****** ****** ****** ****** ****** ****** ******
      ****** ****** ****** ****** ****** ****** ****** ****** ****** ******
  11  ****** ****** ****** ****** ****** ****** ****** ****** ****** ******
      ****** ****** ****** ****** ****** ****** ****** ****** ****** ******
      ****** ****** ****** ****** ****** ****** ****** ****** ****** ******
  12  ****** ****** ****** ****** ****** ****** ****** ****** ****** ******
      ****** ****** ****** ****** ****** ****** ****** ****** ****** ******
      ****** ****** ****** ****** ****** ****** ****** ****** ****** ******
  13  ****** ****** ****** ****** ****** ****** ****** ****** ****** ******
      ****** ****** ****** ****** ****** ****** ****** ****** ****** ******
      ****** ****** ****** ****** ****** ****** ****** ****** ****** ******
  14  ****** ****** ****** ****** ****** ****** ****** ****** ****** ******
      ****** ****** ****** ****** ****** ****** ****** ****** ****** ******
      ****** ****** ****** ****** ****** ****** ****** ****** ****** ******
  15  ****** ****** ****** ****** ****** ****** ****** ****** ****** ******
      ****** ****** ****** ****** ****** ****** ****** ****** ****** ******
      ****** ****** ****** ****** ****** ****** ****** ****** ****** ******
  16  ****** ****** ****** ****** ****** ****** ****** ****** ****** ******
      ****** ****** ****** ****** ****** ****** ****** ****** ****** ******
      ****** ****** ****** ****** ****** ****** ****** ****** ****** ******
  17  ****** ****** ****** ****** ****** ****** ****** ****** ****** ******
      ****** ****** ****** ****** ****** ****** ****** ****** ****** ******
      ****** ****** ****** ****** ****** ****** ****** ****** ****** ******
  18  ****** ****** ****** ****** ****** ****** ****** ****** ****** ******
      ****** ****** ****** ****** ****** ****** ****** ****** ****** ******
      ****** ****** ****** ****** ****** ****** ****** ****** ****** ******
  19  ****** ****** ****** ****** ****** ****** ****** ****** ****** ******
      ****** ****** ****** ****** ****** ****** ****** ****** ****** ******
      ****** ****** ****** ****** ****** ****** ****** ****** ****** ******
  20  ****** ****** ****** ****** ****** ****** ****** ****** ****** ******
      ****** ****** ****** ****** ****** ****** ****** ****** ****** ******
      ****** ****** ****** ****** ****** ****** ****** ****** ****** ******
  21  ****** ****** ****** ****** ****** ****** ****** ****** ****** ******
      ****** ****** ****** ****** ****** ****** ****** ****** ****** ******
      ****** ****** ****** ****** ****** ****** ****** ****** ****** ******
  22  ****** ****** ****** ****** ****** ****** ****** ****** ****** ******
      ****** ****** ****** ****** ****** ****** ****** ****** ****** ******
      ****** ****** ****** ****** ****** ****** ****** ****** ****** ******
  23  ****** ****** ****** ****** ****** ****** ****** ****** ****** ******
      ****** ****** ****** ****** ****** ****** ****** ****** ****** ******
      ****** ****** ****** ****** ****** ****** ****** ****** ****** ******
  24  ****** ****** ****** ****** ****** ****** ****** ****** ****** ******
      ****** ****** ****** ****** ****** ****** ****** ****** ****** ******
      ****** ****** ****** ****** ****** ****** ****** ****** ****** ******
  25  ****** ****** ****** ****** ****** ****** ****** ****** ****** ******
      ****** ****** ****** ****** ****** ****** ****** ****** ****** ******
      ****** ****** ****** ****** ****** ****** ****** ****** ****** ******

 HEAD WILL BE SAVED ON UNIT   51 AT END OF TIME STEP    1, STRESS PERIOD   12
1
  VOLUMETRIC BUDGET FOR ENTIRE MODEL AT END OF TIME STEP    1, STRESS PERIOD  12
  ------------------------------------------------------------------------------

     CUMULATIVE VOLUMES      L**3       RATES FOR THIS TIME STEP      L**3/T
     ------------------                 ------------------------

           IN:                                      IN:
           ---                                      ---
             STORAGE =    21697666.8369               STORAGE =        1482.6310
       CONSTANT HEAD =  1324621099.5610         CONSTANT HEAD =     1208906.3931
               WELLS =           0.0000                 WELLS =           0.0000
            RECHARGE =    26413200.0000              RECHARGE =       27600.0000
      STREAM LEAKAGE =           0.0000        STREAM LEAKAGE =           0.0000

            TOTAL IN =  1372731966.3979              TOTAL IN =     1237989.0241

          OUT:                                     OUT:
          ----                                     ----
             STORAGE =     1730192.5289               STORAGE =        1985.5897
       CONSTANT HEAD =           0.0000         CONSTANT HEAD =           0.0000
               WELLS =    88282704.7500                 WELLS =       80000.0000
            RECHARGE =           0.0000              RECHARGE =           0.0000
      STREAM LEAKAGE =  1282719072.9648        STREAM LEAKAGE =     1156003.4722

           TOTAL OUT =  1372731970.2437             TOTAL OUT =     1237989.0619

            IN - OUT =          -3.8458              IN - OUT =      -3.7815E-02

 PERCENT DISCREPANCY =          -0.00     PERCENT DISCREPANCY =          -0.00






         TIME SUMMARY AT END OF TIME STEP    1 IN STRESS PERIOD   12
                    SECONDS     MINUTES      HOURS       DAYS        YEARS
                    -----------------------------------------------------------
   TIME STEP LENGTH 7.86240E+06 1.31040E+05  2184.0      91.000     0.24914    
 STRESS PERIOD TIME 7.86240E+06 1.31040E+05  2184.0      91.000     0.24914    
         TOTAL TIME 9.46080E+07 1.57680E+06  26280.      1095.0      2.9979    
1

 Run end date and time (yyyy/mm/dd hh:mm:ss): 2018/09/26 14:00:38
 Elapsed run time:  0.067 Seconds

