                                  MODFLOW-2005     
      U.S. GEOLOGICAL SURVEY MODULAR FINITE-DIFFERENCE GROUND-WATER FLOW MODEL
                            VERSION 1.11.00 8/8/2013

 LIST FILE: supply2.lst
                         UNIT   10

 OPENING ..\data\supply.dis
 FILE TYPE:DIS   UNIT   11   STATUS:OLD    
 FORMAT:FORMATTED              ACCESS:SEQUENTIAL          

 OPENING ..\data\supply.ba6
 FILE TYPE:BAS6   UNIT   12   STATUS:OLD    
 FORMAT:FORMATTED              ACCESS:SEQUENTIAL          

 OPENING ..\data\supply.bc6
 FILE TYPE:BCF6   UNIT   13   STATUS:OLD    
 FORMAT:FORMATTED              ACCESS:SEQUENTIAL          

 OPENING ..\data\supply.rch
 FILE TYPE:RCH   UNIT   15   STATUS:OLD    
 FORMAT:FORMATTED              ACCESS:SEQUENTIAL          

 OPENING ..\data\supply2.sfr
 FILE TYPE:SFR   UNIT   16   STATUS:OLD    
 FORMAT:FORMATTED              ACCESS:SEQUENTIAL          

 OPENING ..\data\supply.oc
 FILE TYPE:OC   UNIT   17   STATUS:OLD    
 FORMAT:FORMATTED              ACCESS:SEQUENTIAL          

 OPENING ..\data\supply.pcg
 FILE TYPE:PCG   UNIT   18   STATUS:OLD    
 FORMAT:FORMATTED              ACCESS:SEQUENTIAL          

 OPENING supply2.wel
 FILE TYPE:WEL   UNIT   19   STATUS:OLD    
 FORMAT:FORMATTED              ACCESS:SEQUENTIAL          

 OPENING supply2sf.cbc
 FILE TYPE:DATA(BINARY)   UNIT   50   STATUS:UNKNOWN
 FORMAT:BINARY                 ACCESS:SEQUENTIAL          

 OPENING supply2hd.bhd
 FILE TYPE:DATA(BINARY)   UNIT   51   STATUS:UNKNOWN
 FORMAT:BINARY                 ACCESS:SEQUENTIAL          

 BAS -- BASIC PACKAGE, VERSION 7, 5/2/2005 INPUT READ FROM UNIT   12
 
 MODFLOW was compiled using uniform precision
 Precision of REAL and DOUBLE PRECISION variables:          15

 DISCRETIZATION INPUT DATA READ FROM UNIT   11
    1 LAYERS        25 ROWS        30 COLUMNS
   12 STRESS PERIOD(S) IN SIMULATION
 MODEL TIME UNIT IS DAYS
 MODEL LENGTH UNIT IS UNDEFINED
  Confining bed flag for each layer:
   0

                     DELR =   200.000    

                     DELC =   200.000    

 TOP ELEVATION OF LAYER 1 =  100.0000    

   MODEL LAYER BOTTOM EL. =   0.00000     FOR LAYER   1


 STRESS PERIOD     LENGTH       TIME STEPS     MULTIPLIER FOR DELT    SS FLAG
 ----------------------------------------------------------------------------
        1         92.00000          1                    1.500         TR
        2         91.00000          1                    1.500         TR
        3         91.00000          1                    1.500         TR
        4         91.00000          1                    1.500         TR
        5         92.00000          1                    1.500         TR
        6         91.00000          1                    1.500         TR
        7         91.00000          1                    1.500         TR
        8         91.00000          1                    1.500         TR
        9         92.00000          1                    1.500         TR
       10         91.00000          1                    1.500         TR
       11         91.00000          1                    1.500         TR
       12         91.00000          1                    1.500         TR

 TRANSIENT SIMULATION



 
 #MODOFC transient water supply sample problem                                   
 #                                                                               
 THE FREE FORMAT OPTION HAS BEEN SELECTED



                     BOUNDARY ARRAY FOR LAYER   1
 READING ON UNIT   12 WITH FORMAT: (20I4)              

 AQUIFER HEAD WILL BE SET TO   0.0000     AT ALL NO-FLOW NODES (IBOUND=0).



                       INITIAL HEAD FOR LAYER   1
 READING ON UNIT   12 WITH FORMAT: (10F13.0)           

 OUTPUT CONTROL IS SPECIFIED ONLY AT TIME STEPS FOR WHICH OUTPUT IS DESIRED
 COMPACT CELL-BY-CELL BUDGET FILES WILL BE WRITTEN
 HEAD PRINT FORMAT CODE IS  18    DRAWDOWN PRINT FORMAT CODE IS   0
 HEADS WILL BE SAVED ON UNIT   51    DRAWDOWNS WILL BE SAVED ON UNIT    0

 BCF -- BLOCK-CENTERED FLOW PACKAGE, VERSION 7, 5/2/2005
         INPUT READ FROM UNIT 13
 TRANSIENT SIMULATION
 HEAD AT CELLS THAT CONVERT TO DRY=   0.0000    
 WETTING CAPABILITY IS NOT ACTIVE
      LAYER  LAYER-TYPE CODE     INTERBLOCK T
      --------------------------------------------
         1            0          0 -- HARMONIC    

 COLUMN TO ROW ANISOTROPY =  1.000000    

     PRIMARY STORAGE COEF =  5.000000E-02 FOR LAYER   1

     TRANSMIS. ALONG ROWS =   500.000     FOR LAYER   1

 WEL -- WELL PACKAGE, VERSION 7, 5/2/2005 INPUT READ FROM UNIT   19
 # Well package input file written by MMProc
 No named parameters
 MAXIMUM OF      4 ACTIVE WELLS AT ONE TIME


     0 Well parameters

 RCH -- RECHARGE PACKAGE, VERSION 7, 5/2/2005 INPUT READ FROM UNIT   15
 No named parameters
 OPTION 1 -- RECHARGE TO TOP LAYER


     0 Recharge parameters

 SFR7 -- STREAMFLOW ROUTING PACKAGE, VERSION 1.0.7, 2013-01-15
         INPUT READ FROM UNIT  16
 #  Supply2 test problem for GWM-VI
 #  The eighth entry in the first data line is ISTCB2 -
 #    Setting this to a negative number indicates that
 #    streamflows out of the reach will be saved to a
 #    binary file.  The absolute value of ISTCB2 is the
 #    unit to which unformatted flows will be written.
 #
 No named parameters
 Segment information will not be 
 read by reach
 No named parameters
 No specifed inflow files


 NUMBER OF STREAM REACHES IS   40

 NUMBER OF STREAM SEGMENTS IS    3

 NUMBER OF STREAM PARAMETERS IS    0

 NUMBER OF STREAM SEGMENTS DEFINED USING PARAMETERS IS              0

 MAXIMUM ERROR FOR STREAM LEAKAGE RATES IS  1.00E-04

 CONSTANT FOR MANNINGS EQUATION IS  1.2839E+05





   STREAM NETWORK DESCRIPTION: 

   LAYER    ROW    COL   SEGMENT   REACH     LENGTH
                          NUMBER   NUMBER    IN CELL        
   --------------------------------------------------
      1     13      1       1        1    2.0000E+02
      1     13      2       1        2    2.0000E+02
      1     14      3       1        3    2.0000E+02
      1     15      4       1        4    2.0000E+02
      1     16      5       1        5    2.0000E+02
      1     16      6       1        6    2.0000E+02
      1     16      7       1        7    2.0000E+02
      1     16      8       1        8    2.0000E+02
      1     16      9       1        9    2.0000E+02
      1     16     10       1       10    2.0000E+02
      1     16     11       1       11    2.0000E+02
      1     16     12       1       12    2.0000E+02
      1     15     13       1       13    2.0000E+02
      1     14     14       1       14    2.0000E+02
      1     13     15       1       15    2.0000E+02
      1     12     16       1       16    2.0000E+02
      1     12     17       1       17    2.0000E+02
      1     12     18       1       18    2.0000E+02
      1     12     19       1       19    2.0000E+02
      1     13     20       1       20    2.0000E+02
      1     14     21       1       21    2.0000E+02
      1     14     22       1       22    2.0000E+02
      1      9     30       2        1    2.0000E+02
      1      9     29       2        2    2.0000E+02
      1      9     28       2        3    2.0000E+02
      1      9     27       2        4    2.0000E+02
      1     10     26       2        5    2.0000E+02
      1     11     25       2        6    2.0000E+02
      1     12     24       2        7    2.0000E+02
      1     13     23       2        8    2.0000E+02
      1     14     22       2        9    2.0000E+02
      1     14     22       3        1    2.0000E+02
      1     15     23       3        2    2.0000E+02
      1     15     24       3        3    2.0000E+02
      1     15     25       3        4    2.0000E+02
      1     15     26       3        5    2.0000E+02
      1     16     27       3        6    2.0000E+02
      1     17     28       3        7    2.0000E+02
      1     18     29       3        8    2.0000E+02
      1     18     30       3        9    2.0000E+02




 PCG -- CONJUGATE-GRADIENT SOLUTION PACKAGE, VERSION 7, 5/2/2005
 MAXIMUM OF    500 CALLS OF SOLUTION ROUTINE
 MAXIMUM OF      5 INTERNAL ITERATIONS PER CALL TO SOLUTION ROUTINE
 MATRIX PRECONDITIONING TYPE :    1



                                    SOLUTION BY THE CONJUGATE-GRADIENT METHOD
                                   -------------------------------------------
                    MAXIMUM NUMBER OF CALLS TO PCG ROUTINE =      500
                        MAXIMUM ITERATIONS PER CALL TO PCG =        5
                               MATRIX PRECONDITIONING TYPE =        1
        RELAXATION FACTOR (ONLY USED WITH PRECOND. TYPE 1) =    0.10000E+01
 PARAMETER OF POLYNOMIAL PRECOND. = 2 (2) OR IS CALCULATED :        0
                         HEAD CHANGE CRITERION FOR CLOSURE =    0.10000E-05
                     RESIDUAL CHANGE CRITERION FOR CLOSURE =    0.10000E+01
            PCG HEAD AND RESIDUAL CHANGE PRINTOUT INTERVAL =        1
     PRINTING FROM SOLVER IS LIMITED(1) OR SUPPRESSED (>1) =        1
                            STEADY-STATE DAMPING PARAMETER =    0.10000E+01
                               TRANSIENT DAMPING PARAMETER =    0.10000E+01
1
                            STRESS PERIOD NO.    1, LENGTH =   92.00000    
                            -----------------------------------------------

                              NUMBER OF TIME STEPS =     1

                               MULTIPLIER FOR DELT =     1.500

                            INITIAL TIME STEP SIZE =   92.00000    

 WELL NO.  LAYER   ROW   COL   STRESS RATE         
 --------------------------------------------------
      1      1     21     15      -9504.    
      2      1     23     15     -0.2528E+05
      3      1     23     11     -0.3088E+05
      4      1     21     17     -0.2513E+05

      4 WELLS

                 RECHARGE =  5.000000E-04



 CLASSIFICATION & COUNT OF STREAM SEGMENTS BASED ON SOURCE OF INFLOW:

                HEADWATER     DIVERSION     RECEIVES TRIBUTARY FLOW
                ---------     ---------     -----------------------
                     2              0               1



                    INPUT DATA FOR EACH STREAM SEGMENT
 ---------------------------------------------------------------------------------------------

 SEGMENT    SEG.     INFLOW   OVERLAND   STREAM    STREAM   ICALC  OUTFLOW  DIVERSION PRIORITY
    NO.    LENGTH     RATE     RUNOFF      ET       PPT.    METH.  TO SEG.  FROM SEG.    NO.

      1  4.400E+03 1.000E+05 0.000E+00 0.000E+00 0.000E+00    1        3        0        0
      2  1.800E+03 5.000E+04 0.000E+00 0.000E+00 0.000E+00    1        3        0        0
      3  1.800E+03 0.000E+00 0.000E+00 0.000E+00 0.000E+00    1        0        0        0


         STREAMBED PROPERTIES AND STREAM DIMENSIONS

 SEGMENT     BED HYD. COND.      BED THICKNESS     ELEV.-TOP OF BED     WIDTH OF STREAM     DEPTH OF STREAM    STREAM ROUGHNESS
    No.     UPPER     LOWER     UPPER     LOWER     UPPER     LOWER     UPPER     LOWER     UPPER     LOWER   CHANNEL      BANK

     1  5.000E+00 5.000E+00 1.000E+00 1.000E+00 4.850E+01 3.800E+01 2.000E+01 2.000E+01                     5.000E-02
     2  5.000E+00 5.000E+00 1.000E+00 1.000E+00 4.025E+01 3.800E+01 2.000E+01 2.000E+01                     5.000E-02
     3  5.000E+00 5.000E+00 1.000E+00 1.000E+00 3.800E+01 3.000E+01 2.000E+01 2.000E+01                     5.000E-02



 
 SOLVING FOR HEAD 


     8 CALLS TO PCG ROUTINE FOR TIME STEP   1 IN STRESS PERIOD    1
    34 TOTAL ITERATIONS

 OUTPUT CONTROL FOR STRESS PERIOD    1   TIME STEP    1
    SAVE BUDGET
    SAVE HEAD FOR ALL LAYERS
    PRINT HEAD FOR ALL LAYERS
 UBDSV2 SAVING "STREAMFLOW OUT  " ON UNIT  50 AT TIME STEP  1, STRESS PERIOD   1



 STREAM LISTING     PERIOD      1   STEP        1

 LAYER ROW COL. STREAM  RCH.  FLOW INTO     FLOW TO   FLOW OUT OF   OVRLND.     DIRECT     STREAM       STREAM     STREAM     STREAM   STREAMBED  STREAMBED
                SEG.NO.  NO.  STRM. RCH.    AQUIFER    STRM. RCH.    RUNOFF     PRECIP       ET          HEAD       DEPTH      WIDTH   CONDCTNC.   GRADIENT

   1   13    1     1     1    1.0000E+05 -5.7320E+03   1.0573E+05  0.000E+00  0.000E+00  0.000E+00  4.84085E+01  1.471E-01  2.000E+01  2.000E+04 -2.866E-01
   1   13    2     1     2    1.0573E+05 -8.5847E+03   1.1432E+05  0.000E+00  0.000E+00  0.000E+00  4.79373E+01  1.532E-01  2.000E+01  2.000E+04 -4.292E-01
   1   14    3     1     3    1.1432E+05 -7.8283E+03   1.2215E+05  0.000E+00  0.000E+00  0.000E+00  4.74668E+01  1.599E-01  2.000E+01  2.000E+04 -3.914E-01
   1   15    4     1     4    1.2215E+05 -7.6083E+03   1.2975E+05  0.000E+00  0.000E+00  0.000E+00  4.69957E+01  1.661E-01  2.000E+01  2.000E+04 -3.804E-01
   1   16    5     1     5    1.2975E+05 -7.2316E+03   1.3698E+05  0.000E+00  0.000E+00  0.000E+00  4.65242E+01  1.719E-01  2.000E+01  2.000E+04 -3.616E-01
   1   16    6     1     6    1.3698E+05 -5.7328E+03   1.4272E+05  0.000E+00  0.000E+00  0.000E+00  4.60519E+01  1.769E-01  2.000E+01  2.000E+04 -2.866E-01
   1   16    7     1     7    1.4272E+05 -5.7788E+03   1.4850E+05  0.000E+00  0.000E+00  0.000E+00  4.55790E+01  1.812E-01  2.000E+01  2.000E+04 -2.889E-01
   1   16    8     1     8    1.4850E+05 -5.7412E+03   1.5424E+05  0.000E+00  0.000E+00  0.000E+00  4.51060E+01  1.855E-01  2.000E+01  2.000E+04 -2.871E-01
   1   16    9     1     9    1.5424E+05 -5.6049E+03   1.5984E+05  0.000E+00  0.000E+00  0.000E+00  4.46328E+01  1.896E-01  2.000E+01  2.000E+04 -2.802E-01
   1   16   10     1    10    1.5984E+05 -5.3744E+03   1.6522E+05  0.000E+00  0.000E+00  0.000E+00  4.41595E+01  1.936E-01  2.000E+01  2.000E+04 -2.687E-01
   1   16   11     1    11    1.6522E+05 -5.0583E+03   1.7028E+05  0.000E+00  0.000E+00  0.000E+00  4.36859E+01  1.973E-01  2.000E+01  2.000E+04 -2.529E-01
   1   16   12     1    12    1.7028E+05 -5.8562E+03   1.7613E+05  0.000E+00  0.000E+00  0.000E+00  4.32125E+01  2.011E-01  2.000E+01  2.000E+04 -2.928E-01
   1   15   13     1    13    1.7613E+05 -6.8740E+03   1.8301E+05  0.000E+00  0.000E+00  0.000E+00  4.27396E+01  2.055E-01  2.000E+01  2.000E+04 -3.437E-01
   1   14   14     1    14    1.8301E+05 -7.5213E+03   1.9053E+05  0.000E+00  0.000E+00  0.000E+00  4.22672E+01  2.104E-01  2.000E+01  2.000E+04 -3.761E-01
   1   13   15     1    15    1.9053E+05 -8.0892E+03   1.9862E+05  0.000E+00  0.000E+00  0.000E+00  4.17952E+01  2.157E-01  2.000E+01  2.000E+04 -4.045E-01
   1   12   16     1    16    1.9862E+05 -9.2329E+03   2.0785E+05  0.000E+00  0.000E+00  0.000E+00  4.13236E+01  2.214E-01  2.000E+01  2.000E+04 -4.616E-01
   1   12   17     1    17    2.0785E+05 -6.3858E+03   2.1423E+05  0.000E+00  0.000E+00  0.000E+00  4.08514E+01  2.264E-01  2.000E+01  2.000E+04 -3.193E-01
   1   12   18     1    18    2.1423E+05 -6.2232E+03   2.2046E+05  0.000E+00  0.000E+00  0.000E+00  4.03782E+01  2.305E-01  2.000E+01  2.000E+04 -3.112E-01
   1   12   19     1    19    2.2046E+05 -7.9765E+03   2.2843E+05  0.000E+00  0.000E+00  0.000E+00  3.99054E+01  2.350E-01  2.000E+01  2.000E+04 -3.988E-01
   1   13   20     1    20    2.2843E+05 -6.2733E+03   2.3471E+05  0.000E+00  0.000E+00  0.000E+00  3.94326E+01  2.394E-01  2.000E+01  2.000E+04 -3.137E-01
   1   14   21     1    21    2.3471E+05 -4.9383E+03   2.3965E+05  0.000E+00  0.000E+00  0.000E+00  3.89588E+01  2.429E-01  2.000E+01  2.000E+04 -2.469E-01
   1   14   22     1    22    2.3965E+05  4.3891E+03   2.3526E+05  0.000E+00  0.000E+00  0.000E+00  3.84817E+01  2.430E-01  2.000E+01  2.000E+04  2.195E-01
   1    9   30     2     1    5.0000E+04 -5.5713E+03   5.5571E+04  0.000E+00  0.000E+00  0.000E+00  4.02447E+01  1.197E-01  2.000E+01  2.000E+04 -2.786E-01
   1    9   29     2     2    5.5571E+04 -5.8703E+03   6.1442E+04  0.000E+00  0.000E+00  0.000E+00  4.00023E+01  1.273E-01  2.000E+01  2.000E+04 -2.935E-01
   1    9   28     2     3    6.1442E+04 -6.1945E+03   6.7636E+04  0.000E+00  0.000E+00  0.000E+00  3.97600E+01  1.350E-01  2.000E+01  2.000E+04 -3.097E-01
   1    9   27     2     4    6.7636E+04 -9.5876E+03   7.7224E+04  0.000E+00  0.000E+00  0.000E+00  3.95197E+01  1.447E-01  2.000E+01  2.000E+04 -4.794E-01
   1   10   26     2     5    7.7224E+04 -7.7182E+03   8.4942E+04  0.000E+00  0.000E+00  0.000E+00  3.92799E+01  1.549E-01  2.000E+01  2.000E+04 -3.859E-01
   1   11   25     2     6    8.4942E+04 -6.5923E+03   9.1534E+04  0.000E+00  0.000E+00  0.000E+00  3.90379E+01  1.629E-01  2.000E+01  2.000E+04 -3.296E-01
   1   12   24     2     7    9.1534E+04 -5.3325E+03   9.6867E+04  0.000E+00  0.000E+00  0.000E+00  3.87944E+01  1.694E-01  2.000E+01  2.000E+04 -2.666E-01
   1   13   23     2     8    9.6867E+04 -3.7838E+03   1.0065E+05  0.000E+00  0.000E+00  0.000E+00  3.85493E+01  1.743E-01  2.000E+01  2.000E+04 -1.892E-01
   1   14   22     2     9    1.0065E+05  7.7363E+02   9.9877E+04  0.000E+00  0.000E+00  0.000E+00  3.83009E+01  1.759E-01  2.000E+01  2.000E+04  3.868E-02
   1   14   22     3     1    3.3513E+05 -9.1330E+03   3.4427E+05  0.000E+00  0.000E+00  0.000E+00  3.78056E+01  2.500E-01  2.000E+01  2.000E+04 -4.566E-01
   1   15   23     3     2    3.4427E+05 -5.4430E+03   3.4971E+05  0.000E+00  0.000E+00  0.000E+00  3.69199E+01  2.532E-01  2.000E+01  2.000E+04 -2.721E-01
   1   15   24     3     3    3.4971E+05 -4.1335E+03   3.5384E+05  0.000E+00  0.000E+00  0.000E+00  3.60331E+01  2.553E-01  2.000E+01  2.000E+04 -2.067E-01
   1   15   25     3     4    3.5384E+05 -4.2137E+03   3.5806E+05  0.000E+00  0.000E+00  0.000E+00  3.51460E+01  2.571E-01  2.000E+01  2.000E+04 -2.107E-01
   1   15   26     3     5    3.5806E+05 -5.5951E+03   3.6365E+05  0.000E+00  0.000E+00  0.000E+00  3.42592E+01  2.592E-01  2.000E+01  2.000E+04 -2.798E-01
   1   16   27     3     6    3.6365E+05 -7.1386E+03   3.7079E+05  0.000E+00  0.000E+00  0.000E+00  3.33731E+01  2.620E-01  2.000E+01  2.000E+04 -3.569E-01
   1   17   28     3     7    3.7079E+05 -7.9324E+03   3.7872E+05  0.000E+00  0.000E+00  0.000E+00  3.24874E+01  2.652E-01  2.000E+01  2.000E+04 -3.966E-01
   1   18   29     3     8    3.7872E+05 -8.9975E+03   3.8772E+05  0.000E+00  0.000E+00  0.000E+00  3.16021E+01  2.688E-01  2.000E+01  2.000E+04 -4.499E-01
   1   18   30     3     9    3.8772E+05 -7.4917E+03   3.9521E+05  0.000E+00  0.000E+00  0.000E+00  3.07167E+01  2.722E-01  2.000E+01  2.000E+04 -3.746E-01



1
              HEAD IN LAYER   1 AT END OF TIME STEP   1 IN STRESS PERIOD    1
  ---------------------------------------------------------------------------

          1      2      3      4      5      6      7      8      9     10
         11     12     13     14     15     16     17     18     19     20
         21     22     23     24     25     26     27     28     29     30
 .........................................................................
   1  ****** ****** ****** ****** ****** ****** ****** ****** ****** ******
      ****** ****** ****** ****** ****** ****** ****** ****** ****** ******
      ****** ****** ****** ****** ****** ****** ****** ****** ****** ******
   2  ****** ****** ****** ****** ****** ****** ****** ****** ****** ******
      ****** ****** ****** ****** ****** ****** ****** ****** ****** ******
      ****** ****** ****** ****** ****** ****** ****** ****** ****** ******
   3  ****** ****** ****** ****** ****** ****** ****** ****** ****** ******
      ****** ****** ****** ****** ****** ****** ****** ****** ****** ******
      ****** ****** ****** ****** ****** ****** ****** ****** ****** ******
   4  ****** ****** ****** ****** ****** ****** ****** ****** ****** ******
      ****** ****** ****** ****** ****** ****** ****** ****** ****** ******
      ****** ****** ****** ****** ****** ****** ****** ****** ****** ******
   5  ****** ****** ****** ****** ****** ****** ****** ****** ****** ******
      ****** ****** ****** ****** ****** ****** ****** ****** ****** ******
      ****** ****** ****** ****** ****** ****** ****** ****** ****** ******
   6  ****** ****** ****** ****** ****** ****** ****** ****** ****** ******
      ****** ****** ****** ****** ****** ****** ****** ****** ****** ******
      ****** ****** ****** ****** ****** ****** ****** ****** ****** ******
   7  ****** ****** ****** ****** ****** ****** ****** ****** ****** ******
      ****** ****** ****** ****** ****** ****** ****** ****** ****** ******
      ****** ****** ****** ****** ****** ****** ****** ****** ****** ******
   8  ****** ****** ****** ****** ****** ****** ****** ****** ****** ******
      ****** ****** ****** ****** ****** ****** ****** ****** ****** ******
      ****** ****** ****** ****** ****** ****** ****** ****** ****** ******
   9  ****** ****** ****** ****** ****** ****** ****** ****** ****** ******
      ****** ****** ****** ****** ****** ****** ****** ****** ****** ******
      ****** ****** ****** ****** ****** ****** ****** ****** ****** ******
  10  ****** ****** ****** ****** ****** ****** ****** ****** ****** ******
      ****** ****** ****** ****** ****** ****** ****** ****** ****** ******
      ****** ****** ****** ****** ****** ****** ****** ****** ****** ******
  11  ****** ****** ****** ****** ****** ****** ****** ****** ****** ******
      ****** ****** ****** ****** ****** ****** ****** ****** ****** ******
      ****** ****** ****** ****** ****** ****** ****** ****** ****** ******
  12  ****** ****** ****** ****** ****** ****** ****** ****** ****** ******
      ****** ****** ****** ****** ****** ****** ****** ****** ****** ******
      ****** ****** ****** ****** ****** ****** ****** ****** ****** ******
  13  ****** ****** ****** ****** ****** ****** ****** ****** ****** ******
      ****** ****** ****** ****** ****** ****** ****** ****** ****** ******
      ****** ****** ****** ****** ****** ****** ****** ****** ****** ******
  14  ****** ****** ****** ****** ****** ****** ****** ****** ****** ******
      ****** ****** ****** ****** ****** ****** ****** ****** ****** ******
      ****** ****** ****** ****** ****** ****** ****** ****** ****** ******
  15  ****** ****** ****** ****** ****** ****** ****** ****** ****** ******
      ****** ****** ****** ****** ****** ****** ****** ****** ****** ******
      ****** ****** ****** ****** ****** ****** ****** ****** ****** ******
  16  ****** ****** ****** ****** ****** ****** ****** ****** ****** ******
      ****** ****** ****** ****** ****** ****** ****** ****** ****** ******
      ****** ****** ****** ****** ****** ****** ****** ****** ****** ******
  17  ****** ****** ****** ****** ****** ****** ****** ****** ****** ******
      ****** ****** ****** ****** ****** ****** ****** ****** ****** ******
      ****** ****** ****** ****** ****** ****** ****** ****** ****** ******
  18  ****** ****** ****** ****** ****** ****** ****** ****** ****** ******
      ****** ****** ****** ****** ****** ****** ****** ****** ****** ******
      ****** ****** ****** ****** ****** ****** ****** ****** ****** ******
  19  ****** ****** ****** ****** ****** ****** ****** ****** ****** ******
      ****** ****** ****** ****** ****** ****** ****** ****** ****** ******
      ****** ****** ****** ****** ****** ****** ****** ****** ****** ******
  20  ****** ****** ****** ****** ****** ****** ****** ****** ****** ******
      ****** ****** ****** ****** ****** ****** ****** ****** ****** ******
      ****** ****** ****** ****** ****** ****** ****** ****** ****** ******
  21  ****** ****** ****** ****** ****** ****** ****** ****** ****** ******
      ****** ****** ****** ****** ****** ****** ****** ****** ****** ******
      ****** ****** ****** ****** ****** ****** ****** ****** ****** ******
  22  ****** ****** ****** ****** ****** ****** ****** ****** ****** ******
      ****** ****** ****** ****** ****** ****** ****** ****** ****** ******
      ****** ****** ****** ****** ****** ****** ****** ****** ****** ******
  23  ****** ****** ****** ****** ****** ****** ****** ****** ****** ******
      ****** ****** ****** ****** ****** ****** ****** ****** ****** ******
      ****** ****** ****** ****** ****** ****** ****** ****** ****** ******
  24  ****** ****** ****** ****** ****** ****** ****** ****** ****** ******
      ****** ****** ****** ****** ****** ****** ****** ****** ****** ******
      ****** ****** ****** ****** ****** ****** ****** ****** ****** ******
  25  ****** ****** ****** ****** ****** ****** ****** ****** ****** ******
      ****** ****** ****** ****** ****** ****** ****** ****** ****** ******
      ****** ****** ****** ****** ****** ****** ****** ****** ****** ******

 HEAD WILL BE SAVED ON UNIT   51 AT END OF TIME STEP    1, STRESS PERIOD    1
1
  VOLUMETRIC BUDGET FOR ENTIRE MODEL AT END OF TIME STEP    1, STRESS PERIOD   1
  ------------------------------------------------------------------------------

     CUMULATIVE VOLUMES      L**3       RATES FOR THIS TIME STEP      L**3/T
     ------------------                 ------------------------

           IN:                                      IN:
           ---                                      ---
             STORAGE =    17743134.4857               STORAGE =      192860.1575
       CONSTANT HEAD =    11899954.9067         CONSTANT HEAD =      129347.3359
               WELLS =           0.0000                 WELLS =           0.0000
            RECHARGE =     1269600.0000              RECHARGE =       13800.0000
      STREAM LEAKAGE =      474973.1319        STREAM LEAKAGE =        5162.7514

            TOTAL IN =    31387662.5242              TOTAL IN =      341170.2448

          OUT:                                     OUT:
          ----                                     ----
             STORAGE =           0.0000               STORAGE =           0.0000
       CONSTANT HEAD =           0.0000         CONSTANT HEAD =           0.0000
               WELLS =     8353185.1161                 WELLS =       90795.4904
            RECHARGE =           0.0000              RECHARGE =           0.0000
      STREAM LEAKAGE =    23034477.5484        STREAM LEAKAGE =      250374.7560

           TOTAL OUT =    31387662.6644             TOTAL OUT =      341170.2464

            IN - OUT =          -0.1402              IN - OUT =      -1.5240E-03

 PERCENT DISCREPANCY =          -0.00     PERCENT DISCREPANCY =          -0.00






         TIME SUMMARY AT END OF TIME STEP    1 IN STRESS PERIOD    1
                    SECONDS     MINUTES      HOURS       DAYS        YEARS
                    -----------------------------------------------------------
   TIME STEP LENGTH 7.94880E+06 1.32480E+05  2208.0      92.000     0.25188    
 STRESS PERIOD TIME 7.94880E+06 1.32480E+05  2208.0      92.000     0.25188    
         TOTAL TIME 7.94880E+06 1.32480E+05  2208.0      92.000     0.25188    
1
1
                            STRESS PERIOD NO.    2, LENGTH =   91.00000    
                            -----------------------------------------------

                              NUMBER OF TIME STEPS =     1

                               MULTIPLIER FOR DELT =     1.500

                            INITIAL TIME STEP SIZE =   91.00000    

 WELL NO.  LAYER   ROW   COL   STRESS RATE         
 --------------------------------------------------
      1      1     21     15      -9504.    
      2      1     23     15     -0.2528E+05
      3      1     23     11     -0.3088E+05
      4      1     21     17     -0.2513E+05

      4 WELLS

                 RECHARGE =  2.000000E-03

 REUSING STREAM SEGMENT DATA FROM LAST STRESS PERIOD
 
 SOLVING FOR HEAD 


     7 CALLS TO PCG ROUTINE FOR TIME STEP   1 IN STRESS PERIOD    2
    27 TOTAL ITERATIONS

 OUTPUT CONTROL FOR STRESS PERIOD    2   TIME STEP    1
    SAVE BUDGET
    SAVE HEAD FOR ALL LAYERS
    PRINT HEAD FOR ALL LAYERS
 UBDSV2 SAVING "STREAMFLOW OUT  " ON UNIT  50 AT TIME STEP  1, STRESS PERIOD   2



 STREAM LISTING     PERIOD      2   STEP        1

 LAYER ROW COL. STREAM  RCH.  FLOW INTO     FLOW TO   FLOW OUT OF   OVRLND.     DIRECT     STREAM       STREAM     STREAM     STREAM   STREAMBED  STREAMBED
                SEG.NO.  NO.  STRM. RCH.    AQUIFER    STRM. RCH.    RUNOFF     PRECIP       ET          HEAD       DEPTH      WIDTH   CONDCTNC.   GRADIENT

   1   13    1     1     1    1.0000E+05 -3.8018E+03   1.0380E+05  0.000E+00  0.000E+00  0.000E+00  4.84077E+01  1.463E-01  2.000E+01  2.000E+04 -1.901E-01
   1   13    2     1     2    1.0380E+05 -6.1620E+03   1.0996E+05  0.000E+00  0.000E+00  0.000E+00  4.79346E+01  1.505E-01  2.000E+01  2.000E+04 -3.081E-01
   1   14    3     1     3    1.0996E+05 -5.0660E+03   1.1503E+05  0.000E+00  0.000E+00  0.000E+00  4.74621E+01  1.552E-01  2.000E+01  2.000E+04 -2.533E-01
   1   15    4     1     4    1.1503E+05 -4.8298E+03   1.1986E+05  0.000E+00  0.000E+00  0.000E+00  4.69888E+01  1.593E-01  2.000E+01  2.000E+04 -2.415E-01
   1   16    5     1     5    1.1986E+05 -4.7446E+03   1.2460E+05  0.000E+00  0.000E+00  0.000E+00  4.65154E+01  1.632E-01  2.000E+01  2.000E+04 -2.372E-01
   1   16    6     1     6    1.2460E+05 -3.6879E+03   1.2829E+05  0.000E+00  0.000E+00  0.000E+00  4.60415E+01  1.665E-01  2.000E+01  2.000E+04 -1.844E-01
   1   16    7     1     7    1.2829E+05 -3.6582E+03   1.3195E+05  0.000E+00  0.000E+00  0.000E+00  4.55671E+01  1.694E-01  2.000E+01  2.000E+04 -1.829E-01
   1   16    8     1     8    1.3195E+05 -3.5460E+03   1.3550E+05  0.000E+00  0.000E+00  0.000E+00  4.50927E+01  1.722E-01  2.000E+01  2.000E+04 -1.773E-01
   1   16    9     1     9    1.3550E+05 -3.3398E+03   1.3884E+05  0.000E+00  0.000E+00  0.000E+00  4.46180E+01  1.749E-01  2.000E+01  2.000E+04 -1.670E-01
   1   16   10     1    10    1.3884E+05 -3.0429E+03   1.4188E+05  0.000E+00  0.000E+00  0.000E+00  4.41432E+01  1.773E-01  2.000E+01  2.000E+04 -1.521E-01
   1   16   11     1    11    1.4188E+05 -2.6503E+03   1.4453E+05  0.000E+00  0.000E+00  0.000E+00  4.36681E+01  1.794E-01  2.000E+01  2.000E+04 -1.325E-01
   1   16   12     1    12    1.4453E+05 -2.5297E+03   1.4706E+05  0.000E+00  0.000E+00  0.000E+00  4.31927E+01  1.814E-01  2.000E+01  2.000E+04 -1.265E-01
   1   15   13     1    13    1.4706E+05 -3.3777E+03   1.5044E+05  0.000E+00  0.000E+00  0.000E+00  4.27177E+01  1.836E-01  2.000E+01  2.000E+04 -1.689E-01
   1   14   14     1    14    1.5044E+05 -4.0680E+03   1.5450E+05  0.000E+00  0.000E+00  0.000E+00  4.22431E+01  1.863E-01  2.000E+01  2.000E+04 -2.034E-01
   1   13   15     1    15    1.5450E+05 -4.8302E+03   1.5934E+05  0.000E+00  0.000E+00  0.000E+00  4.17691E+01  1.896E-01  2.000E+01  2.000E+04 -2.415E-01
   1   12   16     1    16    1.5934E+05 -6.5203E+03   1.6586E+05  0.000E+00  0.000E+00  0.000E+00  4.12959E+01  1.936E-01  2.000E+01  2.000E+04 -3.260E-01
   1   12   17     1    17    1.6586E+05 -4.1408E+03   1.7000E+05  0.000E+00  0.000E+00  0.000E+00  4.08224E+01  1.974E-01  2.000E+01  2.000E+04 -2.070E-01
   1   12   18     1    18    1.7000E+05 -3.9884E+03   1.7398E+05  0.000E+00  0.000E+00  0.000E+00  4.03480E+01  2.003E-01  2.000E+01  2.000E+04 -1.994E-01
   1   12   19     1    19    1.7398E+05 -5.3510E+03   1.7934E+05  0.000E+00  0.000E+00  0.000E+00  3.98740E+01  2.035E-01  2.000E+01  2.000E+04 -2.676E-01
   1   13   20     1    20    1.7934E+05 -3.3294E+03   1.8267E+05  0.000E+00  0.000E+00  0.000E+00  3.93997E+01  2.065E-01  2.000E+01  2.000E+04 -1.665E-01
   1   14   21     1    21    1.8267E+05 -2.2037E+03   1.8487E+05  0.000E+00  0.000E+00  0.000E+00  3.89243E+01  2.084E-01  2.000E+01  2.000E+04 -1.102E-01
   1   14   22     1    22    1.8487E+05  4.9556E+03   1.7991E+05  0.000E+00  0.000E+00  0.000E+00  3.84461E+01  2.075E-01  2.000E+01  2.000E+04  2.478E-01
   1    9   30     2     1    5.0000E+04 -3.4578E+03   5.3458E+04  0.000E+00  0.000E+00  0.000E+00  4.02433E+01  1.183E-01  2.000E+01  2.000E+04 -1.729E-01
   1    9   29     2     2    5.3458E+04 -3.7819E+03   5.7240E+04  0.000E+00  0.000E+00  0.000E+00  3.99982E+01  1.232E-01  2.000E+01  2.000E+04 -1.891E-01
   1    9   28     2     3    5.7240E+04 -4.1577E+03   6.1397E+04  0.000E+00  0.000E+00  0.000E+00  3.97534E+01  1.284E-01  2.000E+01  2.000E+04 -2.079E-01
   1    9   27     2     4    6.1397E+04 -7.1641E+03   6.8561E+04  0.000E+00  0.000E+00  0.000E+00  3.95106E+01  1.356E-01  2.000E+01  2.000E+04 -3.582E-01
   1   10   26     2     5    6.8561E+04 -4.8340E+03   7.3395E+04  0.000E+00  0.000E+00  0.000E+00  3.92680E+01  1.430E-01  2.000E+01  2.000E+04 -2.417E-01
   1   11   25     2     6    7.3395E+04 -3.7371E+03   7.7133E+04  0.000E+00  0.000E+00  0.000E+00  3.90231E+01  1.481E-01  2.000E+01  2.000E+04 -1.869E-01
   1   12   24     2     7    7.7133E+04 -2.7441E+03   7.9877E+04  0.000E+00  0.000E+00  0.000E+00  3.87769E+01  1.519E-01  2.000E+01  2.000E+04 -1.372E-01
   1   13   23     2     8    7.9877E+04 -1.6939E+03   8.1570E+04  0.000E+00  0.000E+00  0.000E+00  3.85294E+01  1.544E-01  2.000E+01  2.000E+04 -8.469E-02
   1   14   22     2     9    8.1570E+04  1.6234E+03   7.9947E+04  0.000E+00  0.000E+00  0.000E+00  3.82795E+01  1.545E-01  2.000E+01  2.000E+04  8.117E-02
   1   14   22     3     1    2.5986E+05 -8.5556E+03   2.6842E+05  0.000E+00  0.000E+00  0.000E+00  3.77705E+01  2.150E-01  2.000E+01  2.000E+04 -4.278E-01
   1   15   23     3     2    2.6842E+05 -2.9936E+03   2.7141E+05  0.000E+00  0.000E+00  0.000E+00  3.68845E+01  2.178E-01  2.000E+01  2.000E+04 -1.497E-01
   1   15   24     3     3    2.7141E+05 -2.2838E+03   2.7369E+05  0.000E+00  0.000E+00  0.000E+00  3.59968E+01  2.191E-01  2.000E+01  2.000E+04 -1.142E-01
   1   15   25     3     4    2.7369E+05 -2.2826E+03   2.7598E+05  0.000E+00  0.000E+00  0.000E+00  3.51091E+01  2.202E-01  2.000E+01  2.000E+04 -1.141E-01
   1   15   26     3     5    2.7598E+05 -2.9323E+03   2.7891E+05  0.000E+00  0.000E+00  0.000E+00  3.42214E+01  2.214E-01  2.000E+01  2.000E+04 -1.466E-01
   1   16   27     3     6    2.7891E+05 -3.9964E+03   2.8290E+05  0.000E+00  0.000E+00  0.000E+00  3.33342E+01  2.231E-01  2.000E+01  2.000E+04 -1.998E-01
   1   17   28     3     7    2.8290E+05 -4.8479E+03   2.8775E+05  0.000E+00  0.000E+00  0.000E+00  3.24474E+01  2.252E-01  2.000E+01  2.000E+04 -2.424E-01
   1   18   29     3     8    2.8775E+05 -6.4605E+03   2.9421E+05  0.000E+00  0.000E+00  0.000E+00  3.15612E+01  2.278E-01  2.000E+01  2.000E+04 -3.230E-01
   1   18   30     3     9    2.9421E+05 -5.3818E+03   2.9959E+05  0.000E+00  0.000E+00  0.000E+00  3.06750E+01  2.306E-01  2.000E+01  2.000E+04 -2.691E-01



1
              HEAD IN LAYER   1 AT END OF TIME STEP   1 IN STRESS PERIOD    2
  ---------------------------------------------------------------------------

          1      2      3      4      5      6      7      8      9     10
         11     12     13     14     15     16     17     18     19     20
         21     22     23     24     25     26     27     28     29     30
 .........................................................................
   1  ****** ****** ****** ****** ****** ****** ****** ****** ****** ******
      ****** ****** ****** ****** ****** ****** ****** ****** ****** ******
      ****** ****** ****** ****** ****** ****** ****** ****** ****** ******
   2  ****** ****** ****** ****** ****** ****** ****** ****** ****** ******
      ****** ****** ****** ****** ****** ****** ****** ****** ****** ******
      ****** ****** ****** ****** ****** ****** ****** ****** ****** ******
   3  ****** ****** ****** ****** ****** ****** ****** ****** ****** ******
      ****** ****** ****** ****** ****** ****** ****** ****** ****** ******
      ****** ****** ****** ****** ****** ****** ****** ****** ****** ******
   4  ****** ****** ****** ****** ****** ****** ****** ****** ****** ******
      ****** ****** ****** ****** ****** ****** ****** ****** ****** ******
      ****** ****** ****** ****** ****** ****** ****** ****** ****** ******
   5  ****** ****** ****** ****** ****** ****** ****** ****** ****** ******
      ****** ****** ****** ****** ****** ****** ****** ****** ****** ******
      ****** ****** ****** ****** ****** ****** ****** ****** ****** ******
   6  ****** ****** ****** ****** ****** ****** ****** ****** ****** ******
      ****** ****** ****** ****** ****** ****** ****** ****** ****** ******
      ****** ****** ****** ****** ****** ****** ****** ****** ****** ******
   7  ****** ****** ****** ****** ****** ****** ****** ****** ****** ******
      ****** ****** ****** ****** ****** ****** ****** ****** ****** ******
      ****** ****** ****** ****** ****** ****** ****** ****** ****** ******
   8  ****** ****** ****** ****** ****** ****** ****** ****** ****** ******
      ****** ****** ****** ****** ****** ****** ****** ****** ****** ******
      ****** ****** ****** ****** ****** ****** ****** ****** ****** ******
   9  ****** ****** ****** ****** ****** ****** ****** ****** ****** ******
      ****** ****** ****** ****** ****** ****** ****** ****** ****** ******
      ****** ****** ****** ****** ****** ****** ****** ****** ****** ******
  10  ****** ****** ****** ****** ****** ****** ****** ****** ****** ******
      ****** ****** ****** ****** ****** ****** ****** ****** ****** ******
      ****** ****** ****** ****** ****** ****** ****** ****** ****** ******
  11  ****** ****** ****** ****** ****** ****** ****** ****** ****** ******
      ****** ****** ****** ****** ****** ****** ****** ****** ****** ******
      ****** ****** ****** ****** ****** ****** ****** ****** ****** ******
  12  ****** ****** ****** ****** ****** ****** ****** ****** ****** ******
      ****** ****** ****** ****** ****** ****** ****** ****** ****** ******
      ****** ****** ****** ****** ****** ****** ****** ****** ****** ******
  13  ****** ****** ****** ****** ****** ****** ****** ****** ****** ******
      ****** ****** ****** ****** ****** ****** ****** ****** ****** ******
      ****** ****** ****** ****** ****** ****** ****** ****** ****** ******
  14  ****** ****** ****** ****** ****** ****** ****** ****** ****** ******
      ****** ****** ****** ****** ****** ****** ****** ****** ****** ******
      ****** ****** ****** ****** ****** ****** ****** ****** ****** ******
  15  ****** ****** ****** ****** ****** ****** ****** ****** ****** ******
      ****** ****** ****** ****** ****** ****** ****** ****** ****** ******
      ****** ****** ****** ****** ****** ****** ****** ****** ****** ******
  16  ****** ****** ****** ****** ****** ****** ****** ****** ****** ******
      ****** ****** ****** ****** ****** ****** ****** ****** ****** ******
      ****** ****** ****** ****** ****** ****** ****** ****** ****** ******
  17  ****** ****** ****** ****** ****** ****** ****** ****** ****** ******
      ****** ****** ****** ****** ****** ****** ****** ****** ****** ******
      ****** ****** ****** ****** ****** ****** ****** ****** ****** ******
  18  ****** ****** ****** ****** ****** ****** ****** ****** ****** ******
      ****** ****** ****** ****** ****** ****** ****** ****** ****** ******
      ****** ****** ****** ****** ****** ****** ****** ****** ****** ******
  19  ****** ****** ****** ****** ****** ****** ****** ****** ****** ******
      ****** ****** ****** ****** ****** ****** ****** ****** ****** ******
      ****** ****** ****** ****** ****** ****** ****** ****** ****** ******
  20  ****** ****** ****** ****** ****** ****** ****** ****** ****** ******
      ****** ****** ****** ****** ****** ****** ****** ****** ****** ******
      ****** ****** ****** ****** ****** ****** ****** ****** ****** ******
  21  ****** ****** ****** ****** ****** ****** ****** ****** ****** ******
      ****** ****** ****** ****** ****** ****** ****** ****** ****** ******
      ****** ****** ****** ****** ****** ****** ****** ****** ****** ******
  22  ****** ****** ****** ****** ****** ****** ****** ****** ****** ******
      ****** ****** ****** ****** ****** ****** ****** ****** ****** ******
      ****** ****** ****** ****** ****** ****** ****** ****** ****** ******
  23  ****** ****** ****** ****** ****** ****** ****** ****** ****** ******
      ****** ****** ****** ****** ****** ****** ****** ****** ****** ******
      ****** ****** ****** ****** ****** ****** ****** ****** ****** ******
  24  ****** ****** ****** ****** ****** ****** ****** ****** ****** ******
      ****** ****** ****** ****** ****** ****** ****** ****** ****** ******
      ****** ****** ****** ****** ****** ****** ****** ****** ****** ******
  25  ****** ****** ****** ****** ****** ****** ****** ****** ****** ******
      ****** ****** ****** ****** ****** ****** ****** ****** ****** ******
      ****** ****** ****** ****** ****** ****** ****** ****** ****** ******

 HEAD WILL BE SAVED ON UNIT   51 AT END OF TIME STEP    1, STRESS PERIOD    2
1
  VOLUMETRIC BUDGET FOR ENTIRE MODEL AT END OF TIME STEP    1, STRESS PERIOD   2
  ------------------------------------------------------------------------------

     CUMULATIVE VOLUMES      L**3       RATES FOR THIS TIME STEP      L**3/T
     ------------------                 ------------------------

           IN:                                      IN:
           ---                                      ---
             STORAGE =    20921175.2240               STORAGE =       34923.5246
       CONSTANT HEAD =    25574227.3489         CONSTANT HEAD =      150266.7301
               WELLS =           0.0000                 WELLS =           0.0000
            RECHARGE =     6292800.0000              RECHARGE =       55200.0000
      STREAM LEAKAGE =     1073658.8083        STREAM LEAKAGE =        6578.9635

            TOTAL IN =    53861861.3812              TOTAL IN =      246969.2182

          OUT:                                     OUT:
          ----                                     ----
             STORAGE =           0.0000               STORAGE =           0.0000
       CONSTANT HEAD =           0.0000         CONSTANT HEAD =           0.0000
               WELLS =    16615574.7418                 WELLS =       90795.4904
            RECHARGE =           0.0000              RECHARGE =           0.0000
      STREAM LEAKAGE =    37246287.2523        STREAM LEAKAGE =      156173.7330

           TOTAL OUT =    53861861.9940             TOTAL OUT =      246969.2234

            IN - OUT =          -0.6128              IN - OUT =      -5.1936E-03

 PERCENT DISCREPANCY =          -0.00     PERCENT DISCREPANCY =          -0.00






         TIME SUMMARY AT END OF TIME STEP    1 IN STRESS PERIOD    2
                    SECONDS     MINUTES      HOURS       DAYS        YEARS
                    -----------------------------------------------------------
   TIME STEP LENGTH 7.86240E+06 1.31040E+05  2184.0      91.000     0.24914    
 STRESS PERIOD TIME 7.86240E+06 1.31040E+05  2184.0      91.000     0.24914    
         TOTAL TIME 1.58112E+07 2.63520E+05  4392.0      183.00     0.50103    
1
1
                            STRESS PERIOD NO.    3, LENGTH =   91.00000    
                            -----------------------------------------------

                              NUMBER OF TIME STEPS =     1

                               MULTIPLIER FOR DELT =     1.500

                            INITIAL TIME STEP SIZE =   91.00000    

 WELL NO.  LAYER   ROW   COL   STRESS RATE         
 --------------------------------------------------
      1      1     21     15      -9504.    
      2      1     23     15     -0.2528E+05
      3      1     23     11     -0.3088E+05
      4      1     21     17     -0.2513E+05

      4 WELLS

                 RECHARGE =   0.00000    

 REUSING STREAM SEGMENT DATA FROM LAST STRESS PERIOD
 
 SOLVING FOR HEAD 


     7 CALLS TO PCG ROUTINE FOR TIME STEP   1 IN STRESS PERIOD    3
    27 TOTAL ITERATIONS

 OUTPUT CONTROL FOR STRESS PERIOD    3   TIME STEP    1
    SAVE BUDGET
    SAVE HEAD FOR ALL LAYERS
    PRINT HEAD FOR ALL LAYERS
 UBDSV2 SAVING "STREAMFLOW OUT  " ON UNIT  50 AT TIME STEP  1, STRESS PERIOD   3



 STREAM LISTING     PERIOD      3   STEP        1

 LAYER ROW COL. STREAM  RCH.  FLOW INTO     FLOW TO   FLOW OUT OF   OVRLND.     DIRECT     STREAM       STREAM     STREAM     STREAM   STREAMBED  STREAMBED
                SEG.NO.  NO.  STRM. RCH.    AQUIFER    STRM. RCH.    RUNOFF     PRECIP       ET          HEAD       DEPTH      WIDTH   CONDCTNC.   GRADIENT

   1   13    1     1     1    1.0000E+05 -2.8805E+03   1.0288E+05  0.000E+00  0.000E+00  0.000E+00  4.84073E+01  1.459E-01  2.000E+01  2.000E+04 -1.440E-01
   1   13    2     1     2    1.0288E+05 -4.9074E+03   1.0779E+05  0.000E+00  0.000E+00  0.000E+00  4.79333E+01  1.492E-01  2.000E+01  2.000E+04 -2.454E-01
   1   14    3     1     3    1.0779E+05 -3.8046E+03   1.1159E+05  0.000E+00  0.000E+00  0.000E+00  4.74597E+01  1.529E-01  2.000E+01  2.000E+04 -1.902E-01
   1   15    4     1     4    1.1159E+05 -3.5764E+03   1.1517E+05  0.000E+00  0.000E+00  0.000E+00  4.69855E+01  1.560E-01  2.000E+01  2.000E+04 -1.788E-01
   1   16    5     1     5    1.1517E+05 -3.5708E+03   1.1874E+05  0.000E+00  0.000E+00  0.000E+00  4.65112E+01  1.589E-01  2.000E+01  2.000E+04 -1.785E-01
   1   16    6     1     6    1.1874E+05 -2.7602E+03   1.2150E+05  0.000E+00  0.000E+00  0.000E+00  4.60365E+01  1.615E-01  2.000E+01  2.000E+04 -1.380E-01
   1   16    7     1     7    1.2150E+05 -2.6994E+03   1.2420E+05  0.000E+00  0.000E+00  0.000E+00  4.55614E+01  1.637E-01  2.000E+01  2.000E+04 -1.350E-01
   1   16    8     1     8    1.2420E+05 -2.5604E+03   1.2676E+05  0.000E+00  0.000E+00  0.000E+00  4.50862E+01  1.658E-01  2.000E+01  2.000E+04 -1.280E-01
   1   16    9     1     9    1.2676E+05 -2.3354E+03   1.2910E+05  0.000E+00  0.000E+00  0.000E+00  4.46109E+01  1.677E-01  2.000E+01  2.000E+04 -1.168E-01
   1   16   10     1    10    1.2910E+05 -2.0266E+03   1.3112E+05  0.000E+00  0.000E+00  0.000E+00  4.41353E+01  1.694E-01  2.000E+01  2.000E+04 -1.013E-01
   1   16   11     1    11    1.3112E+05 -1.6193E+03   1.3274E+05  0.000E+00  0.000E+00  0.000E+00  4.36595E+01  1.708E-01  2.000E+01  2.000E+04 -8.097E-02
   1   16   12     1    12    1.3274E+05 -1.0831E+03   1.3382E+05  0.000E+00  0.000E+00  0.000E+00  4.31832E+01  1.719E-01  2.000E+01  2.000E+04 -5.416E-02
   1   15   13     1    13    1.3382E+05 -1.8823E+03   1.3571E+05  0.000E+00  0.000E+00  0.000E+00  4.27071E+01  1.730E-01  2.000E+01  2.000E+04 -9.412E-02
   1   14   14     1    14    1.3571E+05 -2.5807E+03   1.3829E+05  0.000E+00  0.000E+00  0.000E+00  4.22315E+01  1.747E-01  2.000E+01  2.000E+04 -1.290E-01
   1   13   15     1    15    1.3829E+05 -3.4164E+03   1.4170E+05  0.000E+00  0.000E+00  0.000E+00  4.17566E+01  1.770E-01  2.000E+01  2.000E+04 -1.708E-01
   1   12   16     1    16    1.4170E+05 -5.2262E+03   1.4693E+05  0.000E+00  0.000E+00  0.000E+00  4.12825E+01  1.803E-01  2.000E+01  2.000E+04 -2.613E-01
   1   12   17     1    17    1.4693E+05 -3.1800E+03   1.5011E+05  0.000E+00  0.000E+00  0.000E+00  4.08084E+01  1.834E-01  2.000E+01  2.000E+04 -1.590E-01
   1   12   18     1    18    1.5011E+05 -3.0493E+03   1.5316E+05  0.000E+00  0.000E+00  0.000E+00  4.03334E+01  1.857E-01  2.000E+01  2.000E+04 -1.525E-01
   1   12   19     1    19    1.5316E+05 -4.2349E+03   1.5739E+05  0.000E+00  0.000E+00  0.000E+00  3.98588E+01  1.884E-01  2.000E+01  2.000E+04 -2.117E-01
   1   13   20     1    20    1.5739E+05 -2.1965E+03   1.5959E+05  0.000E+00  0.000E+00  0.000E+00  3.93839E+01  1.907E-01  2.000E+01  2.000E+04 -1.098E-01
   1   14   21     1    21    1.5959E+05 -1.0814E+03   1.6067E+05  0.000E+00  0.000E+00  0.000E+00  3.89078E+01  1.919E-01  2.000E+01  2.000E+04 -5.407E-02
   1   14   22     1    22    1.6067E+05  5.1218E+03   1.5555E+05  0.000E+00  0.000E+00  0.000E+00  3.84291E+01  1.904E-01  2.000E+01  2.000E+04  2.561E-01
   1    9   30     2     1    5.0000E+04 -2.6908E+03   5.2691E+04  0.000E+00  0.000E+00  0.000E+00  4.02427E+01  1.177E-01  2.000E+01  2.000E+04 -1.345E-01
   1    9   29     2     2    5.2691E+04 -3.0250E+03   5.5716E+04  0.000E+00  0.000E+00  0.000E+00  3.99966E+01  1.216E-01  2.000E+01  2.000E+04 -1.512E-01
   1    9   28     2     3    5.5716E+04 -3.4118E+03   5.9128E+04  0.000E+00  0.000E+00  0.000E+00  3.97509E+01  1.259E-01  2.000E+01  2.000E+04 -1.706E-01
   1    9   27     2     4    5.9128E+04 -6.1566E+03   6.5284E+04  0.000E+00  0.000E+00  0.000E+00  3.95071E+01  1.321E-01  2.000E+01  2.000E+04 -3.078E-01
   1   10   26     2     5    6.5284E+04 -3.7682E+03   6.9052E+04  0.000E+00  0.000E+00  0.000E+00  3.92633E+01  1.383E-01  2.000E+01  2.000E+04 -1.884E-01
   1   11   25     2     6    6.9052E+04 -2.7208E+03   7.1773E+04  0.000E+00  0.000E+00  0.000E+00  3.90173E+01  1.423E-01  2.000E+01  2.000E+04 -1.360E-01
   1   12   24     2     7    7.1773E+04 -1.8713E+03   7.3645E+04  0.000E+00  0.000E+00  0.000E+00  3.87701E+01  1.451E-01  2.000E+01  2.000E+04 -9.357E-02
   1   13   23     2     8    7.3645E+04 -1.0468E+03   7.4691E+04  0.000E+00  0.000E+00  0.000E+00  3.85218E+01  1.468E-01  2.000E+01  2.000E+04 -5.234E-02
   1   14   22     2     9    7.4691E+04  1.9656E+03   7.2726E+04  0.000E+00  0.000E+00  0.000E+00  3.82712E+01  1.462E-01  2.000E+01  2.000E+04  9.828E-02
   1   14   22     3     1    2.2828E+05 -8.3658E+03   2.3664E+05  0.000E+00  0.000E+00  0.000E+00  3.77547E+01  1.991E-01  2.000E+01  2.000E+04 -4.183E-01
   1   15   23     3     2    2.3664E+05 -1.9681E+03   2.3861E+05  0.000E+00  0.000E+00  0.000E+00  3.68684E+01  2.018E-01  2.000E+01  2.000E+04 -9.840E-02
   1   15   24     3     3    2.3861E+05 -1.6196E+03   2.4023E+05  0.000E+00  0.000E+00  0.000E+00  3.59805E+01  2.027E-01  2.000E+01  2.000E+04 -8.098E-02
   1   15   25     3     4    2.4023E+05 -1.6397E+03   2.4187E+05  0.000E+00  0.000E+00  0.000E+00  3.50924E+01  2.035E-01  2.000E+01  2.000E+04 -8.198E-02
   1   15   26     3     5    2.4187E+05 -2.0881E+03   2.4396E+05  0.000E+00  0.000E+00  0.000E+00  3.42044E+01  2.044E-01  2.000E+01  2.000E+04 -1.044E-01
   1   16   27     3     6    2.4396E+05 -2.9064E+03   2.4686E+05  0.000E+00  0.000E+00  0.000E+00  3.33168E+01  2.057E-01  2.000E+01  2.000E+04 -1.453E-01
   1   17   28     3     7    2.4686E+05 -3.7501E+03   2.5061E+05  0.000E+00  0.000E+00  0.000E+00  3.24296E+01  2.074E-01  2.000E+01  2.000E+04 -1.875E-01
   1   18   29     3     8    2.5061E+05 -5.4633E+03   2.5608E+05  0.000E+00  0.000E+00  0.000E+00  3.15430E+01  2.097E-01  2.000E+01  2.000E+04 -2.732E-01
   1   18   30     3     9    2.5608E+05 -4.6515E+03   2.6073E+05  0.000E+00  0.000E+00  0.000E+00  3.06566E+01  2.122E-01  2.000E+01  2.000E+04 -2.326E-01



1
              HEAD IN LAYER   1 AT END OF TIME STEP   1 IN STRESS PERIOD    3
  ---------------------------------------------------------------------------

          1      2      3      4      5      6      7      8      9     10
         11     12     13     14     15     16     17     18     19     20
         21     22     23     24     25     26     27     28     29     30
 .........................................................................
   1  ****** ****** ****** ****** ****** ****** ****** ****** ****** ******
      ****** ****** ****** ****** ****** ****** ****** ****** ****** ******
      ****** ****** ****** ****** ****** ****** ****** ****** ****** ******
   2  ****** ****** ****** ****** ****** ****** ****** ****** ****** ******
      ****** ****** ****** ****** ****** ****** ****** ****** ****** ******
      ****** ****** ****** ****** ****** ****** ****** ****** ****** ******
   3  ****** ****** ****** ****** ****** ****** ****** ****** ****** ******
      ****** ****** ****** ****** ****** ****** ****** ****** ****** ******
      ****** ****** ****** ****** ****** ****** ****** ****** ****** ******
   4  ****** ****** ****** ****** ****** ****** ****** ****** ****** ******
      ****** ****** ****** ****** ****** ****** ****** ****** ****** ******
      ****** ****** ****** ****** ****** ****** ****** ****** ****** ******
   5  ****** ****** ****** ****** ****** ****** ****** ****** ****** ******
      ****** ****** ****** ****** ****** ****** ****** ****** ****** ******
      ****** ****** ****** ****** ****** ****** ****** ****** ****** ******
   6  ****** ****** ****** ****** ****** ****** ****** ****** ****** ******
      ****** ****** ****** ****** ****** ****** ****** ****** ****** ******
      ****** ****** ****** ****** ****** ****** ****** ****** ****** ******
   7  ****** ****** ****** ****** ****** ****** ****** ****** ****** ******
      ****** ****** ****** ****** ****** ****** ****** ****** ****** ******
      ****** ****** ****** ****** ****** ****** ****** ****** ****** ******
   8  ****** ****** ****** ****** ****** ****** ****** ****** ****** ******
      ****** ****** ****** ****** ****** ****** ****** ****** ****** ******
      ****** ****** ****** ****** ****** ****** ****** ****** ****** ******
   9  ****** ****** ****** ****** ****** ****** ****** ****** ****** ******
      ****** ****** ****** ****** ****** ****** ****** ****** ****** ******
      ****** ****** ****** ****** ****** ****** ****** ****** ****** ******
  10  ****** ****** ****** ****** ****** ****** ****** ****** ****** ******
      ****** ****** ****** ****** ****** ****** ****** ****** ****** ******
      ****** ****** ****** ****** ****** ****** ****** ****** ****** ******
  11  ****** ****** ****** ****** ****** ****** ****** ****** ****** ******
      ****** ****** ****** ****** ****** ****** ****** ****** ****** ******
      ****** ****** ****** ****** ****** ****** ****** ****** ****** ******
  12  ****** ****** ****** ****** ****** ****** ****** ****** ****** ******
      ****** ****** ****** ****** ****** ****** ****** ****** ****** ******
      ****** ****** ****** ****** ****** ****** ****** ****** ****** ******
  13  ****** ****** ****** ****** ****** ****** ****** ****** ****** ******
      ****** ****** ****** ****** ****** ****** ****** ****** ****** ******
      ****** ****** ****** ****** ****** ****** ****** ****** ****** ******
  14  ****** ****** ****** ****** ****** ****** ****** ****** ****** ******
      ****** ****** ****** ****** ****** ****** ****** ****** ****** ******
      ****** ****** ****** ****** ****** ****** ****** ****** ****** ******
  15  ****** ****** ****** ****** ****** ****** ****** ****** ****** ******
      ****** ****** ****** ****** ****** ****** ****** ****** ****** ******
      ****** ****** ****** ****** ****** ****** ****** ****** ****** ******
  16  ****** ****** ****** ****** ****** ****** ****** ****** ****** ******
      ****** ****** ****** ****** ****** ****** ****** ****** ****** ******
      ****** ****** ****** ****** ****** ****** ****** ****** ****** ******
  17  ****** ****** ****** ****** ****** ****** ****** ****** ****** ******
      ****** ****** ****** ****** ****** ****** ****** ****** ****** ******
      ****** ****** ****** ****** ****** ****** ****** ****** ****** ******
  18  ****** ****** ****** ****** ****** ****** ****** ****** ****** ******
      ****** ****** ****** ****** ****** ****** ****** ****** ****** ******
      ****** ****** ****** ****** ****** ****** ****** ****** ****** ******
  19  ****** ****** ****** ****** ****** ****** ****** ****** ****** ******
      ****** ****** ****** ****** ****** ****** ****** ****** ****** ******
      ****** ****** ****** ****** ****** ****** ****** ****** ****** ******
  20  ****** ****** ****** ****** ****** ****** ****** ****** ****** ******
      ****** ****** ****** ****** ****** ****** ****** ****** ****** ******
      ****** ****** ****** ****** ****** ****** ****** ****** ****** ******
  21  ****** ****** ****** ****** ****** ****** ****** ****** ****** ******
      ****** ****** ****** ****** ****** ****** ****** ****** ****** ******
      ****** ****** ****** ****** ****** ****** ****** ****** ****** ******
  22  ****** ****** ****** ****** ****** ****** ****** ****** ****** ******
      ****** ****** ****** ****** ****** ****** ****** ****** ****** ******
      ****** ****** ****** ****** ****** ****** ****** ****** ****** ******
  23  ****** ****** ****** ****** ****** ****** ****** ****** ****** ******
      ****** ****** ****** ****** ****** ****** ****** ****** ****** ******
      ****** ****** ****** ****** ****** ****** ****** ****** ****** ******
  24  ****** ****** ****** ****** ****** ****** ****** ****** ****** ******
      ****** ****** ****** ****** ****** ****** ****** ****** ****** ******
      ****** ****** ****** ****** ****** ****** ****** ****** ****** ******
  25  ****** ****** ****** ****** ****** ****** ****** ****** ****** ******
      ****** ****** ****** ****** ****** ****** ****** ****** ****** ******
      ****** ****** ****** ****** ****** ****** ****** ****** ****** ******

 HEAD WILL BE SAVED ON UNIT   51 AT END OF TIME STEP    1, STRESS PERIOD    3
1
  VOLUMETRIC BUDGET FOR ENTIRE MODEL AT END OF TIME STEP    1, STRESS PERIOD   3
  ------------------------------------------------------------------------------

     CUMULATIVE VOLUMES      L**3       RATES FOR THIS TIME STEP      L**3/T
     ------------------                 ------------------------

           IN:                                      IN:
           ---                                      ---
             STORAGE =    23357058.6079               STORAGE =       26767.9493
       CONSTANT HEAD =    41477006.6503         CONSTANT HEAD =      174755.8165
               WELLS =           0.0000                 WELLS =           0.0000
            RECHARGE =     6292800.0000              RECHARGE =           0.0000
      STREAM LEAKAGE =     1718611.0085        STREAM LEAKAGE =        7087.3868

            TOTAL IN =    72845476.2668              TOTAL IN =      208611.1526

          OUT:                                     OUT:
          ----                                     ----
             STORAGE =           0.0000               STORAGE =           0.0000
       CONSTANT HEAD =           0.0000         CONSTANT HEAD =           0.0000
               WELLS =    24877964.3675                 WELLS =       90795.4904
            RECHARGE =           0.0000              RECHARGE =           0.0000
      STREAM LEAKAGE =    47967512.7603        STREAM LEAKAGE =      117815.6649

           TOTAL OUT =    72845477.1278             TOTAL OUT =      208611.1553

            IN - OUT =          -0.8610              IN - OUT =      -2.7273E-03

 PERCENT DISCREPANCY =          -0.00     PERCENT DISCREPANCY =          -0.00






         TIME SUMMARY AT END OF TIME STEP    1 IN STRESS PERIOD    3
                    SECONDS     MINUTES      HOURS       DAYS        YEARS
                    -----------------------------------------------------------
   TIME STEP LENGTH 7.86240E+06 1.31040E+05  2184.0      91.000     0.24914    
 STRESS PERIOD TIME 7.86240E+06 1.31040E+05  2184.0      91.000     0.24914    
         TOTAL TIME 2.36736E+07 3.94560E+05  6576.0      274.00     0.75017    
1
1
                            STRESS PERIOD NO.    4, LENGTH =   91.00000    
                            -----------------------------------------------

                              NUMBER OF TIME STEPS =     1

                               MULTIPLIER FOR DELT =     1.500

                            INITIAL TIME STEP SIZE =   91.00000    

 WELL NO.  LAYER   ROW   COL   STRESS RATE         
 --------------------------------------------------
      1      1     21     15      -9504.    
      2      1     23     15     -0.2528E+05
      3      1     23     11     -0.3088E+05
      4      1     21     17     -0.2513E+05

      4 WELLS

                 RECHARGE =  1.000000E-03

 REUSING STREAM SEGMENT DATA FROM LAST STRESS PERIOD
 
 SOLVING FOR HEAD 


     6 CALLS TO PCG ROUTINE FOR TIME STEP   1 IN STRESS PERIOD    4
    20 TOTAL ITERATIONS

 OUTPUT CONTROL FOR STRESS PERIOD    4   TIME STEP    1
    SAVE BUDGET
    SAVE HEAD FOR ALL LAYERS
    PRINT HEAD FOR ALL LAYERS
 UBDSV2 SAVING "STREAMFLOW OUT  " ON UNIT  50 AT TIME STEP  1, STRESS PERIOD   4



 STREAM LISTING     PERIOD      4   STEP        1

 LAYER ROW COL. STREAM  RCH.  FLOW INTO     FLOW TO   FLOW OUT OF   OVRLND.     DIRECT     STREAM       STREAM     STREAM     STREAM   STREAMBED  STREAMBED
                SEG.NO.  NO.  STRM. RCH.    AQUIFER    STRM. RCH.    RUNOFF     PRECIP       ET          HEAD       DEPTH      WIDTH   CONDCTNC.   GRADIENT

   1   13    1     1     1    1.0000E+05 -2.9001E+03   1.0290E+05  0.000E+00  0.000E+00  0.000E+00  4.84073E+01  1.459E-01  2.000E+01  2.000E+04 -1.450E-01
   1   13    2     1     2    1.0290E+05 -4.8985E+03   1.0780E+05  0.000E+00  0.000E+00  0.000E+00  4.79333E+01  1.492E-01  2.000E+01  2.000E+04 -2.449E-01
   1   14    3     1     3    1.0780E+05 -3.8452E+03   1.1164E+05  0.000E+00  0.000E+00  0.000E+00  4.74598E+01  1.529E-01  2.000E+01  2.000E+04 -1.923E-01
   1   15    4     1     4    1.1164E+05 -3.6292E+03   1.1527E+05  0.000E+00  0.000E+00  0.000E+00  4.69856E+01  1.560E-01  2.000E+01  2.000E+04 -1.815E-01
   1   16    5     1     5    1.1527E+05 -3.6200E+03   1.1889E+05  0.000E+00  0.000E+00  0.000E+00  4.65113E+01  1.590E-01  2.000E+01  2.000E+04 -1.810E-01
   1   16    6     1     6    1.1889E+05 -2.7962E+03   1.2169E+05  0.000E+00  0.000E+00  0.000E+00  4.60366E+01  1.616E-01  2.000E+01  2.000E+04 -1.398E-01
   1   16    7     1     7    1.2169E+05 -2.7293E+03   1.2442E+05  0.000E+00  0.000E+00  0.000E+00  4.55616E+01  1.638E-01  2.000E+01  2.000E+04 -1.365E-01
   1   16    8     1     8    1.2442E+05 -2.5846E+03   1.2700E+05  0.000E+00  0.000E+00  0.000E+00  4.50864E+01  1.659E-01  2.000E+01  2.000E+04 -1.292E-01
   1   16    9     1     9    1.2700E+05 -2.3545E+03   1.2936E+05  0.000E+00  0.000E+00  0.000E+00  4.46111E+01  1.679E-01  2.000E+01  2.000E+04 -1.177E-01
   1   16   10     1    10    1.2936E+05 -2.0408E+03   1.3140E+05  0.000E+00  0.000E+00  0.000E+00  4.41355E+01  1.696E-01  2.000E+01  2.000E+04 -1.020E-01
   1   16   11     1    11    1.3140E+05 -1.6268E+03   1.3303E+05  0.000E+00  0.000E+00  0.000E+00  4.36597E+01  1.710E-01  2.000E+01  2.000E+04 -8.134E-02
   1   16   12     1    12    1.3303E+05 -1.0544E+03   1.3408E+05  0.000E+00  0.000E+00  0.000E+00  4.31834E+01  1.721E-01  2.000E+01  2.000E+04 -5.272E-02
   1   15   13     1    13    1.3408E+05 -1.8701E+03   1.3595E+05  0.000E+00  0.000E+00  0.000E+00  4.27073E+01  1.732E-01  2.000E+01  2.000E+04 -9.351E-02
   1   14   14     1    14    1.3595E+05 -2.5730E+03   1.3852E+05  0.000E+00  0.000E+00  0.000E+00  4.22317E+01  1.749E-01  2.000E+01  2.000E+04 -1.286E-01
   1   13   15     1    15    1.3852E+05 -3.4174E+03   1.4194E+05  0.000E+00  0.000E+00  0.000E+00  4.17567E+01  1.772E-01  2.000E+01  2.000E+04 -1.709E-01
   1   12   16     1    16    1.4194E+05 -5.2202E+03   1.4716E+05  0.000E+00  0.000E+00  0.000E+00  4.12827E+01  1.804E-01  2.000E+01  2.000E+04 -2.610E-01
   1   12   17     1    17    1.4716E+05 -3.1991E+03   1.5036E+05  0.000E+00  0.000E+00  0.000E+00  4.08086E+01  1.836E-01  2.000E+01  2.000E+04 -1.600E-01
   1   12   18     1    18    1.5036E+05 -3.0768E+03   1.5344E+05  0.000E+00  0.000E+00  0.000E+00  4.03336E+01  1.859E-01  2.000E+01  2.000E+04 -1.538E-01
   1   12   19     1    19    1.5344E+05 -4.2824E+03   1.5772E+05  0.000E+00  0.000E+00  0.000E+00  3.98590E+01  1.886E-01  2.000E+01  2.000E+04 -2.141E-01
   1   13   20     1    20    1.5772E+05 -2.2538E+03   1.5997E+05  0.000E+00  0.000E+00  0.000E+00  3.93841E+01  1.909E-01  2.000E+01  2.000E+04 -1.127E-01
   1   14   21     1    21    1.5997E+05 -1.1002E+03   1.6107E+05  0.000E+00  0.000E+00  0.000E+00  3.89081E+01  1.922E-01  2.000E+01  2.000E+04 -5.501E-02
   1   14   22     1    22    1.6107E+05  5.0923E+03   1.5598E+05  0.000E+00  0.000E+00  0.000E+00  3.84294E+01  1.907E-01  2.000E+01  2.000E+04  2.546E-01
   1    9   30     2     1    5.0000E+04 -2.8031E+03   5.2803E+04  0.000E+00  0.000E+00  0.000E+00  4.02428E+01  1.178E-01  2.000E+01  2.000E+04 -1.402E-01
   1    9   29     2     2    5.2803E+04 -3.1356E+03   5.5939E+04  0.000E+00  0.000E+00  0.000E+00  3.99968E+01  1.218E-01  2.000E+01  2.000E+04 -1.568E-01
   1    9   28     2     3    5.5939E+04 -3.5184E+03   5.9457E+04  0.000E+00  0.000E+00  0.000E+00  3.97513E+01  1.263E-01  2.000E+01  2.000E+04 -1.759E-01
   1    9   27     2     4    5.9457E+04 -6.2672E+03   6.5724E+04  0.000E+00  0.000E+00  0.000E+00  3.95076E+01  1.326E-01  2.000E+01  2.000E+04 -3.134E-01
   1   10   26     2     5    6.5724E+04 -3.8970E+03   6.9621E+04  0.000E+00  0.000E+00  0.000E+00  3.92639E+01  1.389E-01  2.000E+01  2.000E+04 -1.949E-01
   1   11   25     2     6    6.9621E+04 -2.8505E+03   7.2472E+04  0.000E+00  0.000E+00  0.000E+00  3.90181E+01  1.431E-01  2.000E+01  2.000E+04 -1.425E-01
   1   12   24     2     7    7.2472E+04 -1.9980E+03   7.4470E+04  0.000E+00  0.000E+00  0.000E+00  3.87710E+01  1.460E-01  2.000E+01  2.000E+04 -9.990E-02
   1   13   23     2     8    7.4470E+04 -1.1601E+03   7.5630E+04  0.000E+00  0.000E+00  0.000E+00  3.85228E+01  1.478E-01  2.000E+01  2.000E+04 -5.801E-02
   1   14   22     2     9    7.5630E+04  1.9527E+03   7.3677E+04  0.000E+00  0.000E+00  0.000E+00  3.82724E+01  1.474E-01  2.000E+01  2.000E+04  9.763E-02
   1   14   22     3     1    2.2966E+05 -8.3870E+03   2.3804E+05  0.000E+00  0.000E+00  0.000E+00  3.77554E+01  1.998E-01  2.000E+01  2.000E+04 -4.193E-01
   1   15   23     3     2    2.3804E+05 -1.9906E+03   2.4003E+05  0.000E+00  0.000E+00  0.000E+00  3.68691E+01  2.025E-01  2.000E+01  2.000E+04 -9.953E-02
   1   15   24     3     3    2.4003E+05 -1.6789E+03   2.4171E+05  0.000E+00  0.000E+00  0.000E+00  3.59812E+01  2.034E-01  2.000E+01  2.000E+04 -8.395E-02
   1   15   25     3     4    2.4171E+05 -1.7185E+03   2.4343E+05  0.000E+00  0.000E+00  0.000E+00  3.50932E+01  2.043E-01  2.000E+01  2.000E+04 -8.593E-02
   1   15   26     3     5    2.4343E+05 -2.2070E+03   2.4564E+05  0.000E+00  0.000E+00  0.000E+00  3.42053E+01  2.053E-01  2.000E+01  2.000E+04 -1.103E-01
   1   16   27     3     6    2.4564E+05 -3.0250E+03   2.4866E+05  0.000E+00  0.000E+00  0.000E+00  3.33177E+01  2.066E-01  2.000E+01  2.000E+04 -1.512E-01
   1   17   28     3     7    2.4866E+05 -3.8687E+03   2.5253E+05  0.000E+00  0.000E+00  0.000E+00  3.24305E+01  2.083E-01  2.000E+01  2.000E+04 -1.934E-01
   1   18   29     3     8    2.5253E+05 -5.5665E+03   2.5810E+05  0.000E+00  0.000E+00  0.000E+00  3.15440E+01  2.106E-01  2.000E+01  2.000E+04 -2.783E-01
   1   18   30     3     9    2.5810E+05 -4.7519E+03   2.6285E+05  0.000E+00  0.000E+00  0.000E+00  3.06576E+01  2.132E-01  2.000E+01  2.000E+04 -2.376E-01



1
              HEAD IN LAYER   1 AT END OF TIME STEP   1 IN STRESS PERIOD    4
  ---------------------------------------------------------------------------

          1      2      3      4      5      6      7      8      9     10
         11     12     13     14     15     16     17     18     19     20
         21     22     23     24     25     26     27     28     29     30
 .........................................................................
   1  ****** ****** ****** ****** ****** ****** ****** ****** ****** ******
      ****** ****** ****** ****** ****** ****** ****** ****** ****** ******
      ****** ****** ****** ****** ****** ****** ****** ****** ****** ******
   2  ****** ****** ****** ****** ****** ****** ****** ****** ****** ******
      ****** ****** ****** ****** ****** ****** ****** ****** ****** ******
      ****** ****** ****** ****** ****** ****** ****** ****** ****** ******
   3  ****** ****** ****** ****** ****** ****** ****** ****** ****** ******
      ****** ****** ****** ****** ****** ****** ****** ****** ****** ******
      ****** ****** ****** ****** ****** ****** ****** ****** ****** ******
   4  ****** ****** ****** ****** ****** ****** ****** ****** ****** ******
      ****** ****** ****** ****** ****** ****** ****** ****** ****** ******
      ****** ****** ****** ****** ****** ****** ****** ****** ****** ******
   5  ****** ****** ****** ****** ****** ****** ****** ****** ****** ******
      ****** ****** ****** ****** ****** ****** ****** ****** ****** ******
      ****** ****** ****** ****** ****** ****** ****** ****** ****** ******
   6  ****** ****** ****** ****** ****** ****** ****** ****** ****** ******
      ****** ****** ****** ****** ****** ****** ****** ****** ****** ******
      ****** ****** ****** ****** ****** ****** ****** ****** ****** ******
   7  ****** ****** ****** ****** ****** ****** ****** ****** ****** ******
      ****** ****** ****** ****** ****** ****** ****** ****** ****** ******
      ****** ****** ****** ****** ****** ****** ****** ****** ****** ******
   8  ****** ****** ****** ****** ****** ****** ****** ****** ****** ******
      ****** ****** ****** ****** ****** ****** ****** ****** ****** ******
      ****** ****** ****** ****** ****** ****** ****** ****** ****** ******
   9  ****** ****** ****** ****** ****** ****** ****** ****** ****** ******
      ****** ****** ****** ****** ****** ****** ****** ****** ****** ******
      ****** ****** ****** ****** ****** ****** ****** ****** ****** ******
  10  ****** ****** ****** ****** ****** ****** ****** ****** ****** ******
      ****** ****** ****** ****** ****** ****** ****** ****** ****** ******
      ****** ****** ****** ****** ****** ****** ****** ****** ****** ******
  11  ****** ****** ****** ****** ****** ****** ****** ****** ****** ******
      ****** ****** ****** ****** ****** ****** ****** ****** ****** ******
      ****** ****** ****** ****** ****** ****** ****** ****** ****** ******
  12  ****** ****** ****** ****** ****** ****** ****** ****** ****** ******
      ****** ****** ****** ****** ****** ****** ****** ****** ****** ******
      ****** ****** ****** ****** ****** ****** ****** ****** ****** ******
  13  ****** ****** ****** ****** ****** ****** ****** ****** ****** ******
      ****** ****** ****** ****** ****** ****** ****** ****** ****** ******
      ****** ****** ****** ****** ****** ****** ****** ****** ****** ******
  14  ****** ****** ****** ****** ****** ****** ****** ****** ****** ******
      ****** ****** ****** ****** ****** ****** ****** ****** ****** ******
      ****** ****** ****** ****** ****** ****** ****** ****** ****** ******
  15  ****** ****** ****** ****** ****** ****** ****** ****** ****** ******
      ****** ****** ****** ****** ****** ****** ****** ****** ****** ******
      ****** ****** ****** ****** ****** ****** ****** ****** ****** ******
  16  ****** ****** ****** ****** ****** ****** ****** ****** ****** ******
      ****** ****** ****** ****** ****** ****** ****** ****** ****** ******
      ****** ****** ****** ****** ****** ****** ****** ****** ****** ******
  17  ****** ****** ****** ****** ****** ****** ****** ****** ****** ******
      ****** ****** ****** ****** ****** ****** ****** ****** ****** ******
      ****** ****** ****** ****** ****** ****** ****** ****** ****** ******
  18  ****** ****** ****** ****** ****** ****** ****** ****** ****** ******
      ****** ****** ****** ****** ****** ****** ****** ****** ****** ******
      ****** ****** ****** ****** ****** ****** ****** ****** ****** ******
  19  ****** ****** ****** ****** ****** ****** ****** ****** ****** ******
      ****** ****** ****** ****** ****** ****** ****** ****** ****** ******
      ****** ****** ****** ****** ****** ****** ****** ****** ****** ******
  20  ****** ****** ****** ****** ****** ****** ****** ****** ****** ******
      ****** ****** ****** ****** ****** ****** ****** ****** ****** ******
      ****** ****** ****** ****** ****** ****** ****** ****** ****** ******
  21  ****** ****** ****** ****** ****** ****** ****** ****** ****** ******
      ****** ****** ****** ****** ****** ****** ****** ****** ****** ******
      ****** ****** ****** ****** ****** ****** ****** ****** ****** ******
  22  ****** ****** ****** ****** ****** ****** ****** ****** ****** ******
      ****** ****** ****** ****** ****** ****** ****** ****** ****** ******
      ****** ****** ****** ****** ****** ****** ****** ****** ****** ******
  23  ****** ****** ****** ****** ****** ****** ****** ****** ****** ******
      ****** ****** ****** ****** ****** ****** ****** ****** ****** ******
      ****** ****** ****** ****** ****** ****** ****** ****** ****** ******
  24  ****** ****** ****** ****** ****** ****** ****** ****** ****** ******
      ****** ****** ****** ****** ****** ****** ****** ****** ****** ******
      ****** ****** ****** ****** ****** ****** ****** ****** ****** ******
  25  ****** ****** ****** ****** ****** ****** ****** ****** ****** ******
      ****** ****** ****** ****** ****** ****** ****** ****** ****** ******
      ****** ****** ****** ****** ****** ****** ****** ****** ****** ******

 HEAD WILL BE SAVED ON UNIT   51 AT END OF TIME STEP    1, STRESS PERIOD    4
1
  VOLUMETRIC BUDGET FOR ENTIRE MODEL AT END OF TIME STEP    1, STRESS PERIOD   4
  ------------------------------------------------------------------------------

     CUMULATIVE VOLUMES      L**3       RATES FOR THIS TIME STEP      L**3/T
     ------------------                 ------------------------

           IN:                                      IN:
           ---                                      ---
             STORAGE =    23513303.0152               STORAGE =        1716.9715
       CONSTANT HEAD =    57362679.9291         CONSTANT HEAD =      174567.8382
               WELLS =           0.0000                 WELLS =           0.0000
            RECHARGE =     8804400.0000              RECHARGE =       27600.0000
      STREAM LEAKAGE =     2359705.3359        STREAM LEAKAGE =        7044.9926

            TOTAL IN =    92040088.2801              TOTAL IN =      210929.8023

          OUT:                                     OUT:
          ----                                     ----
             STORAGE =       21639.4760               STORAGE =         237.7964
       CONSTANT HEAD =           0.0000         CONSTANT HEAD =           0.0000
               WELLS =    33140353.9932                 WELLS =       90795.4904
            RECHARGE =           0.0000              RECHARGE =           0.0000
      STREAM LEAKAGE =    58878095.5079        STREAM LEAKAGE =      119896.5137

           TOTAL OUT =    92040088.9771             TOTAL OUT =      210929.8005

            IN - OUT =          -0.6969              IN - OUT =       1.8031E-03

 PERCENT DISCREPANCY =          -0.00     PERCENT DISCREPANCY =           0.00






         TIME SUMMARY AT END OF TIME STEP    1 IN STRESS PERIOD    4
                    SECONDS     MINUTES      HOURS       DAYS        YEARS
                    -----------------------------------------------------------
   TIME STEP LENGTH 7.86240E+06 1.31040E+05  2184.0      91.000     0.24914    
 STRESS PERIOD TIME 7.86240E+06 1.31040E+05  2184.0      91.000     0.24914    
         TOTAL TIME 3.15360E+07 5.25600E+05  8760.0      365.00     0.99932    
1
1
                            STRESS PERIOD NO.    5, LENGTH =   92.00000    
                            -----------------------------------------------

                              NUMBER OF TIME STEPS =     1

                               MULTIPLIER FOR DELT =     1.500

                            INITIAL TIME STEP SIZE =   92.00000    

 WELL NO.  LAYER   ROW   COL   STRESS RATE         
 --------------------------------------------------
      1      1     21     15      -9504.    
      2      1     23     15     -0.2528E+05
      3      1     23     11     -0.3088E+05
      4      1     21     17     -0.2513E+05

      4 WELLS

                 RECHARGE =  5.000000E-04

 REUSING STREAM SEGMENT DATA FROM LAST STRESS PERIOD
 
 SOLVING FOR HEAD 


     6 CALLS TO PCG ROUTINE FOR TIME STEP   1 IN STRESS PERIOD    5
    23 TOTAL ITERATIONS

 OUTPUT CONTROL FOR STRESS PERIOD    5   TIME STEP    1
    SAVE BUDGET
    SAVE HEAD FOR ALL LAYERS
    PRINT HEAD FOR ALL LAYERS
 UBDSV2 SAVING "STREAMFLOW OUT  " ON UNIT  50 AT TIME STEP  1, STRESS PERIOD   5



 STREAM LISTING     PERIOD      5   STEP        1

 LAYER ROW COL. STREAM  RCH.  FLOW INTO     FLOW TO   FLOW OUT OF   OVRLND.     DIRECT     STREAM       STREAM     STREAM     STREAM   STREAMBED  STREAMBED
                SEG.NO.  NO.  STRM. RCH.    AQUIFER    STRM. RCH.    RUNOFF     PRECIP       ET          HEAD       DEPTH      WIDTH   CONDCTNC.   GRADIENT

   1   13    1     1     1    1.0000E+05 -2.7251E+03   1.0273E+05  0.000E+00  0.000E+00  0.000E+00  4.84072E+01  1.458E-01  2.000E+01  2.000E+04 -1.363E-01
   1   13    2     1     2    1.0273E+05 -4.6569E+03   1.0738E+05  0.000E+00  0.000E+00  0.000E+00  4.79331E+01  1.490E-01  2.000E+01  2.000E+04 -2.328E-01
   1   14    3     1     3    1.0738E+05 -3.6181E+03   1.1100E+05  0.000E+00  0.000E+00  0.000E+00  4.74593E+01  1.525E-01  2.000E+01  2.000E+04 -1.809E-01
   1   15    4     1     4    1.1100E+05 -3.4115E+03   1.1441E+05  0.000E+00  0.000E+00  0.000E+00  4.69850E+01  1.554E-01  2.000E+01  2.000E+04 -1.706E-01
   1   16    5     1     5    1.1441E+05 -3.4259E+03   1.1784E+05  0.000E+00  0.000E+00  0.000E+00  4.65105E+01  1.582E-01  2.000E+01  2.000E+04 -1.713E-01
   1   16    6     1     6    1.1784E+05 -2.6377E+03   1.2048E+05  0.000E+00  0.000E+00  0.000E+00  4.60357E+01  1.607E-01  2.000E+01  2.000E+04 -1.319E-01
   1   16    7     1     7    1.2048E+05 -2.5658E+03   1.2304E+05  0.000E+00  0.000E+00  0.000E+00  4.55605E+01  1.628E-01  2.000E+01  2.000E+04 -1.283E-01
   1   16    8     1     8    1.2304E+05 -2.4180E+03   1.2546E+05  0.000E+00  0.000E+00  0.000E+00  4.50852E+01  1.648E-01  2.000E+01  2.000E+04 -1.209E-01
   1   16    9     1     9    1.2546E+05 -2.1867E+03   1.2765E+05  0.000E+00  0.000E+00  0.000E+00  4.46098E+01  1.666E-01  2.000E+01  2.000E+04 -1.093E-01
   1   16   10     1    10    1.2765E+05 -1.8735E+03   1.2952E+05  0.000E+00  0.000E+00  0.000E+00  4.41341E+01  1.682E-01  2.000E+01  2.000E+04 -9.368E-02
   1   16   11     1    11    1.2952E+05 -1.4607E+03   1.3098E+05  0.000E+00  0.000E+00  0.000E+00  4.36581E+01  1.695E-01  2.000E+01  2.000E+04 -7.303E-02
   1   16   12     1    12    1.3098E+05 -8.3561E+02   1.3182E+05  0.000E+00  0.000E+00  0.000E+00  4.31818E+01  1.704E-01  2.000E+01  2.000E+04 -4.178E-02
   1   15   13     1    13    1.3182E+05 -1.6315E+03   1.3345E+05  0.000E+00  0.000E+00  0.000E+00  4.27055E+01  1.714E-01  2.000E+01  2.000E+04 -8.157E-02
   1   14   14     1    14    1.3345E+05 -2.3296E+03   1.3578E+05  0.000E+00  0.000E+00  0.000E+00  4.22297E+01  1.729E-01  2.000E+01  2.000E+04 -1.165E-01
   1   13   15     1    15    1.3578E+05 -3.1788E+03   1.3896E+05  0.000E+00  0.000E+00  0.000E+00  4.17546E+01  1.750E-01  2.000E+01  2.000E+04 -1.589E-01
   1   12   16     1    16    1.3896E+05 -4.9904E+03   1.4395E+05  0.000E+00  0.000E+00  0.000E+00  4.12804E+01  1.781E-01  2.000E+01  2.000E+04 -2.495E-01
   1   12   17     1    17    1.4395E+05 -3.0354E+03   1.4698E+05  0.000E+00  0.000E+00  0.000E+00  4.08061E+01  1.811E-01  2.000E+01  2.000E+04 -1.518E-01
   1   12   18     1    18    1.4698E+05 -2.9193E+03   1.4990E+05  0.000E+00  0.000E+00  0.000E+00  4.03311E+01  1.833E-01  2.000E+01  2.000E+04 -1.460E-01
   1   12   19     1    19    1.4990E+05 -4.0964E+03   1.5400E+05  0.000E+00  0.000E+00  0.000E+00  3.98564E+01  1.859E-01  2.000E+01  2.000E+04 -2.048E-01
   1   13   20     1    20    1.5400E+05 -2.0735E+03   1.5607E+05  0.000E+00  0.000E+00  0.000E+00  3.93814E+01  1.882E-01  2.000E+01  2.000E+04 -1.037E-01
   1   14   21     1    21    1.5607E+05 -9.2729E+02   1.5700E+05  0.000E+00  0.000E+00  0.000E+00  3.89052E+01  1.893E-01  2.000E+01  2.000E+04 -4.636E-02
   1   14   22     1    22    1.5700E+05  5.1183E+03   1.5188E+05  0.000E+00  0.000E+00  0.000E+00  3.84264E+01  1.877E-01  2.000E+01  2.000E+04  2.559E-01
   1    9   30     2     1    5.0000E+04 -2.6876E+03   5.2688E+04  0.000E+00  0.000E+00  0.000E+00  4.02427E+01  1.177E-01  2.000E+01  2.000E+04 -1.344E-01
   1    9   29     2     2    5.2688E+04 -3.0205E+03   5.5708E+04  0.000E+00  0.000E+00  0.000E+00  3.99966E+01  1.216E-01  2.000E+01  2.000E+04 -1.510E-01
   1    9   28     2     3    5.5708E+04 -3.4025E+03   5.9111E+04  0.000E+00  0.000E+00  0.000E+00  3.97509E+01  1.259E-01  2.000E+01  2.000E+04 -1.701E-01
   1    9   27     2     4    5.9111E+04 -6.1061E+03   6.5217E+04  0.000E+00  0.000E+00  0.000E+00  3.95070E+01  1.320E-01  2.000E+01  2.000E+04 -3.053E-01
   1   10   26     2     5    6.5217E+04 -3.7310E+03   6.8948E+04  0.000E+00  0.000E+00  0.000E+00  3.92632E+01  1.382E-01  2.000E+01  2.000E+04 -1.866E-01
   1   11   25     2     6    6.8948E+04 -2.6908E+03   7.1638E+04  0.000E+00  0.000E+00  0.000E+00  3.90171E+01  1.421E-01  2.000E+01  2.000E+04 -1.345E-01
   1   12   24     2     7    7.1638E+04 -1.8560E+03   7.3494E+04  0.000E+00  0.000E+00  0.000E+00  3.87699E+01  1.449E-01  2.000E+01  2.000E+04 -9.280E-02
   1   13   23     2     8    7.3494E+04 -1.0487E+03   7.4543E+04  0.000E+00  0.000E+00  0.000E+00  3.85216E+01  1.466E-01  2.000E+01  2.000E+04 -5.244E-02
   1   14   22     2     9    7.4543E+04  2.0115E+03   7.2532E+04  0.000E+00  0.000E+00  0.000E+00  3.82710E+01  1.460E-01  2.000E+01  2.000E+04  1.006E-01
   1   14   22     3     1    2.2441E+05 -8.3558E+03   2.3277E+05  0.000E+00  0.000E+00  0.000E+00  3.77527E+01  1.971E-01  2.000E+01  2.000E+04 -4.178E-01
   1   15   23     3     2    2.3277E+05 -1.8305E+03   2.3460E+05  0.000E+00  0.000E+00  0.000E+00  3.68664E+01  1.997E-01  2.000E+01  2.000E+04 -9.152E-02
   1   15   24     3     3    2.3460E+05 -1.5715E+03   2.3617E+05  0.000E+00  0.000E+00  0.000E+00  3.59784E+01  2.006E-01  2.000E+01  2.000E+04 -7.857E-02
   1   15   25     3     4    2.3617E+05 -1.6159E+03   2.3778E+05  0.000E+00  0.000E+00  0.000E+00  3.50903E+01  2.014E-01  2.000E+01  2.000E+04 -8.080E-02
   1   15   26     3     5    2.3778E+05 -2.0836E+03   2.3987E+05  0.000E+00  0.000E+00  0.000E+00  3.42024E+01  2.024E-01  2.000E+01  2.000E+04 -1.042E-01
   1   16   27     3     6    2.3987E+05 -2.8647E+03   2.4273E+05  0.000E+00  0.000E+00  0.000E+00  3.33147E+01  2.036E-01  2.000E+01  2.000E+04 -1.432E-01
   1   17   28     3     7    2.4273E+05 -3.7049E+03   2.4644E+05  0.000E+00  0.000E+00  0.000E+00  3.24275E+01  2.053E-01  2.000E+01  2.000E+04 -1.852E-01
   1   18   29     3     8    2.4644E+05 -5.4115E+03   2.5185E+05  0.000E+00  0.000E+00  0.000E+00  3.15409E+01  2.076E-01  2.000E+01  2.000E+04 -2.706E-01
   1   18   30     3     9    2.5185E+05 -4.6395E+03   2.5649E+05  0.000E+00  0.000E+00  0.000E+00  3.06545E+01  2.101E-01  2.000E+01  2.000E+04 -2.320E-01



1
              HEAD IN LAYER   1 AT END OF TIME STEP   1 IN STRESS PERIOD    5
  ---------------------------------------------------------------------------

          1      2      3      4      5      6      7      8      9     10
         11     12     13     14     15     16     17     18     19     20
         21     22     23     24     25     26     27     28     29     30
 .........................................................................
   1  ****** ****** ****** ****** ****** ****** ****** ****** ****** ******
      ****** ****** ****** ****** ****** ****** ****** ****** ****** ******
      ****** ****** ****** ****** ****** ****** ****** ****** ****** ******
   2  ****** ****** ****** ****** ****** ****** ****** ****** ****** ******
      ****** ****** ****** ****** ****** ****** ****** ****** ****** ******
      ****** ****** ****** ****** ****** ****** ****** ****** ****** ******
   3  ****** ****** ****** ****** ****** ****** ****** ****** ****** ******
      ****** ****** ****** ****** ****** ****** ****** ****** ****** ******
      ****** ****** ****** ****** ****** ****** ****** ****** ****** ******
   4  ****** ****** ****** ****** ****** ****** ****** ****** ****** ******
      ****** ****** ****** ****** ****** ****** ****** ****** ****** ******
      ****** ****** ****** ****** ****** ****** ****** ****** ****** ******
   5  ****** ****** ****** ****** ****** ****** ****** ****** ****** ******
      ****** ****** ****** ****** ****** ****** ****** ****** ****** ******
      ****** ****** ****** ****** ****** ****** ****** ****** ****** ******
   6  ****** ****** ****** ****** ****** ****** ****** ****** ****** ******
      ****** ****** ****** ****** ****** ****** ****** ****** ****** ******
      ****** ****** ****** ****** ****** ****** ****** ****** ****** ******
   7  ****** ****** ****** ****** ****** ****** ****** ****** ****** ******
      ****** ****** ****** ****** ****** ****** ****** ****** ****** ******
      ****** ****** ****** ****** ****** ****** ****** ****** ****** ******
   8  ****** ****** ****** ****** ****** ****** ****** ****** ****** ******
      ****** ****** ****** ****** ****** ****** ****** ****** ****** ******
      ****** ****** ****** ****** ****** ****** ****** ****** ****** ******
   9  ****** ****** ****** ****** ****** ****** ****** ****** ****** ******
      ****** ****** ****** ****** ****** ****** ****** ****** ****** ******
      ****** ****** ****** ****** ****** ****** ****** ****** ****** ******
  10  ****** ****** ****** ****** ****** ****** ****** ****** ****** ******
      ****** ****** ****** ****** ****** ****** ****** ****** ****** ******
      ****** ****** ****** ****** ****** ****** ****** ****** ****** ******
  11  ****** ****** ****** ****** ****** ****** ****** ****** ****** ******
      ****** ****** ****** ****** ****** ****** ****** ****** ****** ******
      ****** ****** ****** ****** ****** ****** ****** ****** ****** ******
  12  ****** ****** ****** ****** ****** ****** ****** ****** ****** ******
      ****** ****** ****** ****** ****** ****** ****** ****** ****** ******
      ****** ****** ****** ****** ****** ****** ****** ****** ****** ******
  13  ****** ****** ****** ****** ****** ****** ****** ****** ****** ******
      ****** ****** ****** ****** ****** ****** ****** ****** ****** ******
      ****** ****** ****** ****** ****** ****** ****** ****** ****** ******
  14  ****** ****** ****** ****** ****** ****** ****** ****** ****** ******
      ****** ****** ****** ****** ****** ****** ****** ****** ****** ******
      ****** ****** ****** ****** ****** ****** ****** ****** ****** ******
  15  ****** ****** ****** ****** ****** ****** ****** ****** ****** ******
      ****** ****** ****** ****** ****** ****** ****** ****** ****** ******
      ****** ****** ****** ****** ****** ****** ****** ****** ****** ******
  16  ****** ****** ****** ****** ****** ****** ****** ****** ****** ******
      ****** ****** ****** ****** ****** ****** ****** ****** ****** ******
      ****** ****** ****** ****** ****** ****** ****** ****** ****** ******
  17  ****** ****** ****** ****** ****** ****** ****** ****** ****** ******
      ****** ****** ****** ****** ****** ****** ****** ****** ****** ******
      ****** ****** ****** ****** ****** ****** ****** ****** ****** ******
  18  ****** ****** ****** ****** ****** ****** ****** ****** ****** ******
      ****** ****** ****** ****** ****** ****** ****** ****** ****** ******
      ****** ****** ****** ****** ****** ****** ****** ****** ****** ******
  19  ****** ****** ****** ****** ****** ****** ****** ****** ****** ******
      ****** ****** ****** ****** ****** ****** ****** ****** ****** ******
      ****** ****** ****** ****** ****** ****** ****** ****** ****** ******
  20  ****** ****** ****** ****** ****** ****** ****** ****** ****** ******
      ****** ****** ****** ****** ****** ****** ****** ****** ****** ******
      ****** ****** ****** ****** ****** ****** ****** ****** ****** ******
  21  ****** ****** ****** ****** ****** ****** ****** ****** ****** ******
      ****** ****** ****** ****** ****** ****** ****** ****** ****** ******
      ****** ****** ****** ****** ****** ****** ****** ****** ****** ******
  22  ****** ****** ****** ****** ****** ****** ****** ****** ****** ******
      ****** ****** ****** ****** ****** ****** ****** ****** ****** ******
      ****** ****** ****** ****** ****** ****** ****** ****** ****** ******
  23  ****** ****** ****** ****** ****** ****** ****** ****** ****** ******
      ****** ****** ****** ****** ****** ****** ****** ****** ****** ******
      ****** ****** ****** ****** ****** ****** ****** ****** ****** ******
  24  ****** ****** ****** ****** ****** ****** ****** ****** ****** ******
      ****** ****** ****** ****** ****** ****** ****** ****** ****** ******
      ****** ****** ****** ****** ****** ****** ****** ****** ****** ******
  25  ****** ****** ****** ****** ****** ****** ****** ****** ****** ******
      ****** ****** ****** ****** ****** ****** ****** ****** ****** ******
      ****** ****** ****** ****** ****** ****** ****** ****** ****** ******

 HEAD WILL BE SAVED ON UNIT   51 AT END OF TIME STEP    1, STRESS PERIOD    5
1
  VOLUMETRIC BUDGET FOR ENTIRE MODEL AT END OF TIME STEP    1, STRESS PERIOD   5
  ------------------------------------------------------------------------------

     CUMULATIVE VOLUMES      L**3       RATES FOR THIS TIME STEP      L**3/T
     ------------------                 ------------------------

           IN:                                      IN:
           ---                                      ---
             STORAGE =    23929228.3396               STORAGE =        4520.9274
       CONSTANT HEAD =    73827303.9580         CONSTANT HEAD =      178963.3047
               WELLS =           0.0000                 WELLS =           0.0000
            RECHARGE =    10074000.0000              RECHARGE =       13800.0000
      STREAM LEAKAGE =     3015647.9088        STREAM LEAKAGE =        7129.8106

            TOTAL IN =   110846180.2064              TOTAL IN =      204414.0427

          OUT:                                     OUT:
          ----                                     ----
             STORAGE =       21639.4760               STORAGE =           0.0000
       CONSTANT HEAD =           0.0000         CONSTANT HEAD =           0.0000
               WELLS =    41493539.1092                 WELLS =       90795.4904
            RECHARGE =           0.0000              RECHARGE =           0.0000
      STREAM LEAKAGE =    69331002.3917        STREAM LEAKAGE =      113618.5531

           TOTAL OUT =   110846180.9770             TOTAL OUT =      204414.0435

            IN - OUT =          -0.7706              IN - OUT =      -8.0080E-04

 PERCENT DISCREPANCY =          -0.00     PERCENT DISCREPANCY =          -0.00






         TIME SUMMARY AT END OF TIME STEP    1 IN STRESS PERIOD    5
                    SECONDS     MINUTES      HOURS       DAYS        YEARS
                    -----------------------------------------------------------
   TIME STEP LENGTH 7.94880E+06 1.32480E+05  2208.0      92.000     0.25188    
 STRESS PERIOD TIME 7.94880E+06 1.32480E+05  2208.0      92.000     0.25188    
         TOTAL TIME 3.94848E+07 6.58080E+05  10968.      457.00      1.2512    
1
1
                            STRESS PERIOD NO.    6, LENGTH =   91.00000    
                            -----------------------------------------------

                              NUMBER OF TIME STEPS =     1

                               MULTIPLIER FOR DELT =     1.500

                            INITIAL TIME STEP SIZE =   91.00000    

 WELL NO.  LAYER   ROW   COL   STRESS RATE         
 --------------------------------------------------
      1      1     21     15      -9504.    
      2      1     23     15     -0.2528E+05
      3      1     23     11     -0.3088E+05
      4      1     21     17     -0.2513E+05

      4 WELLS

                 RECHARGE =  2.000000E-03

 REUSING STREAM SEGMENT DATA FROM LAST STRESS PERIOD
 
 SOLVING FOR HEAD 


     7 CALLS TO PCG ROUTINE FOR TIME STEP   1 IN STRESS PERIOD    6
    26 TOTAL ITERATIONS

 OUTPUT CONTROL FOR STRESS PERIOD    6   TIME STEP    1
    SAVE BUDGET
    SAVE HEAD FOR ALL LAYERS
    PRINT HEAD FOR ALL LAYERS
 UBDSV2 SAVING "STREAMFLOW OUT  " ON UNIT  50 AT TIME STEP  1, STRESS PERIOD   6



 STREAM LISTING     PERIOD      6   STEP        1

 LAYER ROW COL. STREAM  RCH.  FLOW INTO     FLOW TO   FLOW OUT OF   OVRLND.     DIRECT     STREAM       STREAM     STREAM     STREAM   STREAMBED  STREAMBED
                SEG.NO.  NO.  STRM. RCH.    AQUIFER    STRM. RCH.    RUNOFF     PRECIP       ET          HEAD       DEPTH      WIDTH   CONDCTNC.   GRADIENT

   1   13    1     1     1    1.0000E+05 -3.1242E+03   1.0312E+05  0.000E+00  0.000E+00  0.000E+00  4.84074E+01  1.460E-01  2.000E+01  2.000E+04 -1.562E-01
   1   13    2     1     2    1.0312E+05 -5.1820E+03   1.0831E+05  0.000E+00  0.000E+00  0.000E+00  4.79336E+01  1.496E-01  2.000E+01  2.000E+04 -2.591E-01
   1   14    3     1     3    1.0831E+05 -4.1565E+03   1.1246E+05  0.000E+00  0.000E+00  0.000E+00  4.74603E+01  1.535E-01  2.000E+01  2.000E+04 -2.078E-01
   1   15    4     1     4    1.1246E+05 -3.9467E+03   1.1641E+05  0.000E+00  0.000E+00  0.000E+00  4.69864E+01  1.568E-01  2.000E+01  2.000E+04 -1.973E-01
   1   16    5     1     5    1.1641E+05 -3.9218E+03   1.2033E+05  0.000E+00  0.000E+00  0.000E+00  4.65123E+01  1.601E-01  2.000E+01  2.000E+04 -1.961E-01
   1   16    6     1     6    1.2033E+05 -3.0279E+03   1.2336E+05  0.000E+00  0.000E+00  0.000E+00  4.60379E+01  1.629E-01  2.000E+01  2.000E+04 -1.514E-01
   1   16    7     1     7    1.2336E+05 -2.9615E+03   1.2632E+05  0.000E+00  0.000E+00  0.000E+00  4.55630E+01  1.652E-01  2.000E+01  2.000E+04 -1.481E-01
   1   16    8     1     8    1.2632E+05 -2.8168E+03   1.2914E+05  0.000E+00  0.000E+00  0.000E+00  4.50880E+01  1.675E-01  2.000E+01  2.000E+04 -1.408E-01
   1   16    9     1     9    1.2914E+05 -2.5851E+03   1.3172E+05  0.000E+00  0.000E+00  0.000E+00  4.46128E+01  1.696E-01  2.000E+01  2.000E+04 -1.293E-01
   1   16   10     1    10    1.3172E+05 -2.2681E+03   1.3399E+05  0.000E+00  0.000E+00  0.000E+00  4.41374E+01  1.715E-01  2.000E+01  2.000E+04 -1.134E-01
   1   16   11     1    11    1.3399E+05 -1.8496E+03   1.3584E+05  0.000E+00  0.000E+00  0.000E+00  4.36618E+01  1.731E-01  2.000E+01  2.000E+04 -9.248E-02
   1   16   12     1    12    1.3584E+05 -1.3346E+03   1.3717E+05  0.000E+00  0.000E+00  0.000E+00  4.31857E+01  1.743E-01  2.000E+01  2.000E+04 -6.673E-02
   1   15   13     1    13    1.3717E+05 -2.1741E+03   1.3935E+05  0.000E+00  0.000E+00  0.000E+00  4.27098E+01  1.757E-01  2.000E+01  2.000E+04 -1.087E-01
   1   14   14     1    14    1.3935E+05 -2.8823E+03   1.4223E+05  0.000E+00  0.000E+00  0.000E+00  4.22344E+01  1.776E-01  2.000E+01  2.000E+04 -1.441E-01
   1   13   15     1    15    1.4223E+05 -3.7230E+03   1.4595E+05  0.000E+00  0.000E+00  0.000E+00  4.17596E+01  1.801E-01  2.000E+01  2.000E+04 -1.861E-01
   1   12   16     1    16    1.4595E+05 -5.5114E+03   1.5147E+05  0.000E+00  0.000E+00  0.000E+00  4.12858E+01  1.835E-01  2.000E+01  2.000E+04 -2.756E-01
   1   12   17     1    17    1.5147E+05 -3.4246E+03   1.5489E+05  0.000E+00  0.000E+00  0.000E+00  4.08118E+01  1.868E-01  2.000E+01  2.000E+04 -1.712E-01
   1   12   18     1    18    1.5489E+05 -3.3024E+03   1.5819E+05  0.000E+00  0.000E+00  0.000E+00  4.03370E+01  1.893E-01  2.000E+01  2.000E+04 -1.651E-01
   1   12   19     1    19    1.5819E+05 -4.5648E+03   1.6276E+05  0.000E+00  0.000E+00  0.000E+00  3.98626E+01  1.921E-01  2.000E+01  2.000E+04 -2.282E-01
   1   13   20     1    20    1.6276E+05 -2.5298E+03   1.6529E+05  0.000E+00  0.000E+00  0.000E+00  3.93878E+01  1.947E-01  2.000E+01  2.000E+04 -1.265E-01
   1   14   21     1    21    1.6529E+05 -1.3453E+03   1.6663E+05  0.000E+00  0.000E+00  0.000E+00  3.89119E+01  1.960E-01  2.000E+01  2.000E+04 -6.727E-02
   1   14   22     1    22    1.6663E+05  5.0401E+03   1.6159E+05  0.000E+00  0.000E+00  0.000E+00  3.84334E+01  1.947E-01  2.000E+01  2.000E+04  2.520E-01
   1    9   30     2     1    5.0000E+04 -3.0447E+03   5.3045E+04  0.000E+00  0.000E+00  0.000E+00  4.02430E+01  1.180E-01  2.000E+01  2.000E+04 -1.522E-01
   1    9   29     2     2    5.3045E+04 -3.3747E+03   5.6419E+04  0.000E+00  0.000E+00  0.000E+00  3.99973E+01  1.223E-01  2.000E+01  2.000E+04 -1.687E-01
   1    9   28     2     3    5.6419E+04 -3.7545E+03   6.0174E+04  0.000E+00  0.000E+00  0.000E+00  3.97520E+01  1.270E-01  2.000E+01  2.000E+04 -1.877E-01
   1    9   27     2     4    6.0174E+04 -6.5756E+03   6.6750E+04  0.000E+00  0.000E+00  0.000E+00  3.95087E+01  1.337E-01  2.000E+01  2.000E+04 -3.288E-01
   1   10   26     2     5    6.6750E+04 -4.2170E+03   7.0967E+04  0.000E+00  0.000E+00  0.000E+00  3.92654E+01  1.404E-01  2.000E+01  2.000E+04 -2.109E-01
   1   11   25     2     6    7.0967E+04 -3.1557E+03   7.4122E+04  0.000E+00  0.000E+00  0.000E+00  3.90199E+01  1.449E-01  2.000E+01  2.000E+04 -1.578E-01
   1   12   24     2     7    7.4122E+04 -2.2670E+03   7.6389E+04  0.000E+00  0.000E+00  0.000E+00  3.87731E+01  1.481E-01  2.000E+01  2.000E+04 -1.133E-01
   1   13   23     2     8    7.6389E+04 -1.3694E+03   7.7759E+04  0.000E+00  0.000E+00  0.000E+00  3.85252E+01  1.502E-01  2.000E+01  2.000E+04 -6.847E-02
   1   14   22     2     9    7.7759E+04  1.8714E+03   7.5887E+04  0.000E+00  0.000E+00  0.000E+00  3.82749E+01  1.499E-01  2.000E+01  2.000E+04  9.357E-02
   1   14   22     3     1    2.3748E+05 -8.4393E+03   2.4592E+05  0.000E+00  0.000E+00  0.000E+00  3.77594E+01  2.038E-01  2.000E+01  2.000E+04 -4.220E-01
   1   15   23     3     2    2.4592E+05 -2.2211E+03   2.4814E+05  0.000E+00  0.000E+00  0.000E+00  3.68732E+01  2.065E-01  2.000E+01  2.000E+04 -1.111E-01
   1   15   24     3     3    2.4814E+05 -1.8557E+03   2.5000E+05  0.000E+00  0.000E+00  0.000E+00  3.59853E+01  2.075E-01  2.000E+01  2.000E+04 -9.278E-02
   1   15   25     3     4    2.5000E+05 -1.9018E+03   2.5190E+05  0.000E+00  0.000E+00  0.000E+00  3.50974E+01  2.085E-01  2.000E+01  2.000E+04 -9.509E-02
   1   15   26     3     5    2.5190E+05 -2.4535E+03   2.5435E+05  0.000E+00  0.000E+00  0.000E+00  3.42096E+01  2.096E-01  2.000E+01  2.000E+04 -1.227E-01
   1   16   27     3     6    2.5435E+05 -3.3278E+03   2.5768E+05  0.000E+00  0.000E+00  0.000E+00  3.33221E+01  2.110E-01  2.000E+01  2.000E+04 -1.664E-01
   1   17   28     3     7    2.5768E+05 -4.1777E+03   2.6186E+05  0.000E+00  0.000E+00  0.000E+00  3.24351E+01  2.128E-01  2.000E+01  2.000E+04 -2.089E-01
   1   18   29     3     8    2.6186E+05 -5.8549E+03   2.6771E+05  0.000E+00  0.000E+00  0.000E+00  3.15486E+01  2.153E-01  2.000E+01  2.000E+04 -2.927E-01
   1   18   30     3     9    2.6771E+05 -4.9748E+03   2.7269E+05  0.000E+00  0.000E+00  0.000E+00  3.06624E+01  2.179E-01  2.000E+01  2.000E+04 -2.487E-01



1
              HEAD IN LAYER   1 AT END OF TIME STEP   1 IN STRESS PERIOD    6
  ---------------------------------------------------------------------------

          1      2      3      4      5      6      7      8      9     10
         11     12     13     14     15     16     17     18     19     20
         21     22     23     24     25     26     27     28     29     30
 .........................................................................
   1  ****** ****** ****** ****** ****** ****** ****** ****** ****** ******
      ****** ****** ****** ****** ****** ****** ****** ****** ****** ******
      ****** ****** ****** ****** ****** ****** ****** ****** ****** ******
   2  ****** ****** ****** ****** ****** ****** ****** ****** ****** ******
      ****** ****** ****** ****** ****** ****** ****** ****** ****** ******
      ****** ****** ****** ****** ****** ****** ****** ****** ****** ******
   3  ****** ****** ****** ****** ****** ****** ****** ****** ****** ******
      ****** ****** ****** ****** ****** ****** ****** ****** ****** ******
      ****** ****** ****** ****** ****** ****** ****** ****** ****** ******
   4  ****** ****** ****** ****** ****** ****** ****** ****** ****** ******
      ****** ****** ****** ****** ****** ****** ****** ****** ****** ******
      ****** ****** ****** ****** ****** ****** ****** ****** ****** ******
   5  ****** ****** ****** ****** ****** ****** ****** ****** ****** ******
      ****** ****** ****** ****** ****** ****** ****** ****** ****** ******
      ****** ****** ****** ****** ****** ****** ****** ****** ****** ******
   6  ****** ****** ****** ****** ****** ****** ****** ****** ****** ******
      ****** ****** ****** ****** ****** ****** ****** ****** ****** ******
      ****** ****** ****** ****** ****** ****** ****** ****** ****** ******
   7  ****** ****** ****** ****** ****** ****** ****** ****** ****** ******
      ****** ****** ****** ****** ****** ****** ****** ****** ****** ******
      ****** ****** ****** ****** ****** ****** ****** ****** ****** ******
   8  ****** ****** ****** ****** ****** ****** ****** ****** ****** ******
      ****** ****** ****** ****** ****** ****** ****** ****** ****** ******
      ****** ****** ****** ****** ****** ****** ****** ****** ****** ******
   9  ****** ****** ****** ****** ****** ****** ****** ****** ****** ******
      ****** ****** ****** ****** ****** ****** ****** ****** ****** ******
      ****** ****** ****** ****** ****** ****** ****** ****** ****** ******
  10  ****** ****** ****** ****** ****** ****** ****** ****** ****** ******
      ****** ****** ****** ****** ****** ****** ****** ****** ****** ******
      ****** ****** ****** ****** ****** ****** ****** ****** ****** ******
  11  ****** ****** ****** ****** ****** ****** ****** ****** ****** ******
      ****** ****** ****** ****** ****** ****** ****** ****** ****** ******
      ****** ****** ****** ****** ****** ****** ****** ****** ****** ******
  12  ****** ****** ****** ****** ****** ****** ****** ****** ****** ******
      ****** ****** ****** ****** ****** ****** ****** ****** ****** ******
      ****** ****** ****** ****** ****** ****** ****** ****** ****** ******
  13  ****** ****** ****** ****** ****** ****** ****** ****** ****** ******
      ****** ****** ****** ****** ****** ****** ****** ****** ****** ******
      ****** ****** ****** ****** ****** ****** ****** ****** ****** ******
  14  ****** ****** ****** ****** ****** ****** ****** ****** ****** ******
      ****** ****** ****** ****** ****** ****** ****** ****** ****** ******
      ****** ****** ****** ****** ****** ****** ****** ****** ****** ******
  15  ****** ****** ****** ****** ****** ****** ****** ****** ****** ******
      ****** ****** ****** ****** ****** ****** ****** ****** ****** ******
      ****** ****** ****** ****** ****** ****** ****** ****** ****** ******
  16  ****** ****** ****** ****** ****** ****** ****** ****** ****** ******
      ****** ****** ****** ****** ****** ****** ****** ****** ****** ******
      ****** ****** ****** ****** ****** ****** ****** ****** ****** ******
  17  ****** ****** ****** ****** ****** ****** ****** ****** ****** ******
      ****** ****** ****** ****** ****** ****** ****** ****** ****** ******
      ****** ****** ****** ****** ****** ****** ****** ****** ****** ******
  18  ****** ****** ****** ****** ****** ****** ****** ****** ****** ******
      ****** ****** ****** ****** ****** ****** ****** ****** ****** ******
      ****** ****** ****** ****** ****** ****** ****** ****** ****** ******
  19  ****** ****** ****** ****** ****** ****** ****** ****** ****** ******
      ****** ****** ****** ****** ****** ****** ****** ****** ****** ******
      ****** ****** ****** ****** ****** ****** ****** ****** ****** ******
  20  ****** ****** ****** ****** ****** ****** ****** ****** ****** ******
      ****** ****** ****** ****** ****** ****** ****** ****** ****** ******
      ****** ****** ****** ****** ****** ****** ****** ****** ****** ******
  21  ****** ****** ****** ****** ****** ****** ****** ****** ****** ******
      ****** ****** ****** ****** ****** ****** ****** ****** ****** ******
      ****** ****** ****** ****** ****** ****** ****** ****** ****** ******
  22  ****** ****** ****** ****** ****** ****** ****** ****** ****** ******
      ****** ****** ****** ****** ****** ****** ****** ****** ****** ******
      ****** ****** ****** ****** ****** ****** ****** ****** ****** ******
  23  ****** ****** ****** ****** ****** ****** ****** ****** ****** ******
      ****** ****** ****** ****** ****** ****** ****** ****** ****** ******
      ****** ****** ****** ****** ****** ****** ****** ****** ****** ******
  24  ****** ****** ****** ****** ****** ****** ****** ****** ****** ******
      ****** ****** ****** ****** ****** ****** ****** ****** ****** ******
      ****** ****** ****** ****** ****** ****** ****** ****** ****** ******
  25  ****** ****** ****** ****** ****** ****** ****** ****** ****** ******
      ****** ****** ****** ****** ****** ****** ****** ****** ****** ******
      ****** ****** ****** ****** ****** ****** ****** ****** ****** ******

 HEAD WILL BE SAVED ON UNIT   51 AT END OF TIME STEP    1, STRESS PERIOD    6
1
  VOLUMETRIC BUDGET FOR ENTIRE MODEL AT END OF TIME STEP    1, STRESS PERIOD   6
  ------------------------------------------------------------------------------

     CUMULATIVE VOLUMES      L**3       RATES FOR THIS TIME STEP      L**3/T
     ------------------                 ------------------------

           IN:                                      IN:
           ---                                      ---
             STORAGE =    23929228.3396               STORAGE =           0.0000
       CONSTANT HEAD =    89147471.8162         CONSTANT HEAD =      168353.4929
               WELLS =           0.0000                 WELLS =           0.0000
            RECHARGE =    15097200.0000              RECHARGE =       55200.0000
      STREAM LEAKAGE =     3644599.6093        STREAM LEAKAGE =        6911.5571

            TOTAL IN =   131818499.7651              TOTAL IN =      230465.0501

          OUT:                                     OUT:
          ----                                     ----
             STORAGE =      938183.8850               STORAGE =       10071.9166
       CONSTANT HEAD =           0.0000         CONSTANT HEAD =           0.0000
               WELLS =    49755928.7349                 WELLS =       90795.4904
            RECHARGE =           0.0000              RECHARGE =           0.0000
      STREAM LEAKAGE =    81124387.7608        STREAM LEAKAGE =      129597.6414

           TOTAL OUT =   131818500.3807             TOTAL OUT =      230465.0484

            IN - OUT =          -0.6156              IN - OUT =       1.7032E-03

 PERCENT DISCREPANCY =          -0.00     PERCENT DISCREPANCY =           0.00






         TIME SUMMARY AT END OF TIME STEP    1 IN STRESS PERIOD    6
                    SECONDS     MINUTES      HOURS       DAYS        YEARS
                    -----------------------------------------------------------
   TIME STEP LENGTH 7.86240E+06 1.31040E+05  2184.0      91.000     0.24914    
 STRESS PERIOD TIME 7.86240E+06 1.31040E+05  2184.0      91.000     0.24914    
         TOTAL TIME 4.73472E+07 7.89120E+05  13152.      548.00      1.5003    
1
1
                            STRESS PERIOD NO.    7, LENGTH =   91.00000    
                            -----------------------------------------------

                              NUMBER OF TIME STEPS =     1

                               MULTIPLIER FOR DELT =     1.500

                            INITIAL TIME STEP SIZE =   91.00000    

 WELL NO.  LAYER   ROW   COL   STRESS RATE         
 --------------------------------------------------
      1      1     21     15      -9504.    
      2      1     23     15     -0.2528E+05
      3      1     23     11     -0.3088E+05
      4      1     21     17     -0.2513E+05

      4 WELLS

                 RECHARGE =   0.00000    

 REUSING STREAM SEGMENT DATA FROM LAST STRESS PERIOD
 
 SOLVING FOR HEAD 


     7 CALLS TO PCG ROUTINE FOR TIME STEP   1 IN STRESS PERIOD    7
    26 TOTAL ITERATIONS

 OUTPUT CONTROL FOR STRESS PERIOD    7   TIME STEP    1
    SAVE BUDGET
    SAVE HEAD FOR ALL LAYERS
    PRINT HEAD FOR ALL LAYERS
 UBDSV2 SAVING "STREAMFLOW OUT  " ON UNIT  50 AT TIME STEP  1, STRESS PERIOD   7



 STREAM LISTING     PERIOD      7   STEP        1

 LAYER ROW COL. STREAM  RCH.  FLOW INTO     FLOW TO   FLOW OUT OF   OVRLND.     DIRECT     STREAM       STREAM     STREAM     STREAM   STREAMBED  STREAMBED
                SEG.NO.  NO.  STRM. RCH.    AQUIFER    STRM. RCH.    RUNOFF     PRECIP       ET          HEAD       DEPTH      WIDTH   CONDCTNC.   GRADIENT

   1   13    1     1     1    1.0000E+05 -2.6299E+03   1.0263E+05  0.000E+00  0.000E+00  0.000E+00  4.84072E+01  1.458E-01  2.000E+01  2.000E+04 -1.315E-01
   1   13    2     1     2    1.0263E+05 -4.5334E+03   1.0716E+05  0.000E+00  0.000E+00  0.000E+00  4.79330E+01  1.489E-01  2.000E+01  2.000E+04 -2.267E-01
   1   14    3     1     3    1.0716E+05 -3.4902E+03   1.1065E+05  0.000E+00  0.000E+00  0.000E+00  4.74591E+01  1.523E-01  2.000E+01  2.000E+04 -1.745E-01
   1   15    4     1     4    1.1065E+05 -3.2855E+03   1.1394E+05  0.000E+00  0.000E+00  0.000E+00  4.69846E+01  1.551E-01  2.000E+01  2.000E+04 -1.643E-01
   1   16    5     1     5    1.1394E+05 -3.3134E+03   1.1725E+05  0.000E+00  0.000E+00  0.000E+00  4.65101E+01  1.578E-01  2.000E+01  2.000E+04 -1.657E-01
   1   16    6     1     6    1.1725E+05 -2.5455E+03   1.1980E+05  0.000E+00  0.000E+00  0.000E+00  4.60352E+01  1.602E-01  2.000E+01  2.000E+04 -1.273E-01
   1   16    7     1     7    1.1980E+05 -2.4717E+03   1.2227E+05  0.000E+00  0.000E+00  0.000E+00  4.55599E+01  1.622E-01  2.000E+01  2.000E+04 -1.236E-01
   1   16    8     1     8    1.2227E+05 -2.3228E+03   1.2459E+05  0.000E+00  0.000E+00  0.000E+00  4.50846E+01  1.641E-01  2.000E+01  2.000E+04 -1.161E-01
   1   16    9     1     9    1.2459E+05 -2.0912E+03   1.2668E+05  0.000E+00  0.000E+00  0.000E+00  4.46091E+01  1.659E-01  2.000E+01  2.000E+04 -1.046E-01
   1   16   10     1    10    1.2668E+05 -1.7784E+03   1.2846E+05  0.000E+00  0.000E+00  0.000E+00  4.41333E+01  1.674E-01  2.000E+01  2.000E+04 -8.892E-02
   1   16   11     1    11    1.2846E+05 -1.3664E+03   1.2983E+05  0.000E+00  0.000E+00  0.000E+00  4.36573E+01  1.686E-01  2.000E+01  2.000E+04 -6.832E-02
   1   16   12     1    12    1.2983E+05 -7.1632E+02   1.3054E+05  0.000E+00  0.000E+00  0.000E+00  4.31808E+01  1.695E-01  2.000E+01  2.000E+04 -3.582E-02
   1   15   13     1    13    1.3054E+05 -1.4998E+03   1.3204E+05  0.000E+00  0.000E+00  0.000E+00  4.27044E+01  1.703E-01  2.000E+01  2.000E+04 -7.499E-02
   1   14   14     1    14    1.3204E+05 -2.1961E+03   1.3424E+05  0.000E+00  0.000E+00  0.000E+00  4.22286E+01  1.718E-01  2.000E+01  2.000E+04 -1.098E-01
   1   13   15     1    15    1.3424E+05 -3.0486E+03   1.3729E+05  0.000E+00  0.000E+00  0.000E+00  4.17533E+01  1.738E-01  2.000E+01  2.000E+04 -1.524E-01
   1   12   16     1    16    1.3729E+05 -4.8717E+03   1.4216E+05  0.000E+00  0.000E+00  0.000E+00  4.12791E+01  1.768E-01  2.000E+01  2.000E+04 -2.436E-01
   1   12   17     1    17    1.4216E+05 -2.9440E+03   1.4511E+05  0.000E+00  0.000E+00  0.000E+00  4.08048E+01  1.798E-01  2.000E+01  2.000E+04 -1.472E-01
   1   12   18     1    18    1.4511E+05 -2.8293E+03   1.4793E+05  0.000E+00  0.000E+00  0.000E+00  4.03296E+01  1.819E-01  2.000E+01  2.000E+04 -1.415E-01
   1   12   19     1    19    1.4793E+05 -3.9887E+03   1.5192E+05  0.000E+00  0.000E+00  0.000E+00  3.98549E+01  1.844E-01  2.000E+01  2.000E+04 -1.994E-01
   1   13   20     1    20    1.5192E+05 -1.9613E+03   1.5388E+05  0.000E+00  0.000E+00  0.000E+00  3.93798E+01  1.866E-01  2.000E+01  2.000E+04 -9.806E-02
   1   14   21     1    21    1.5388E+05 -8.2461E+02   1.5471E+05  0.000E+00  0.000E+00  0.000E+00  3.89036E+01  1.876E-01  2.000E+01  2.000E+04 -4.123E-02
   1   14   22     1    22    1.5471E+05  5.1393E+03   1.4957E+05  0.000E+00  0.000E+00  0.000E+00  3.84247E+01  1.861E-01  2.000E+01  2.000E+04  2.570E-01
   1    9   30     2     1    5.0000E+04 -2.6020E+03   5.2602E+04  0.000E+00  0.000E+00  0.000E+00  4.02427E+01  1.177E-01  2.000E+01  2.000E+04 -1.301E-01
   1    9   29     2     2    5.2602E+04 -2.9357E+03   5.5538E+04  0.000E+00  0.000E+00  0.000E+00  3.99964E+01  1.214E-01  2.000E+01  2.000E+04 -1.468E-01
   1    9   28     2     3    5.5538E+04 -3.3187E+03   5.8856E+04  0.000E+00  0.000E+00  0.000E+00  3.97506E+01  1.256E-01  2.000E+01  2.000E+04 -1.659E-01
   1    9   27     2     4    5.8856E+04 -6.0005E+03   6.4857E+04  0.000E+00  0.000E+00  0.000E+00  3.95066E+01  1.316E-01  2.000E+01  2.000E+04 -3.000E-01
   1   10   26     2     5    6.4857E+04 -3.6161E+03   6.8473E+04  0.000E+00  0.000E+00  0.000E+00  3.92627E+01  1.377E-01  2.000E+01  2.000E+04 -1.808E-01
   1   11   25     2     6    6.8473E+04 -2.5782E+03   7.1051E+04  0.000E+00  0.000E+00  0.000E+00  3.90165E+01  1.415E-01  2.000E+01  2.000E+04 -1.289E-01
   1   12   24     2     7    7.1051E+04 -1.7529E+03   7.2804E+04  0.000E+00  0.000E+00  0.000E+00  3.87691E+01  1.441E-01  2.000E+01  2.000E+04 -8.765E-02
   1   13   23     2     8    7.2804E+04 -9.6432E+02   7.3768E+04  0.000E+00  0.000E+00  0.000E+00  3.85207E+01  1.457E-01  2.000E+01  2.000E+04 -4.822E-02
   1   14   22     2     9    7.3768E+04  2.0471E+03   7.1721E+04  0.000E+00  0.000E+00  0.000E+00  3.82701E+01  1.451E-01  2.000E+01  2.000E+04  1.024E-01
   1   14   22     3     1    2.2129E+05 -8.3337E+03   2.2962E+05  0.000E+00  0.000E+00  0.000E+00  3.77511E+01  1.955E-01  2.000E+01  2.000E+04 -4.167E-01
   1   15   23     3     2    2.2962E+05 -1.7345E+03   2.3136E+05  0.000E+00  0.000E+00  0.000E+00  3.68648E+01  1.981E-01  2.000E+01  2.000E+04 -8.673E-02
   1   15   24     3     3    2.3136E+05 -1.4981E+03   2.3286E+05  0.000E+00  0.000E+00  0.000E+00  3.59767E+01  1.989E-01  2.000E+01  2.000E+04 -7.491E-02
   1   15   25     3     4    2.3286E+05 -1.5412E+03   2.3440E+05  0.000E+00  0.000E+00  0.000E+00  3.50886E+01  1.997E-01  2.000E+01  2.000E+04 -7.706E-02
   1   15   26     3     5    2.3440E+05 -1.9879E+03   2.3639E+05  0.000E+00  0.000E+00  0.000E+00  3.42006E+01  2.006E-01  2.000E+01  2.000E+04 -9.940E-02
   1   16   27     3     6    2.3639E+05 -2.7491E+03   2.3914E+05  0.000E+00  0.000E+00  0.000E+00  3.33129E+01  2.018E-01  2.000E+01  2.000E+04 -1.375E-01
   1   17   28     3     7    2.3914E+05 -3.5882E+03   2.4272E+05  0.000E+00  0.000E+00  0.000E+00  3.24257E+01  2.034E-01  2.000E+01  2.000E+04 -1.794E-01
   1   18   29     3     8    2.4272E+05 -5.3050E+03   2.4803E+05  0.000E+00  0.000E+00  0.000E+00  3.15390E+01  2.057E-01  2.000E+01  2.000E+04 -2.652E-01
   1   18   30     3     9    2.4803E+05 -4.5562E+03   2.5258E+05  0.000E+00  0.000E+00  0.000E+00  3.06526E+01  2.082E-01  2.000E+01  2.000E+04 -2.278E-01



1
              HEAD IN LAYER   1 AT END OF TIME STEP   1 IN STRESS PERIOD    7
  ---------------------------------------------------------------------------

          1      2      3      4      5      6      7      8      9     10
         11     12     13     14     15     16     17     18     19     20
         21     22     23     24     25     26     27     28     29     30
 .........................................................................
   1  ****** ****** ****** ****** ****** ****** ****** ****** ****** ******
      ****** ****** ****** ****** ****** ****** ****** ****** ****** ******
      ****** ****** ****** ****** ****** ****** ****** ****** ****** ******
   2  ****** ****** ****** ****** ****** ****** ****** ****** ****** ******
      ****** ****** ****** ****** ****** ****** ****** ****** ****** ******
      ****** ****** ****** ****** ****** ****** ****** ****** ****** ******
   3  ****** ****** ****** ****** ****** ****** ****** ****** ****** ******
      ****** ****** ****** ****** ****** ****** ****** ****** ****** ******
      ****** ****** ****** ****** ****** ****** ****** ****** ****** ******
   4  ****** ****** ****** ****** ****** ****** ****** ****** ****** ******
      ****** ****** ****** ****** ****** ****** ****** ****** ****** ******
      ****** ****** ****** ****** ****** ****** ****** ****** ****** ******
   5  ****** ****** ****** ****** ****** ****** ****** ****** ****** ******
      ****** ****** ****** ****** ****** ****** ****** ****** ****** ******
      ****** ****** ****** ****** ****** ****** ****** ****** ****** ******
   6  ****** ****** ****** ****** ****** ****** ****** ****** ****** ******
      ****** ****** ****** ****** ****** ****** ****** ****** ****** ******
      ****** ****** ****** ****** ****** ****** ****** ****** ****** ******
   7  ****** ****** ****** ****** ****** ****** ****** ****** ****** ******
      ****** ****** ****** ****** ****** ****** ****** ****** ****** ******
      ****** ****** ****** ****** ****** ****** ****** ****** ****** ******
   8  ****** ****** ****** ****** ****** ****** ****** ****** ****** ******
      ****** ****** ****** ****** ****** ****** ****** ****** ****** ******
      ****** ****** ****** ****** ****** ****** ****** ****** ****** ******
   9  ****** ****** ****** ****** ****** ****** ****** ****** ****** ******
      ****** ****** ****** ****** ****** ****** ****** ****** ****** ******
      ****** ****** ****** ****** ****** ****** ****** ****** ****** ******
  10  ****** ****** ****** ****** ****** ****** ****** ****** ****** ******
      ****** ****** ****** ****** ****** ****** ****** ****** ****** ******
      ****** ****** ****** ****** ****** ****** ****** ****** ****** ******
  11  ****** ****** ****** ****** ****** ****** ****** ****** ****** ******
      ****** ****** ****** ****** ****** ****** ****** ****** ****** ******
      ****** ****** ****** ****** ****** ****** ****** ****** ****** ******
  12  ****** ****** ****** ****** ****** ****** ****** ****** ****** ******
      ****** ****** ****** ****** ****** ****** ****** ****** ****** ******
      ****** ****** ****** ****** ****** ****** ****** ****** ****** ******
  13  ****** ****** ****** ****** ****** ****** ****** ****** ****** ******
      ****** ****** ****** ****** ****** ****** ****** ****** ****** ******
      ****** ****** ****** ****** ****** ****** ****** ****** ****** ******
  14  ****** ****** ****** ****** ****** ****** ****** ****** ****** ******
      ****** ****** ****** ****** ****** ****** ****** ****** ****** ******
      ****** ****** ****** ****** ****** ****** ****** ****** ****** ******
  15  ****** ****** ****** ****** ****** ****** ****** ****** ****** ******
      ****** ****** ****** ****** ****** ****** ****** ****** ****** ******
      ****** ****** ****** ****** ****** ****** ****** ****** ****** ******
  16  ****** ****** ****** ****** ****** ****** ****** ****** ****** ******
      ****** ****** ****** ****** ****** ****** ****** ****** ****** ******
      ****** ****** ****** ****** ****** ****** ****** ****** ****** ******
  17  ****** ****** ****** ****** ****** ****** ****** ****** ****** ******
      ****** ****** ****** ****** ****** ****** ****** ****** ****** ******
      ****** ****** ****** ****** ****** ****** ****** ****** ****** ******
  18  ****** ****** ****** ****** ****** ****** ****** ****** ****** ******
      ****** ****** ****** ****** ****** ****** ****** ****** ****** ******
      ****** ****** ****** ****** ****** ****** ****** ****** ****** ******
  19  ****** ****** ****** ****** ****** ****** ****** ****** ****** ******
      ****** ****** ****** ****** ****** ****** ****** ****** ****** ******
      ****** ****** ****** ****** ****** ****** ****** ****** ****** ******
  20  ****** ****** ****** ****** ****** ****** ****** ****** ****** ******
      ****** ****** ****** ****** ****** ****** ****** ****** ****** ******
      ****** ****** ****** ****** ****** ****** ****** ****** ****** ******
  21  ****** ****** ****** ****** ****** ****** ****** ****** ****** ******
      ****** ****** ****** ****** ****** ****** ****** ****** ****** ******
      ****** ****** ****** ****** ****** ****** ****** ****** ****** ******
  22  ****** ****** ****** ****** ****** ****** ****** ****** ****** ******
      ****** ****** ****** ****** ****** ****** ****** ****** ****** ******
      ****** ****** ****** ****** ****** ****** ****** ****** ****** ******
  23  ****** ****** ****** ****** ****** ****** ****** ****** ****** ******
      ****** ****** ****** ****** ****** ****** ****** ****** ****** ******
      ****** ****** ****** ****** ****** ****** ****** ****** ****** ******
  24  ****** ****** ****** ****** ****** ****** ****** ****** ****** ******
      ****** ****** ****** ****** ****** ****** ****** ****** ****** ******
      ****** ****** ****** ****** ****** ****** ****** ****** ****** ******
  25  ****** ****** ****** ****** ****** ****** ****** ****** ****** ******
      ****** ****** ****** ****** ****** ****** ****** ****** ****** ******
      ****** ****** ****** ****** ****** ****** ****** ****** ****** ******

 HEAD WILL BE SAVED ON UNIT   51 AT END OF TIME STEP    1, STRESS PERIOD    7
1
  VOLUMETRIC BUDGET FOR ENTIRE MODEL AT END OF TIME STEP    1, STRESS PERIOD   7
  ------------------------------------------------------------------------------

     CUMULATIVE VOLUMES      L**3       RATES FOR THIS TIME STEP      L**3/T
     ------------------                 ------------------------

           IN:                                      IN:
           ---                                      ---
             STORAGE =    25031460.8783               STORAGE =       12112.4455
       CONSTANT HEAD =   105642857.7806         CONSTANT HEAD =      181267.9776
               WELLS =           0.0000                 WELLS =           0.0000
            RECHARGE =    15097200.0000              RECHARGE =           0.0000
      STREAM LEAKAGE =     4298561.6757        STREAM LEAKAGE =        7186.3963

            TOTAL IN =   150070080.3346              TOTAL IN =      200566.8194

          OUT:                                     OUT:
          ----                                     ----
             STORAGE =      938183.8850               STORAGE =           0.0000
       CONSTANT HEAD =           0.0000         CONSTANT HEAD =           0.0000
               WELLS =    58018318.3606                 WELLS =       90795.4904
            RECHARGE =           0.0000              RECHARGE =           0.0000
      STREAM LEAKAGE =    91113578.9080        STREAM LEAKAGE =      109771.3313

           TOTAL OUT =   150070081.1535             TOTAL OUT =      200566.8217

            IN - OUT =          -0.8189              IN - OUT =      -2.2339E-03

 PERCENT DISCREPANCY =          -0.00     PERCENT DISCREPANCY =          -0.00






         TIME SUMMARY AT END OF TIME STEP    1 IN STRESS PERIOD    7
                    SECONDS     MINUTES      HOURS       DAYS        YEARS
                    -----------------------------------------------------------
   TIME STEP LENGTH 7.86240E+06 1.31040E+05  2184.0      91.000     0.24914    
 STRESS PERIOD TIME 7.86240E+06 1.31040E+05  2184.0      91.000     0.24914    
         TOTAL TIME 5.52096E+07 9.20160E+05  15336.      639.00      1.7495    
1
1
                            STRESS PERIOD NO.    8, LENGTH =   91.00000    
                            -----------------------------------------------

                              NUMBER OF TIME STEPS =     1

                               MULTIPLIER FOR DELT =     1.500

                            INITIAL TIME STEP SIZE =   91.00000    

 WELL NO.  LAYER   ROW   COL   STRESS RATE         
 --------------------------------------------------
      1      1     21     15      -9504.    
      2      1     23     15     -0.2528E+05
      3      1     23     11     -0.3088E+05
      4      1     21     17     -0.2513E+05

      4 WELLS

                 RECHARGE =  1.000000E-03

 REUSING STREAM SEGMENT DATA FROM LAST STRESS PERIOD
 
 SOLVING FOR HEAD 


     6 CALLS TO PCG ROUTINE FOR TIME STEP   1 IN STRESS PERIOD    8
    23 TOTAL ITERATIONS

 OUTPUT CONTROL FOR STRESS PERIOD    8   TIME STEP    1
    SAVE BUDGET
    SAVE HEAD FOR ALL LAYERS
    PRINT HEAD FOR ALL LAYERS
 UBDSV2 SAVING "STREAMFLOW OUT  " ON UNIT  50 AT TIME STEP  1, STRESS PERIOD   8



 STREAM LISTING     PERIOD      8   STEP        1

 LAYER ROW COL. STREAM  RCH.  FLOW INTO     FLOW TO   FLOW OUT OF   OVRLND.     DIRECT     STREAM       STREAM     STREAM     STREAM   STREAMBED  STREAMBED
                SEG.NO.  NO.  STRM. RCH.    AQUIFER    STRM. RCH.    RUNOFF     PRECIP       ET          HEAD       DEPTH      WIDTH   CONDCTNC.   GRADIENT

   1   13    1     1     1    1.0000E+05 -2.7992E+03   1.0280E+05  0.000E+00  0.000E+00  0.000E+00  4.84072E+01  1.459E-01  2.000E+01  2.000E+04 -1.400E-01
   1   13    2     1     2    1.0280E+05 -4.7449E+03   1.0754E+05  0.000E+00  0.000E+00  0.000E+00  4.79332E+01  1.491E-01  2.000E+01  2.000E+04 -2.372E-01
   1   14    3     1     3    1.0754E+05 -3.7245E+03   1.1127E+05  0.000E+00  0.000E+00  0.000E+00  4.74595E+01  1.527E-01  2.000E+01  2.000E+04 -1.862E-01
   1   15    4     1     4    1.1127E+05 -3.5229E+03   1.1479E+05  0.000E+00  0.000E+00  0.000E+00  4.69852E+01  1.557E-01  2.000E+01  2.000E+04 -1.761E-01
   1   16    5     1     5    1.1479E+05 -3.5334E+03   1.1832E+05  0.000E+00  0.000E+00  0.000E+00  4.65109E+01  1.586E-01  2.000E+01  2.000E+04 -1.767E-01
   1   16    6     1     6    1.1832E+05 -2.7202E+03   1.2105E+05  0.000E+00  0.000E+00  0.000E+00  4.60361E+01  1.611E-01  2.000E+01  2.000E+04 -1.360E-01
   1   16    7     1     7    1.2105E+05 -2.6480E+03   1.2369E+05  0.000E+00  0.000E+00  0.000E+00  4.55610E+01  1.633E-01  2.000E+01  2.000E+04 -1.324E-01
   1   16    8     1     8    1.2369E+05 -2.5001E+03   1.2619E+05  0.000E+00  0.000E+00  0.000E+00  4.50858E+01  1.653E-01  2.000E+01  2.000E+04 -1.250E-01
   1   16    9     1     9    1.2619E+05 -2.2684E+03   1.2846E+05  0.000E+00  0.000E+00  0.000E+00  4.46104E+01  1.672E-01  2.000E+01  2.000E+04 -1.134E-01
   1   16   10     1    10    1.2846E+05 -1.9545E+03   1.3042E+05  0.000E+00  0.000E+00  0.000E+00  4.41348E+01  1.689E-01  2.000E+01  2.000E+04 -9.772E-02
   1   16   11     1    11    1.3042E+05 -1.5407E+03   1.3196E+05  0.000E+00  0.000E+00  0.000E+00  4.36589E+01  1.702E-01  2.000E+01  2.000E+04 -7.704E-02
   1   16   12     1    12    1.3196E+05 -9.3618E+02   1.3289E+05  0.000E+00  0.000E+00  0.000E+00  4.31826E+01  1.712E-01  2.000E+01  2.000E+04 -4.681E-02
   1   15   13     1    13    1.3289E+05 -1.7392E+03   1.3463E+05  0.000E+00  0.000E+00  0.000E+00  4.27063E+01  1.722E-01  2.000E+01  2.000E+04 -8.696E-02
   1   14   14     1    14    1.3463E+05 -2.4378E+03   1.3707E+05  0.000E+00  0.000E+00  0.000E+00  4.22307E+01  1.738E-01  2.000E+01  2.000E+04 -1.219E-01
   1   13   15     1    15    1.3707E+05 -3.2846E+03   1.4035E+05  0.000E+00  0.000E+00  0.000E+00  4.17556E+01  1.760E-01  2.000E+01  2.000E+04 -1.642E-01
   1   12   16     1    16    1.4035E+05 -5.0863E+03   1.4544E+05  0.000E+00  0.000E+00  0.000E+00  4.12815E+01  1.792E-01  2.000E+01  2.000E+04 -2.543E-01
   1   12   17     1    17    1.4544E+05 -3.1150E+03   1.4856E+05  0.000E+00  0.000E+00  0.000E+00  4.08073E+01  1.823E-01  2.000E+01  2.000E+04 -1.557E-01
   1   12   18     1    18    1.4856E+05 -3.0001E+03   1.5156E+05  0.000E+00  0.000E+00  0.000E+00  4.03323E+01  1.845E-01  2.000E+01  2.000E+04 -1.500E-01
   1   12   19     1    19    1.5156E+05 -4.1974E+03   1.5575E+05  0.000E+00  0.000E+00  0.000E+00  3.98576E+01  1.872E-01  2.000E+01  2.000E+04 -2.099E-01
   1   13   20     1    20    1.5575E+05 -2.1782E+03   1.5793E+05  0.000E+00  0.000E+00  0.000E+00  3.93827E+01  1.895E-01  2.000E+01  2.000E+04 -1.089E-01
   1   14   21     1    21    1.5793E+05 -1.0196E+03   1.5895E+05  0.000E+00  0.000E+00  0.000E+00  3.89066E+01  1.907E-01  2.000E+01  2.000E+04 -5.098E-02
   1   14   22     1    22    1.5895E+05  5.0962E+03   1.5386E+05  0.000E+00  0.000E+00  0.000E+00  3.84278E+01  1.892E-01  2.000E+01  2.000E+04  2.548E-01
   1    9   30     2     1    5.0000E+04 -2.7811E+03   5.2781E+04  0.000E+00  0.000E+00  0.000E+00  4.02428E+01  1.178E-01  2.000E+01  2.000E+04 -1.391E-01
   1    9   29     2     2    5.2781E+04 -3.1128E+03   5.5894E+04  0.000E+00  0.000E+00  0.000E+00  3.99968E+01  1.218E-01  2.000E+01  2.000E+04 -1.556E-01
   1    9   28     2     3    5.5894E+04 -3.4932E+03   5.9387E+04  0.000E+00  0.000E+00  0.000E+00  3.97512E+01  1.262E-01  2.000E+01  2.000E+04 -1.747E-01
   1    9   27     2     4    5.9387E+04 -6.2199E+03   6.5607E+04  0.000E+00  0.000E+00  0.000E+00  3.95075E+01  1.325E-01  2.000E+01  2.000E+04 -3.110E-01
   1   10   26     2     5    6.5607E+04 -3.8525E+03   6.9460E+04  0.000E+00  0.000E+00  0.000E+00  3.92638E+01  1.388E-01  2.000E+01  2.000E+04 -1.926E-01
   1   11   25     2     6    6.9460E+04 -2.8081E+03   7.2268E+04  0.000E+00  0.000E+00  0.000E+00  3.90178E+01  1.428E-01  2.000E+01  2.000E+04 -1.404E-01
   1   12   24     2     7    7.2268E+04 -1.9617E+03   7.4229E+04  0.000E+00  0.000E+00  0.000E+00  3.87707E+01  1.457E-01  2.000E+01  2.000E+04 -9.809E-02
   1   13   23     2     8    7.4229E+04 -1.1340E+03   7.5363E+04  0.000E+00  0.000E+00  0.000E+00  3.85225E+01  1.475E-01  2.000E+01  2.000E+04 -5.670E-02
   1   14   22     2     9    7.5363E+04  1.9806E+03   7.3383E+04  0.000E+00  0.000E+00  0.000E+00  3.82720E+01  1.470E-01  2.000E+01  2.000E+04  9.903E-02
   1   14   22     3     1    2.2724E+05 -8.3773E+03   2.3562E+05  0.000E+00  0.000E+00  0.000E+00  3.77541E+01  1.986E-01  2.000E+01  2.000E+04 -4.189E-01
   1   15   23     3     2    2.3562E+05 -1.9176E+03   2.3753E+05  0.000E+00  0.000E+00  0.000E+00  3.68679E+01  2.012E-01  2.000E+01  2.000E+04 -9.588E-02
   1   15   24     3     3    2.3753E+05 -1.6418E+03   2.3917E+05  0.000E+00  0.000E+00  0.000E+00  3.59799E+01  2.021E-01  2.000E+01  2.000E+04 -8.209E-02
   1   15   25     3     4    2.3917E+05 -1.6898E+03   2.4086E+05  0.000E+00  0.000E+00  0.000E+00  3.50919E+01  2.030E-01  2.000E+01  2.000E+04 -8.449E-02
   1   15   26     3     5    2.4086E+05 -2.1825E+03   2.4305E+05  0.000E+00  0.000E+00  0.000E+00  3.42040E+01  2.040E-01  2.000E+01  2.000E+04 -1.091E-01
   1   16   27     3     6    2.4305E+05 -2.9828E+03   2.4603E+05  0.000E+00  0.000E+00  0.000E+00  3.33164E+01  2.053E-01  2.000E+01  2.000E+04 -1.491E-01
   1   17   28     3     7    2.4603E+05 -3.8244E+03   2.4985E+05  0.000E+00  0.000E+00  0.000E+00  3.24292E+01  2.070E-01  2.000E+01  2.000E+04 -1.912E-01
   1   18   29     3     8    2.4985E+05 -5.5207E+03   2.5537E+05  0.000E+00  0.000E+00  0.000E+00  3.15426E+01  2.093E-01  2.000E+01  2.000E+04 -2.760E-01
   1   18   30     3     9    2.5537E+05 -4.7265E+03   2.6010E+05  0.000E+00  0.000E+00  0.000E+00  3.06563E+01  2.118E-01  2.000E+01  2.000E+04 -2.363E-01



1
              HEAD IN LAYER   1 AT END OF TIME STEP   1 IN STRESS PERIOD    8
  ---------------------------------------------------------------------------

          1      2      3      4      5      6      7      8      9     10
         11     12     13     14     15     16     17     18     19     20
         21     22     23     24     25     26     27     28     29     30
 .........................................................................
   1  ****** ****** ****** ****** ****** ****** ****** ****** ****** ******
      ****** ****** ****** ****** ****** ****** ****** ****** ****** ******
      ****** ****** ****** ****** ****** ****** ****** ****** ****** ******
   2  ****** ****** ****** ****** ****** ****** ****** ****** ****** ******
      ****** ****** ****** ****** ****** ****** ****** ****** ****** ******
      ****** ****** ****** ****** ****** ****** ****** ****** ****** ******
   3  ****** ****** ****** ****** ****** ****** ****** ****** ****** ******
      ****** ****** ****** ****** ****** ****** ****** ****** ****** ******
      ****** ****** ****** ****** ****** ****** ****** ****** ****** ******
   4  ****** ****** ****** ****** ****** ****** ****** ****** ****** ******
      ****** ****** ****** ****** ****** ****** ****** ****** ****** ******
      ****** ****** ****** ****** ****** ****** ****** ****** ****** ******
   5  ****** ****** ****** ****** ****** ****** ****** ****** ****** ******
      ****** ****** ****** ****** ****** ****** ****** ****** ****** ******
      ****** ****** ****** ****** ****** ****** ****** ****** ****** ******
   6  ****** ****** ****** ****** ****** ****** ****** ****** ****** ******
      ****** ****** ****** ****** ****** ****** ****** ****** ****** ******
      ****** ****** ****** ****** ****** ****** ****** ****** ****** ******
   7  ****** ****** ****** ****** ****** ****** ****** ****** ****** ******
      ****** ****** ****** ****** ****** ****** ****** ****** ****** ******
      ****** ****** ****** ****** ****** ****** ****** ****** ****** ******
   8  ****** ****** ****** ****** ****** ****** ****** ****** ****** ******
      ****** ****** ****** ****** ****** ****** ****** ****** ****** ******
      ****** ****** ****** ****** ****** ****** ****** ****** ****** ******
   9  ****** ****** ****** ****** ****** ****** ****** ****** ****** ******
      ****** ****** ****** ****** ****** ****** ****** ****** ****** ******
      ****** ****** ****** ****** ****** ****** ****** ****** ****** ******
  10  ****** ****** ****** ****** ****** ****** ****** ****** ****** ******
      ****** ****** ****** ****** ****** ****** ****** ****** ****** ******
      ****** ****** ****** ****** ****** ****** ****** ****** ****** ******
  11  ****** ****** ****** ****** ****** ****** ****** ****** ****** ******
      ****** ****** ****** ****** ****** ****** ****** ****** ****** ******
      ****** ****** ****** ****** ****** ****** ****** ****** ****** ******
  12  ****** ****** ****** ****** ****** ****** ****** ****** ****** ******
      ****** ****** ****** ****** ****** ****** ****** ****** ****** ******
      ****** ****** ****** ****** ****** ****** ****** ****** ****** ******
  13  ****** ****** ****** ****** ****** ****** ****** ****** ****** ******
      ****** ****** ****** ****** ****** ****** ****** ****** ****** ******
      ****** ****** ****** ****** ****** ****** ****** ****** ****** ******
  14  ****** ****** ****** ****** ****** ****** ****** ****** ****** ******
      ****** ****** ****** ****** ****** ****** ****** ****** ****** ******
      ****** ****** ****** ****** ****** ****** ****** ****** ****** ******
  15  ****** ****** ****** ****** ****** ****** ****** ****** ****** ******
      ****** ****** ****** ****** ****** ****** ****** ****** ****** ******
      ****** ****** ****** ****** ****** ****** ****** ****** ****** ******
  16  ****** ****** ****** ****** ****** ****** ****** ****** ****** ******
      ****** ****** ****** ****** ****** ****** ****** ****** ****** ******
      ****** ****** ****** ****** ****** ****** ****** ****** ****** ******
  17  ****** ****** ****** ****** ****** ****** ****** ****** ****** ******
      ****** ****** ****** ****** ****** ****** ****** ****** ****** ******
      ****** ****** ****** ****** ****** ****** ****** ****** ****** ******
  18  ****** ****** ****** ****** ****** ****** ****** ****** ****** ******
      ****** ****** ****** ****** ****** ****** ****** ****** ****** ******
      ****** ****** ****** ****** ****** ****** ****** ****** ****** ******
  19  ****** ****** ****** ****** ****** ****** ****** ****** ****** ******
      ****** ****** ****** ****** ****** ****** ****** ****** ****** ******
      ****** ****** ****** ****** ****** ****** ****** ****** ****** ******
  20  ****** ****** ****** ****** ****** ****** ****** ****** ****** ******
      ****** ****** ****** ****** ****** ****** ****** ****** ****** ******
      ****** ****** ****** ****** ****** ****** ****** ****** ****** ******
  21  ****** ****** ****** ****** ****** ****** ****** ****** ****** ******
      ****** ****** ****** ****** ****** ****** ****** ****** ****** ******
      ****** ****** ****** ****** ****** ****** ****** ****** ****** ******
  22  ****** ****** ****** ****** ****** ****** ****** ****** ****** ******
      ****** ****** ****** ****** ****** ****** ****** ****** ****** ******
      ****** ****** ****** ****** ****** ****** ****** ****** ****** ******
  23  ****** ****** ****** ****** ****** ****** ****** ****** ****** ******
      ****** ****** ****** ****** ****** ****** ****** ****** ****** ******
      ****** ****** ****** ****** ****** ****** ****** ****** ****** ******
  24  ****** ****** ****** ****** ****** ****** ****** ****** ****** ******
      ****** ****** ****** ****** ****** ****** ****** ****** ****** ******
      ****** ****** ****** ****** ****** ****** ****** ****** ****** ******
  25  ****** ****** ****** ****** ****** ****** ****** ****** ****** ******
      ****** ****** ****** ****** ****** ****** ****** ****** ****** ******
      ****** ****** ****** ****** ****** ****** ****** ****** ****** ******

 HEAD WILL BE SAVED ON UNIT   51 AT END OF TIME STEP    1, STRESS PERIOD    8
1
  VOLUMETRIC BUDGET FOR ENTIRE MODEL AT END OF TIME STEP    1, STRESS PERIOD   8
  ------------------------------------------------------------------------------

     CUMULATIVE VOLUMES      L**3       RATES FOR THIS TIME STEP      L**3/T
     ------------------                 ------------------------

           IN:                                      IN:
           ---                                      ---
             STORAGE =    25031460.8783               STORAGE =           0.0000
       CONSTANT HEAD =   121743288.5207         CONSTANT HEAD =      176927.8103
               WELLS =           0.0000                 WELLS =           0.0000
            RECHARGE =    17608800.0000              RECHARGE =       27600.0000
      STREAM LEAKAGE =     4942542.9016        STREAM LEAKAGE =        7076.7168

            TOTAL IN =   169326092.3006              TOTAL IN =      211604.5271

          OUT:                                     OUT:
          ----                                     ----
             STORAGE =     1268618.3872               STORAGE =        3631.1484
       CONSTANT HEAD =           0.0000         CONSTANT HEAD =           0.0000
               WELLS =    66280707.9863                 WELLS =       90795.4904
            RECHARGE =           0.0000              RECHARGE =           0.0000
      STREAM LEAKAGE =   101776766.6682        STREAM LEAKAGE =      117177.8875

           TOTAL OUT =   169326093.0417             TOTAL OUT =      211604.5262

            IN - OUT =          -0.7411              IN - OUT =       8.5462E-04

 PERCENT DISCREPANCY =          -0.00     PERCENT DISCREPANCY =           0.00






         TIME SUMMARY AT END OF TIME STEP    1 IN STRESS PERIOD    8
                    SECONDS     MINUTES      HOURS       DAYS        YEARS
                    -----------------------------------------------------------
   TIME STEP LENGTH 7.86240E+06 1.31040E+05  2184.0      91.000     0.24914    
 STRESS PERIOD TIME 7.86240E+06 1.31040E+05  2184.0      91.000     0.24914    
         TOTAL TIME 6.30720E+07 1.05120E+06  17520.      730.00      1.9986    
1
1
                            STRESS PERIOD NO.    9, LENGTH =   92.00000    
                            -----------------------------------------------

                              NUMBER OF TIME STEPS =     1

                               MULTIPLIER FOR DELT =     1.500

                            INITIAL TIME STEP SIZE =   92.00000    

 WELL NO.  LAYER   ROW   COL   STRESS RATE         
 --------------------------------------------------
      1      1     21     15      -9504.    
      2      1     23     15     -0.2528E+05
      3      1     23     11     -0.3088E+05
      4      1     21     17     -0.2513E+05

      4 WELLS

                 RECHARGE =  5.000000E-04

 REUSING STREAM SEGMENT DATA FROM LAST STRESS PERIOD
 
 SOLVING FOR HEAD 


     6 CALLS TO PCG ROUTINE FOR TIME STEP   1 IN STRESS PERIOD    9
    22 TOTAL ITERATIONS

 OUTPUT CONTROL FOR STRESS PERIOD    9   TIME STEP    1
    SAVE BUDGET
    SAVE HEAD FOR ALL LAYERS
    PRINT HEAD FOR ALL LAYERS
 UBDSV2 SAVING "STREAMFLOW OUT  " ON UNIT  50 AT TIME STEP  1, STRESS PERIOD   9



 STREAM LISTING     PERIOD      9   STEP        1

 LAYER ROW COL. STREAM  RCH.  FLOW INTO     FLOW TO   FLOW OUT OF   OVRLND.     DIRECT     STREAM       STREAM     STREAM     STREAM   STREAMBED  STREAMBED
                SEG.NO.  NO.  STRM. RCH.    AQUIFER    STRM. RCH.    RUNOFF     PRECIP       ET          HEAD       DEPTH      WIDTH   CONDCTNC.   GRADIENT

   1   13    1     1     1    1.0000E+05 -2.6837E+03   1.0268E+05  0.000E+00  0.000E+00  0.000E+00  4.84072E+01  1.458E-01  2.000E+01  2.000E+04 -1.342E-01
   1   13    2     1     2    1.0268E+05 -4.5928E+03   1.0728E+05  0.000E+00  0.000E+00  0.000E+00  4.79330E+01  1.489E-01  2.000E+01  2.000E+04 -2.296E-01
   1   14    3     1     3    1.0728E+05 -3.5702E+03   1.1085E+05  0.000E+00  0.000E+00  0.000E+00  4.74592E+01  1.524E-01  2.000E+01  2.000E+04 -1.785E-01
   1   15    4     1     4    1.1085E+05 -3.3711E+03   1.1422E+05  0.000E+00  0.000E+00  0.000E+00  4.69848E+01  1.553E-01  2.000E+01  2.000E+04 -1.686E-01
   1   16    5     1     5    1.1422E+05 -3.3959E+03   1.1761E+05  0.000E+00  0.000E+00  0.000E+00  4.65103E+01  1.581E-01  2.000E+01  2.000E+04 -1.698E-01
   1   16    6     1     6    1.1761E+05 -2.6098E+03   1.2022E+05  0.000E+00  0.000E+00  0.000E+00  4.60355E+01  1.605E-01  2.000E+01  2.000E+04 -1.305E-01
   1   16    7     1     7    1.2022E+05 -2.5358E+03   1.2276E+05  0.000E+00  0.000E+00  0.000E+00  4.55603E+01  1.626E-01  2.000E+01  2.000E+04 -1.268E-01
   1   16    8     1     8    1.2276E+05 -2.3868E+03   1.2515E+05  0.000E+00  0.000E+00  0.000E+00  4.50850E+01  1.645E-01  2.000E+01  2.000E+04 -1.193E-01
   1   16    9     1     9    1.2515E+05 -2.1551E+03   1.2730E+05  0.000E+00  0.000E+00  0.000E+00  4.46095E+01  1.663E-01  2.000E+01  2.000E+04 -1.078E-01
   1   16   10     1    10    1.2730E+05 -1.8423E+03   1.2914E+05  0.000E+00  0.000E+00  0.000E+00  4.41338E+01  1.679E-01  2.000E+01  2.000E+04 -9.212E-02
   1   16   11     1    11    1.2914E+05 -1.4303E+03   1.3057E+05  0.000E+00  0.000E+00  0.000E+00  4.36578E+01  1.692E-01  2.000E+01  2.000E+04 -7.151E-02
   1   16   12     1    12    1.3057E+05 -7.9659E+02   1.3137E+05  0.000E+00  0.000E+00  0.000E+00  4.31814E+01  1.701E-01  2.000E+01  2.000E+04 -3.983E-02
   1   15   13     1    13    1.3137E+05 -1.5851E+03   1.3296E+05  0.000E+00  0.000E+00  0.000E+00  4.27051E+01  1.710E-01  2.000E+01  2.000E+04 -7.926E-02
   1   14   14     1    14    1.3296E+05 -2.2803E+03   1.3524E+05  0.000E+00  0.000E+00  0.000E+00  4.22293E+01  1.725E-01  2.000E+01  2.000E+04 -1.140E-01
   1   13   15     1    15    1.3524E+05 -3.1293E+03   1.3837E+05  0.000E+00  0.000E+00  0.000E+00  4.17541E+01  1.746E-01  2.000E+01  2.000E+04 -1.565E-01
   1   12   16     1    16    1.3837E+05 -4.9385E+03   1.4330E+05  0.000E+00  0.000E+00  0.000E+00  4.12799E+01  1.776E-01  2.000E+01  2.000E+04 -2.469E-01
   1   12   17     1    17    1.4330E+05 -3.0045E+03   1.4631E+05  0.000E+00  0.000E+00  0.000E+00  4.08056E+01  1.806E-01  2.000E+01  2.000E+04 -1.502E-01
   1   12   18     1    18    1.4631E+05 -2.8917E+03   1.4920E+05  0.000E+00  0.000E+00  0.000E+00  4.03306E+01  1.828E-01  2.000E+01  2.000E+04 -1.446E-01
   1   12   19     1    19    1.4920E+05 -4.0658E+03   1.5327E+05  0.000E+00  0.000E+00  0.000E+00  3.98559E+01  1.854E-01  2.000E+01  2.000E+04 -2.033E-01
   1   13   20     1    20    1.5327E+05 -2.0485E+03   1.5531E+05  0.000E+00  0.000E+00  0.000E+00  3.93808E+01  1.876E-01  2.000E+01  2.000E+04 -1.024E-01
   1   14   21     1    21    1.5531E+05 -9.0182E+02   1.5622E+05  0.000E+00  0.000E+00  0.000E+00  3.89046E+01  1.887E-01  2.000E+01  2.000E+04 -4.509E-02
   1   14   22     1    22    1.5622E+05  5.1189E+03   1.5110E+05  0.000E+00  0.000E+00  0.000E+00  3.84258E+01  1.872E-01  2.000E+01  2.000E+04  2.559E-01
   1    9   30     2     1    5.0000E+04 -2.6815E+03   5.2681E+04  0.000E+00  0.000E+00  0.000E+00  4.02427E+01  1.177E-01  2.000E+01  2.000E+04 -1.341E-01
   1    9   29     2     2    5.2681E+04 -3.0140E+03   5.5695E+04  0.000E+00  0.000E+00  0.000E+00  3.99966E+01  1.216E-01  2.000E+01  2.000E+04 -1.507E-01
   1    9   28     2     3    5.5695E+04 -3.3949E+03   5.9090E+04  0.000E+00  0.000E+00  0.000E+00  3.97509E+01  1.259E-01  2.000E+01  2.000E+04 -1.697E-01
   1    9   27     2     4    5.9090E+04 -6.0906E+03   6.5181E+04  0.000E+00  0.000E+00  0.000E+00  3.95070E+01  1.320E-01  2.000E+01  2.000E+04 -3.045E-01
   1   10   26     2     5    6.5181E+04 -3.7166E+03   6.8898E+04  0.000E+00  0.000E+00  0.000E+00  3.92632E+01  1.382E-01  2.000E+01  2.000E+04 -1.858E-01
   1   11   25     2     6    6.8898E+04 -2.6768E+03   7.1574E+04  0.000E+00  0.000E+00  0.000E+00  3.90171E+01  1.421E-01  2.000E+01  2.000E+04 -1.338E-01
   1   12   24     2     7    7.1574E+04 -1.8437E+03   7.3418E+04  0.000E+00  0.000E+00  0.000E+00  3.87698E+01  1.448E-01  2.000E+01  2.000E+04 -9.218E-02
   1   13   23     2     8    7.3418E+04 -1.0397E+03   7.4458E+04  0.000E+00  0.000E+00  0.000E+00  3.85215E+01  1.465E-01  2.000E+01  2.000E+04 -5.198E-02
   1   14   22     2     9    7.4458E+04  2.0213E+03   7.2436E+04  0.000E+00  0.000E+00  0.000E+00  3.82709E+01  1.459E-01  2.000E+01  2.000E+04  1.011E-01
   1   14   22     3     1    2.2353E+05 -8.3529E+03   2.3189E+05  0.000E+00  0.000E+00  0.000E+00  3.77522E+01  1.967E-01  2.000E+01  2.000E+04 -4.176E-01
   1   15   23     3     2    2.3189E+05 -1.8077E+03   2.3369E+05  0.000E+00  0.000E+00  0.000E+00  3.68660E+01  1.993E-01  2.000E+01  2.000E+04 -9.039E-02
   1   15   24     3     3    2.3369E+05 -1.5600E+03   2.3525E+05  0.000E+00  0.000E+00  0.000E+00  3.59779E+01  2.002E-01  2.000E+01  2.000E+04 -7.800E-02
   1   15   25     3     4    2.3525E+05 -1.6073E+03   2.3686E+05  0.000E+00  0.000E+00  0.000E+00  3.50898E+01  2.010E-01  2.000E+01  2.000E+04 -8.036E-02
   1   15   26     3     5    2.3686E+05 -2.0770E+03   2.3894E+05  0.000E+00  0.000E+00  0.000E+00  3.42019E+01  2.019E-01  2.000E+01  2.000E+04 -1.038E-01
   1   16   27     3     6    2.3894E+05 -2.8526E+03   2.4179E+05  0.000E+00  0.000E+00  0.000E+00  3.33143E+01  2.032E-01  2.000E+01  2.000E+04 -1.426E-01
   1   17   28     3     7    2.4179E+05 -3.6920E+03   2.4548E+05  0.000E+00  0.000E+00  0.000E+00  3.24270E+01  2.048E-01  2.000E+01  2.000E+04 -1.846E-01
   1   18   29     3     8    2.4548E+05 -5.3977E+03   2.5088E+05  0.000E+00  0.000E+00  0.000E+00  3.15404E+01  2.071E-01  2.000E+01  2.000E+04 -2.699E-01
   1   18   30     3     9    2.5088E+05 -4.6322E+03   2.5551E+05  0.000E+00  0.000E+00  0.000E+00  3.06540E+01  2.096E-01  2.000E+01  2.000E+04 -2.316E-01



1
              HEAD IN LAYER   1 AT END OF TIME STEP   1 IN STRESS PERIOD    9
  ---------------------------------------------------------------------------

          1      2      3      4      5      6      7      8      9     10
         11     12     13     14     15     16     17     18     19     20
         21     22     23     24     25     26     27     28     29     30
 .........................................................................
   1  ****** ****** ****** ****** ****** ****** ****** ****** ****** ******
      ****** ****** ****** ****** ****** ****** ****** ****** ****** ******
      ****** ****** ****** ****** ****** ****** ****** ****** ****** ******
   2  ****** ****** ****** ****** ****** ****** ****** ****** ****** ******
      ****** ****** ****** ****** ****** ****** ****** ****** ****** ******
      ****** ****** ****** ****** ****** ****** ****** ****** ****** ******
   3  ****** ****** ****** ****** ****** ****** ****** ****** ****** ******
      ****** ****** ****** ****** ****** ****** ****** ****** ****** ******
      ****** ****** ****** ****** ****** ****** ****** ****** ****** ******
   4  ****** ****** ****** ****** ****** ****** ****** ****** ****** ******
      ****** ****** ****** ****** ****** ****** ****** ****** ****** ******
      ****** ****** ****** ****** ****** ****** ****** ****** ****** ******
   5  ****** ****** ****** ****** ****** ****** ****** ****** ****** ******
      ****** ****** ****** ****** ****** ****** ****** ****** ****** ******
      ****** ****** ****** ****** ****** ****** ****** ****** ****** ******
   6  ****** ****** ****** ****** ****** ****** ****** ****** ****** ******
      ****** ****** ****** ****** ****** ****** ****** ****** ****** ******
      ****** ****** ****** ****** ****** ****** ****** ****** ****** ******
   7  ****** ****** ****** ****** ****** ****** ****** ****** ****** ******
      ****** ****** ****** ****** ****** ****** ****** ****** ****** ******
      ****** ****** ****** ****** ****** ****** ****** ****** ****** ******
   8  ****** ****** ****** ****** ****** ****** ****** ****** ****** ******
      ****** ****** ****** ****** ****** ****** ****** ****** ****** ******
      ****** ****** ****** ****** ****** ****** ****** ****** ****** ******
   9  ****** ****** ****** ****** ****** ****** ****** ****** ****** ******
      ****** ****** ****** ****** ****** ****** ****** ****** ****** ******
      ****** ****** ****** ****** ****** ****** ****** ****** ****** ******
  10  ****** ****** ****** ****** ****** ****** ****** ****** ****** ******
      ****** ****** ****** ****** ****** ****** ****** ****** ****** ******
      ****** ****** ****** ****** ****** ****** ****** ****** ****** ******
  11  ****** ****** ****** ****** ****** ****** ****** ****** ****** ******
      ****** ****** ****** ****** ****** ****** ****** ****** ****** ******
      ****** ****** ****** ****** ****** ****** ****** ****** ****** ******
  12  ****** ****** ****** ****** ****** ****** ****** ****** ****** ******
      ****** ****** ****** ****** ****** ****** ****** ****** ****** ******
      ****** ****** ****** ****** ****** ****** ****** ****** ****** ******
  13  ****** ****** ****** ****** ****** ****** ****** ****** ****** ******
      ****** ****** ****** ****** ****** ****** ****** ****** ****** ******
      ****** ****** ****** ****** ****** ****** ****** ****** ****** ******
  14  ****** ****** ****** ****** ****** ****** ****** ****** ****** ******
      ****** ****** ****** ****** ****** ****** ****** ****** ****** ******
      ****** ****** ****** ****** ****** ****** ****** ****** ****** ******
  15  ****** ****** ****** ****** ****** ****** ****** ****** ****** ******
      ****** ****** ****** ****** ****** ****** ****** ****** ****** ******
      ****** ****** ****** ****** ****** ****** ****** ****** ****** ******
  16  ****** ****** ****** ****** ****** ****** ****** ****** ****** ******
      ****** ****** ****** ****** ****** ****** ****** ****** ****** ******
      ****** ****** ****** ****** ****** ****** ****** ****** ****** ******
  17  ****** ****** ****** ****** ****** ****** ****** ****** ****** ******
      ****** ****** ****** ****** ****** ****** ****** ****** ****** ******
      ****** ****** ****** ****** ****** ****** ****** ****** ****** ******
  18  ****** ****** ****** ****** ****** ****** ****** ****** ****** ******
      ****** ****** ****** ****** ****** ****** ****** ****** ****** ******
      ****** ****** ****** ****** ****** ****** ****** ****** ****** ******
  19  ****** ****** ****** ****** ****** ****** ****** ****** ****** ******
      ****** ****** ****** ****** ****** ****** ****** ****** ****** ******
      ****** ****** ****** ****** ****** ****** ****** ****** ****** ******
  20  ****** ****** ****** ****** ****** ****** ****** ****** ****** ******
      ****** ****** ****** ****** ****** ****** ****** ****** ****** ******
      ****** ****** ****** ****** ****** ****** ****** ****** ****** ******
  21  ****** ****** ****** ****** ****** ****** ****** ****** ****** ******
      ****** ****** ****** ****** ****** ****** ****** ****** ****** ******
      ****** ****** ****** ****** ****** ****** ****** ****** ****** ******
  22  ****** ****** ****** ****** ****** ****** ****** ****** ****** ******
      ****** ****** ****** ****** ****** ****** ****** ****** ****** ******
      ****** ****** ****** ****** ****** ****** ****** ****** ****** ******
  23  ****** ****** ****** ****** ****** ****** ****** ****** ****** ******
      ****** ****** ****** ****** ****** ****** ****** ****** ****** ******
      ****** ****** ****** ****** ****** ****** ****** ****** ****** ******
  24  ****** ****** ****** ****** ****** ****** ****** ****** ****** ******
      ****** ****** ****** ****** ****** ****** ****** ****** ****** ******
      ****** ****** ****** ****** ****** ****** ****** ****** ****** ******
  25  ****** ****** ****** ****** ****** ****** ****** ****** ****** ******
      ****** ****** ****** ****** ****** ****** ****** ****** ****** ******
      ****** ****** ****** ****** ****** ****** ****** ****** ****** ******

 HEAD WILL BE SAVED ON UNIT   51 AT END OF TIME STEP    1, STRESS PERIOD    9
1
  VOLUMETRIC BUDGET FOR ENTIRE MODEL AT END OF TIME STEP    1, STRESS PERIOD   9
  ------------------------------------------------------------------------------

     CUMULATIVE VOLUMES      L**3       RATES FOR THIS TIME STEP      L**3/T
     ------------------                 ------------------------

           IN:                                      IN:
           ---                                      ---
             STORAGE =    25278152.3544               STORAGE =        2681.4291
       CONSTANT HEAD =   138287367.1179         CONSTANT HEAD =      179826.9413
               WELLS =           0.0000                 WELLS =           0.0000
            RECHARGE =    18878400.0000              RECHARGE =       13800.0000
      STREAM LEAKAGE =     5599442.7407        STREAM LEAKAGE =        7140.2156

            TOTAL IN =   188043362.2130              TOTAL IN =      203448.5860

          OUT:                                     OUT:
          ----                                     ----
             STORAGE =     1268618.3872               STORAGE =           0.0000
       CONSTANT HEAD =           0.0000         CONSTANT HEAD =           0.0000
               WELLS =    74633893.1024                 WELLS =       90795.4904
            RECHARGE =           0.0000              RECHARGE =           0.0000
      STREAM LEAKAGE =   112140851.7540        STREAM LEAKAGE =      112653.0988

           TOTAL OUT =   188043363.2436             TOTAL OUT =      203448.5892

            IN - OUT =          -1.0305              IN - OUT =      -3.1459E-03

 PERCENT DISCREPANCY =          -0.00     PERCENT DISCREPANCY =          -0.00






         TIME SUMMARY AT END OF TIME STEP    1 IN STRESS PERIOD    9
                    SECONDS     MINUTES      HOURS       DAYS        YEARS
                    -----------------------------------------------------------
   TIME STEP LENGTH 7.94880E+06 1.32480E+05  2208.0      92.000     0.25188    
 STRESS PERIOD TIME 7.94880E+06 1.32480E+05  2208.0      92.000     0.25188    
         TOTAL TIME 7.10208E+07 1.18368E+06  19728.      822.00      2.2505    
1
1
                            STRESS PERIOD NO.   10, LENGTH =   91.00000    
                            -----------------------------------------------

                              NUMBER OF TIME STEPS =     1

                               MULTIPLIER FOR DELT =     1.500

                            INITIAL TIME STEP SIZE =   91.00000    

 WELL NO.  LAYER   ROW   COL   STRESS RATE         
 --------------------------------------------------
      1      1     21     15      -9504.    
      2      1     23     15     -0.2528E+05
      3      1     23     11     -0.3088E+05
      4      1     21     17     -0.2513E+05

      4 WELLS

                 RECHARGE =  2.000000E-03

 REUSING STREAM SEGMENT DATA FROM LAST STRESS PERIOD
 
 SOLVING FOR HEAD 


     7 CALLS TO PCG ROUTINE FOR TIME STEP   1 IN STRESS PERIOD   10
    26 TOTAL ITERATIONS

 OUTPUT CONTROL FOR STRESS PERIOD   10   TIME STEP    1
    SAVE BUDGET
    SAVE HEAD FOR ALL LAYERS
    PRINT HEAD FOR ALL LAYERS
 UBDSV2 SAVING "STREAMFLOW OUT  " ON UNIT  50 AT TIME STEP  1, STRESS PERIOD  10



 STREAM LISTING     PERIOD     10   STEP        1

 LAYER ROW COL. STREAM  RCH.  FLOW INTO     FLOW TO   FLOW OUT OF   OVRLND.     DIRECT     STREAM       STREAM     STREAM     STREAM   STREAMBED  STREAMBED
                SEG.NO.  NO.  STRM. RCH.    AQUIFER    STRM. RCH.    RUNOFF     PRECIP       ET          HEAD       DEPTH      WIDTH   CONDCTNC.   GRADIENT

   1   13    1     1     1    1.0000E+05 -3.1069E+03   1.0311E+05  0.000E+00  0.000E+00  0.000E+00  4.84074E+01  1.460E-01  2.000E+01  2.000E+04 -1.553E-01
   1   13    2     1     2    1.0311E+05 -5.1550E+03   1.0826E+05  0.000E+00  0.000E+00  0.000E+00  4.79336E+01  1.495E-01  2.000E+01  2.000E+04 -2.577E-01
   1   14    3     1     3    1.0826E+05 -4.1370E+03   1.1240E+05  0.000E+00  0.000E+00  0.000E+00  4.74603E+01  1.534E-01  2.000E+01  2.000E+04 -2.068E-01
   1   15    4     1     4    1.1240E+05 -3.9308E+03   1.1633E+05  0.000E+00  0.000E+00  0.000E+00  4.69863E+01  1.568E-01  2.000E+01  2.000E+04 -1.965E-01
   1   16    5     1     5    1.1633E+05 -3.9110E+03   1.2024E+05  0.000E+00  0.000E+00  0.000E+00  4.65123E+01  1.600E-01  2.000E+01  2.000E+04 -1.956E-01
   1   16    6     1     6    1.2024E+05 -3.0172E+03   1.2326E+05  0.000E+00  0.000E+00  0.000E+00  4.60378E+01  1.628E-01  2.000E+01  2.000E+04 -1.509E-01
   1   16    7     1     7    1.2326E+05 -2.9499E+03   1.2621E+05  0.000E+00  0.000E+00  0.000E+00  4.55629E+01  1.652E-01  2.000E+01  2.000E+04 -1.475E-01
   1   16    8     1     8    1.2621E+05 -2.8048E+03   1.2901E+05  0.000E+00  0.000E+00  0.000E+00  4.50879E+01  1.674E-01  2.000E+01  2.000E+04 -1.402E-01
   1   16    9     1     9    1.2901E+05 -2.5731E+03   1.3159E+05  0.000E+00  0.000E+00  0.000E+00  4.46127E+01  1.695E-01  2.000E+01  2.000E+04 -1.287E-01
   1   16   10     1    10    1.3159E+05 -2.2563E+03   1.3384E+05  0.000E+00  0.000E+00  0.000E+00  4.41373E+01  1.714E-01  2.000E+01  2.000E+04 -1.128E-01
   1   16   11     1    11    1.3384E+05 -1.8384E+03   1.3568E+05  0.000E+00  0.000E+00  0.000E+00  4.36616E+01  1.730E-01  2.000E+01  2.000E+04 -9.192E-02
   1   16   12     1    12    1.3568E+05 -1.3213E+03   1.3700E+05  0.000E+00  0.000E+00  0.000E+00  4.31856E+01  1.742E-01  2.000E+01  2.000E+04 -6.606E-02
   1   15   13     1    13    1.3700E+05 -2.1571E+03   1.3916E+05  0.000E+00  0.000E+00  0.000E+00  4.27096E+01  1.756E-01  2.000E+01  2.000E+04 -1.079E-01
   1   14   14     1    14    1.3916E+05 -2.8638E+03   1.4202E+05  0.000E+00  0.000E+00  0.000E+00  4.22343E+01  1.775E-01  2.000E+01  2.000E+04 -1.432E-01
   1   13   15     1    15    1.4202E+05 -3.7039E+03   1.4573E+05  0.000E+00  0.000E+00  0.000E+00  4.17595E+01  1.799E-01  2.000E+01  2.000E+04 -1.852E-01
   1   12   16     1    16    1.4573E+05 -5.4908E+03   1.5122E+05  0.000E+00  0.000E+00  0.000E+00  4.12856E+01  1.834E-01  2.000E+01  2.000E+04 -2.745E-01
   1   12   17     1    17    1.5122E+05 -3.4129E+03   1.5463E+05  0.000E+00  0.000E+00  0.000E+00  4.08116E+01  1.866E-01  2.000E+01  2.000E+04 -1.706E-01
   1   12   18     1    18    1.5463E+05 -3.2921E+03   1.5792E+05  0.000E+00  0.000E+00  0.000E+00  4.03368E+01  1.891E-01  2.000E+01  2.000E+04 -1.646E-01
   1   12   19     1    19    1.5792E+05 -4.5534E+03   1.6248E+05  0.000E+00  0.000E+00  0.000E+00  3.98624E+01  1.919E-01  2.000E+01  2.000E+04 -2.277E-01
   1   13   20     1    20    1.6248E+05 -2.5212E+03   1.6500E+05  0.000E+00  0.000E+00  0.000E+00  3.93876E+01  1.945E-01  2.000E+01  2.000E+04 -1.261E-01
   1   14   21     1    21    1.6500E+05 -1.3371E+03   1.6633E+05  0.000E+00  0.000E+00  0.000E+00  3.89117E+01  1.958E-01  2.000E+01  2.000E+04 -6.686E-02
   1   14   22     1    22    1.6633E+05  5.0401E+03   1.6129E+05  0.000E+00  0.000E+00  0.000E+00  3.84331E+01  1.945E-01  2.000E+01  2.000E+04  2.520E-01
   1    9   30     2     1    5.0000E+04 -3.0428E+03   5.3043E+04  0.000E+00  0.000E+00  0.000E+00  4.02430E+01  1.180E-01  2.000E+01  2.000E+04 -1.521E-01
   1    9   29     2     2    5.3043E+04 -3.3726E+03   5.6415E+04  0.000E+00  0.000E+00  0.000E+00  3.99973E+01  1.223E-01  2.000E+01  2.000E+04 -1.686E-01
   1    9   28     2     3    5.6415E+04 -3.7520E+03   6.0167E+04  0.000E+00  0.000E+00  0.000E+00  3.97520E+01  1.270E-01  2.000E+01  2.000E+04 -1.876E-01
   1    9   27     2     4    6.0167E+04 -6.5702E+03   6.6738E+04  0.000E+00  0.000E+00  0.000E+00  3.95087E+01  1.337E-01  2.000E+01  2.000E+04 -3.285E-01
   1   10   26     2     5    6.6738E+04 -4.2119E+03   7.0950E+04  0.000E+00  0.000E+00  0.000E+00  3.92654E+01  1.404E-01  2.000E+01  2.000E+04 -2.106E-01
   1   11   25     2     6    7.0950E+04 -3.1507E+03   7.4100E+04  0.000E+00  0.000E+00  0.000E+00  3.90198E+01  1.448E-01  2.000E+01  2.000E+04 -1.575E-01
   1   12   24     2     7    7.4100E+04 -2.2625E+03   7.6363E+04  0.000E+00  0.000E+00  0.000E+00  3.87731E+01  1.481E-01  2.000E+01  2.000E+04 -1.131E-01
   1   13   23     2     8    7.6363E+04 -1.3660E+03   7.7729E+04  0.000E+00  0.000E+00  0.000E+00  3.85252E+01  1.502E-01  2.000E+01  2.000E+04 -6.830E-02
   1   14   22     2     9    7.7729E+04  1.8750E+03   7.5854E+04  0.000E+00  0.000E+00  0.000E+00  3.82749E+01  1.499E-01  2.000E+01  2.000E+04  9.375E-02
   1   14   22     3     1    2.3715E+05 -8.4384E+03   2.4559E+05  0.000E+00  0.000E+00  0.000E+00  3.77592E+01  2.037E-01  2.000E+01  2.000E+04 -4.219E-01
   1   15   23     3     2    2.4559E+05 -2.2139E+03   2.4780E+05  0.000E+00  0.000E+00  0.000E+00  3.68730E+01  2.063E-01  2.000E+01  2.000E+04 -1.107E-01
   1   15   24     3     3    2.4780E+05 -1.8521E+03   2.4965E+05  0.000E+00  0.000E+00  0.000E+00  3.59851E+01  2.074E-01  2.000E+01  2.000E+04 -9.260E-02
   1   15   25     3     4    2.4965E+05 -1.8991E+03   2.5155E+05  0.000E+00  0.000E+00  0.000E+00  3.50972E+01  2.083E-01  2.000E+01  2.000E+04 -9.496E-02
   1   15   26     3     5    2.5155E+05 -2.4516E+03   2.5400E+05  0.000E+00  0.000E+00  0.000E+00  3.42094E+01  2.094E-01  2.000E+01  2.000E+04 -1.226E-01
   1   16   27     3     6    2.5400E+05 -3.3242E+03   2.5733E+05  0.000E+00  0.000E+00  0.000E+00  3.33219E+01  2.108E-01  2.000E+01  2.000E+04 -1.662E-01
   1   17   28     3     7    2.5733E+05 -4.1738E+03   2.6150E+05  0.000E+00  0.000E+00  0.000E+00  3.24349E+01  2.127E-01  2.000E+01  2.000E+04 -2.087E-01
   1   18   29     3     8    2.6150E+05 -5.8506E+03   2.6735E+05  0.000E+00  0.000E+00  0.000E+00  3.15485E+01  2.151E-01  2.000E+01  2.000E+04 -2.925E-01
   1   18   30     3     9    2.6735E+05 -4.9726E+03   2.7232E+05  0.000E+00  0.000E+00  0.000E+00  3.06622E+01  2.178E-01  2.000E+01  2.000E+04 -2.486E-01



1
              HEAD IN LAYER   1 AT END OF TIME STEP   1 IN STRESS PERIOD   10
  ---------------------------------------------------------------------------

          1      2      3      4      5      6      7      8      9     10
         11     12     13     14     15     16     17     18     19     20
         21     22     23     24     25     26     27     28     29     30
 .........................................................................
   1  ****** ****** ****** ****** ****** ****** ****** ****** ****** ******
      ****** ****** ****** ****** ****** ****** ****** ****** ****** ******
      ****** ****** ****** ****** ****** ****** ****** ****** ****** ******
   2  ****** ****** ****** ****** ****** ****** ****** ****** ****** ******
      ****** ****** ****** ****** ****** ****** ****** ****** ****** ******
      ****** ****** ****** ****** ****** ****** ****** ****** ****** ******
   3  ****** ****** ****** ****** ****** ****** ****** ****** ****** ******
      ****** ****** ****** ****** ****** ****** ****** ****** ****** ******
      ****** ****** ****** ****** ****** ****** ****** ****** ****** ******
   4  ****** ****** ****** ****** ****** ****** ****** ****** ****** ******
      ****** ****** ****** ****** ****** ****** ****** ****** ****** ******
      ****** ****** ****** ****** ****** ****** ****** ****** ****** ******
   5  ****** ****** ****** ****** ****** ****** ****** ****** ****** ******
      ****** ****** ****** ****** ****** ****** ****** ****** ****** ******
      ****** ****** ****** ****** ****** ****** ****** ****** ****** ******
   6  ****** ****** ****** ****** ****** ****** ****** ****** ****** ******
      ****** ****** ****** ****** ****** ****** ****** ****** ****** ******
      ****** ****** ****** ****** ****** ****** ****** ****** ****** ******
   7  ****** ****** ****** ****** ****** ****** ****** ****** ****** ******
      ****** ****** ****** ****** ****** ****** ****** ****** ****** ******
      ****** ****** ****** ****** ****** ****** ****** ****** ****** ******
   8  ****** ****** ****** ****** ****** ****** ****** ****** ****** ******
      ****** ****** ****** ****** ****** ****** ****** ****** ****** ******
      ****** ****** ****** ****** ****** ****** ****** ****** ****** ******
   9  ****** ****** ****** ****** ****** ****** ****** ****** ****** ******
      ****** ****** ****** ****** ****** ****** ****** ****** ****** ******
      ****** ****** ****** ****** ****** ****** ****** ****** ****** ******
  10  ****** ****** ****** ****** ****** ****** ****** ****** ****** ******
      ****** ****** ****** ****** ****** ****** ****** ****** ****** ******
      ****** ****** ****** ****** ****** ****** ****** ****** ****** ******
  11  ****** ****** ****** ****** ****** ****** ****** ****** ****** ******
      ****** ****** ****** ****** ****** ****** ****** ****** ****** ******
      ****** ****** ****** ****** ****** ****** ****** ****** ****** ******
  12  ****** ****** ****** ****** ****** ****** ****** ****** ****** ******
      ****** ****** ****** ****** ****** ****** ****** ****** ****** ******
      ****** ****** ****** ****** ****** ****** ****** ****** ****** ******
  13  ****** ****** ****** ****** ****** ****** ****** ****** ****** ******
      ****** ****** ****** ****** ****** ****** ****** ****** ****** ******
      ****** ****** ****** ****** ****** ****** ****** ****** ****** ******
  14  ****** ****** ****** ****** ****** ****** ****** ****** ****** ******
      ****** ****** ****** ****** ****** ****** ****** ****** ****** ******
      ****** ****** ****** ****** ****** ****** ****** ****** ****** ******
  15  ****** ****** ****** ****** ****** ****** ****** ****** ****** ******
      ****** ****** ****** ****** ****** ****** ****** ****** ****** ******
      ****** ****** ****** ****** ****** ****** ****** ****** ****** ******
  16  ****** ****** ****** ****** ****** ****** ****** ****** ****** ******
      ****** ****** ****** ****** ****** ****** ****** ****** ****** ******
      ****** ****** ****** ****** ****** ****** ****** ****** ****** ******
  17  ****** ****** ****** ****** ****** ****** ****** ****** ****** ******
      ****** ****** ****** ****** ****** ****** ****** ****** ****** ******
      ****** ****** ****** ****** ****** ****** ****** ****** ****** ******
  18  ****** ****** ****** ****** ****** ****** ****** ****** ****** ******
      ****** ****** ****** ****** ****** ****** ****** ****** ****** ******
      ****** ****** ****** ****** ****** ****** ****** ****** ****** ******
  19  ****** ****** ****** ****** ****** ****** ****** ****** ****** ******
      ****** ****** ****** ****** ****** ****** ****** ****** ****** ******
      ****** ****** ****** ****** ****** ****** ****** ****** ****** ******
  20  ****** ****** ****** ****** ****** ****** ****** ****** ****** ******
      ****** ****** ****** ****** ****** ****** ****** ****** ****** ******
      ****** ****** ****** ****** ****** ****** ****** ****** ****** ******
  21  ****** ****** ****** ****** ****** ****** ****** ****** ****** ******
      ****** ****** ****** ****** ****** ****** ****** ****** ****** ******
      ****** ****** ****** ****** ****** ****** ****** ****** ****** ******
  22  ****** ****** ****** ****** ****** ****** ****** ****** ****** ******
      ****** ****** ****** ****** ****** ****** ****** ****** ****** ******
      ****** ****** ****** ****** ****** ****** ****** ****** ****** ******
  23  ****** ****** ****** ****** ****** ****** ****** ****** ****** ******
      ****** ****** ****** ****** ****** ****** ****** ****** ****** ******
      ****** ****** ****** ****** ****** ****** ****** ****** ****** ******
  24  ****** ****** ****** ****** ****** ****** ****** ****** ****** ******
      ****** ****** ****** ****** ****** ****** ****** ****** ****** ******
      ****** ****** ****** ****** ****** ****** ****** ****** ****** ******
  25  ****** ****** ****** ****** ****** ****** ****** ****** ****** ******
      ****** ****** ****** ****** ****** ****** ****** ****** ****** ******
      ****** ****** ****** ****** ****** ****** ****** ****** ****** ******

 HEAD WILL BE SAVED ON UNIT   51 AT END OF TIME STEP    1, STRESS PERIOD   10
1
  VOLUMETRIC BUDGET FOR ENTIRE MODEL AT END OF TIME STEP    1, STRESS PERIOD  10
  ------------------------------------------------------------------------------

     CUMULATIVE VOLUMES      L**3       RATES FOR THIS TIME STEP      L**3/T
     ------------------                 ------------------------

           IN:                                      IN:
           ---                                      ---
             STORAGE =    25278152.3544               STORAGE =           0.0000
       CONSTANT HEAD =   153637088.2060         CONSTANT HEAD =      168678.2537
               WELLS =           0.0000                 WELLS =           0.0000
            RECHARGE =    23901600.0000              RECHARGE =       55200.0000
      STREAM LEAKAGE =     6228712.6662        STREAM LEAKAGE =        6915.0541

            TOTAL IN =   209045553.2266              TOTAL IN =      230793.3078

          OUT:                                     OUT:
          ----                                     ----
             STORAGE =     2247649.3209               STORAGE =       10758.5817
       CONSTANT HEAD =           0.0000         CONSTANT HEAD =           0.0000
               WELLS =    82896282.7281                 WELLS =       90795.4904
            RECHARGE =           0.0000              RECHARGE =           0.0000
      STREAM LEAKAGE =   123901622.0456        STREAM LEAKAGE =      129239.2340

           TOTAL OUT =   209045554.0946             TOTAL OUT =      230793.3061

            IN - OUT =          -0.8679              IN - OUT =       1.7869E-03

 PERCENT DISCREPANCY =          -0.00     PERCENT DISCREPANCY =           0.00






         TIME SUMMARY AT END OF TIME STEP    1 IN STRESS PERIOD   10
                    SECONDS     MINUTES      HOURS       DAYS        YEARS
                    -----------------------------------------------------------
   TIME STEP LENGTH 7.86240E+06 1.31040E+05  2184.0      91.000     0.24914    
 STRESS PERIOD TIME 7.86240E+06 1.31040E+05  2184.0      91.000     0.24914    
         TOTAL TIME 7.88832E+07 1.31472E+06  21912.      913.00      2.4997    
1
1
                            STRESS PERIOD NO.   11, LENGTH =   91.00000    
                            -----------------------------------------------

                              NUMBER OF TIME STEPS =     1

                               MULTIPLIER FOR DELT =     1.500

                            INITIAL TIME STEP SIZE =   91.00000    

 WELL NO.  LAYER   ROW   COL   STRESS RATE         
 --------------------------------------------------
      1      1     21     15      -9504.    
      2      1     23     15     -0.2528E+05
      3      1     23     11     -0.3088E+05
      4      1     21     17     -0.2513E+05

      4 WELLS

                 RECHARGE =   0.00000    

 REUSING STREAM SEGMENT DATA FROM LAST STRESS PERIOD
 
 SOLVING FOR HEAD 


     7 CALLS TO PCG ROUTINE FOR TIME STEP   1 IN STRESS PERIOD   11
    26 TOTAL ITERATIONS

 OUTPUT CONTROL FOR STRESS PERIOD   11   TIME STEP    1
    SAVE BUDGET
    SAVE HEAD FOR ALL LAYERS
    PRINT HEAD FOR ALL LAYERS
 UBDSV2 SAVING "STREAMFLOW OUT  " ON UNIT  50 AT TIME STEP  1, STRESS PERIOD  11



 STREAM LISTING     PERIOD     11   STEP        1

 LAYER ROW COL. STREAM  RCH.  FLOW INTO     FLOW TO   FLOW OUT OF   OVRLND.     DIRECT     STREAM       STREAM     STREAM     STREAM   STREAMBED  STREAMBED
                SEG.NO.  NO.  STRM. RCH.    AQUIFER    STRM. RCH.    RUNOFF     PRECIP       ET          HEAD       DEPTH      WIDTH   CONDCTNC.   GRADIENT

   1   13    1     1     1    1.0000E+05 -2.6227E+03   1.0262E+05  0.000E+00  0.000E+00  0.000E+00  4.84072E+01  1.458E-01  2.000E+01  2.000E+04 -1.311E-01
   1   13    2     1     2    1.0262E+05 -4.5220E+03   1.0714E+05  0.000E+00  0.000E+00  0.000E+00  4.79329E+01  1.489E-01  2.000E+01  2.000E+04 -2.261E-01
   1   14    3     1     3    1.0714E+05 -3.4821E+03   1.1063E+05  0.000E+00  0.000E+00  0.000E+00  4.74591E+01  1.522E-01  2.000E+01  2.000E+04 -1.741E-01
   1   15    4     1     4    1.1063E+05 -3.2792E+03   1.1391E+05  0.000E+00  0.000E+00  0.000E+00  4.69846E+01  1.551E-01  2.000E+01  2.000E+04 -1.640E-01
   1   16    5     1     5    1.1391E+05 -3.3094E+03   1.1722E+05  0.000E+00  0.000E+00  0.000E+00  4.65100E+01  1.578E-01  2.000E+01  2.000E+04 -1.655E-01
   1   16    6     1     6    1.1722E+05 -2.5414E+03   1.1976E+05  0.000E+00  0.000E+00  0.000E+00  4.60351E+01  1.601E-01  2.000E+01  2.000E+04 -1.271E-01
   1   16    7     1     7    1.1976E+05 -2.4672E+03   1.2222E+05  0.000E+00  0.000E+00  0.000E+00  4.55599E+01  1.622E-01  2.000E+01  2.000E+04 -1.234E-01
   1   16    8     1     8    1.2222E+05 -2.3181E+03   1.2454E+05  0.000E+00  0.000E+00  0.000E+00  4.50845E+01  1.641E-01  2.000E+01  2.000E+04 -1.159E-01
   1   16    9     1     9    1.2454E+05 -2.0865E+03   1.2663E+05  0.000E+00  0.000E+00  0.000E+00  4.46090E+01  1.658E-01  2.000E+01  2.000E+04 -1.043E-01
   1   16   10     1    10    1.2663E+05 -1.7739E+03   1.2840E+05  0.000E+00  0.000E+00  0.000E+00  4.41333E+01  1.674E-01  2.000E+01  2.000E+04 -8.869E-02
   1   16   11     1    11    1.2840E+05 -1.3622E+03   1.2976E+05  0.000E+00  0.000E+00  0.000E+00  4.36572E+01  1.686E-01  2.000E+01  2.000E+04 -6.811E-02
   1   16   12     1    12    1.2976E+05 -7.1166E+02   1.3048E+05  0.000E+00  0.000E+00  0.000E+00  4.31808E+01  1.694E-01  2.000E+01  2.000E+04 -3.558E-02
   1   15   13     1    13    1.3048E+05 -1.4934E+03   1.3197E+05  0.000E+00  0.000E+00  0.000E+00  4.27044E+01  1.703E-01  2.000E+01  2.000E+04 -7.467E-02
   1   14   14     1    14    1.3197E+05 -2.1890E+03   1.3416E+05  0.000E+00  0.000E+00  0.000E+00  4.22285E+01  1.717E-01  2.000E+01  2.000E+04 -1.094E-01
   1   13   15     1    15    1.3416E+05 -3.0411E+03   1.3720E+05  0.000E+00  0.000E+00  0.000E+00  4.17533E+01  1.737E-01  2.000E+01  2.000E+04 -1.521E-01
   1   12   16     1    16    1.3720E+05 -4.8634E+03   1.4206E+05  0.000E+00  0.000E+00  0.000E+00  4.12790E+01  1.767E-01  2.000E+01  2.000E+04 -2.432E-01
   1   12   17     1    17    1.4206E+05 -2.9395E+03   1.4500E+05  0.000E+00  0.000E+00  0.000E+00  4.08047E+01  1.797E-01  2.000E+01  2.000E+04 -1.470E-01
   1   12   18     1    18    1.4500E+05 -2.8254E+03   1.4783E+05  0.000E+00  0.000E+00  0.000E+00  4.03296E+01  1.818E-01  2.000E+01  2.000E+04 -1.413E-01
   1   12   19     1    19    1.4783E+05 -3.9843E+03   1.5181E+05  0.000E+00  0.000E+00  0.000E+00  3.98548E+01  1.844E-01  2.000E+01  2.000E+04 -1.992E-01
   1   13   20     1    20    1.5181E+05 -1.9583E+03   1.5377E+05  0.000E+00  0.000E+00  0.000E+00  3.93797E+01  1.865E-01  2.000E+01  2.000E+04 -9.791E-02
   1   14   21     1    21    1.5377E+05 -8.2195E+02   1.5459E+05  0.000E+00  0.000E+00  0.000E+00  3.89035E+01  1.876E-01  2.000E+01  2.000E+04 -4.110E-02
   1   14   22     1    22    1.5459E+05  5.1392E+03   1.4945E+05  0.000E+00  0.000E+00  0.000E+00  3.84246E+01  1.860E-01  2.000E+01  2.000E+04  2.570E-01
   1    9   30     2     1    5.0000E+04 -2.6014E+03   5.2601E+04  0.000E+00  0.000E+00  0.000E+00  4.02427E+01  1.177E-01  2.000E+01  2.000E+04 -1.301E-01
   1    9   29     2     2    5.2601E+04 -2.9349E+03   5.5536E+04  0.000E+00  0.000E+00  0.000E+00  3.99964E+01  1.214E-01  2.000E+01  2.000E+04 -1.467E-01
   1    9   28     2     3    5.5536E+04 -3.3178E+03   5.8854E+04  0.000E+00  0.000E+00  0.000E+00  3.97506E+01  1.256E-01  2.000E+01  2.000E+04 -1.659E-01
   1    9   27     2     4    5.8854E+04 -5.9985E+03   6.4853E+04  0.000E+00  0.000E+00  0.000E+00  3.95066E+01  1.316E-01  2.000E+01  2.000E+04 -2.999E-01
   1   10   26     2     5    6.4853E+04 -3.6143E+03   6.8467E+04  0.000E+00  0.000E+00  0.000E+00  3.92627E+01  1.377E-01  2.000E+01  2.000E+04 -1.807E-01
   1   11   25     2     6    6.8467E+04 -2.5763E+03   7.1043E+04  0.000E+00  0.000E+00  0.000E+00  3.90165E+01  1.415E-01  2.000E+01  2.000E+04 -1.288E-01
   1   12   24     2     7    7.1043E+04 -1.7512E+03   7.2794E+04  0.000E+00  0.000E+00  0.000E+00  3.87691E+01  1.441E-01  2.000E+01  2.000E+04 -8.756E-02
   1   13   23     2     8    7.2794E+04 -9.6305E+02   7.3757E+04  0.000E+00  0.000E+00  0.000E+00  3.85207E+01  1.457E-01  2.000E+01  2.000E+04 -4.815E-02
   1   14   22     2     9    7.3757E+04  2.0484E+03   7.1709E+04  0.000E+00  0.000E+00  0.000E+00  3.82701E+01  1.451E-01  2.000E+01  2.000E+04  1.024E-01
   1   14   22     3     1    2.2116E+05 -8.3335E+03   2.2950E+05  0.000E+00  0.000E+00  0.000E+00  3.77510E+01  1.954E-01  2.000E+01  2.000E+04 -4.167E-01
   1   15   23     3     2    2.2950E+05 -1.7323E+03   2.3123E+05  0.000E+00  0.000E+00  0.000E+00  3.68647E+01  1.980E-01  2.000E+01  2.000E+04 -8.661E-02
   1   15   24     3     3    2.3123E+05 -1.4970E+03   2.3273E+05  0.000E+00  0.000E+00  0.000E+00  3.59766E+01  1.989E-01  2.000E+01  2.000E+04 -7.485E-02
   1   15   25     3     4    2.3273E+05 -1.5404E+03   2.3427E+05  0.000E+00  0.000E+00  0.000E+00  3.50885E+01  1.996E-01  2.000E+01  2.000E+04 -7.702E-02
   1   15   26     3     5    2.3427E+05 -1.9873E+03   2.3625E+05  0.000E+00  0.000E+00  0.000E+00  3.42006E+01  2.006E-01  2.000E+01  2.000E+04 -9.937E-02
   1   16   27     3     6    2.3625E+05 -2.7480E+03   2.3900E+05  0.000E+00  0.000E+00  0.000E+00  3.33129E+01  2.018E-01  2.000E+01  2.000E+04 -1.374E-01
   1   17   28     3     7    2.3900E+05 -3.5870E+03   2.4259E+05  0.000E+00  0.000E+00  0.000E+00  3.24256E+01  2.034E-01  2.000E+01  2.000E+04 -1.794E-01
   1   18   29     3     8    2.4259E+05 -5.3036E+03   2.4789E+05  0.000E+00  0.000E+00  0.000E+00  3.15389E+01  2.056E-01  2.000E+01  2.000E+04 -2.652E-01
   1   18   30     3     9    2.4789E+05 -4.5555E+03   2.5245E+05  0.000E+00  0.000E+00  0.000E+00  3.06525E+01  2.081E-01  2.000E+01  2.000E+04 -2.278E-01



1
              HEAD IN LAYER   1 AT END OF TIME STEP   1 IN STRESS PERIOD   11
  ---------------------------------------------------------------------------

          1      2      3      4      5      6      7      8      9     10
         11     12     13     14     15     16     17     18     19     20
         21     22     23     24     25     26     27     28     29     30
 .........................................................................
   1  ****** ****** ****** ****** ****** ****** ****** ****** ****** ******
      ****** ****** ****** ****** ****** ****** ****** ****** ****** ******
      ****** ****** ****** ****** ****** ****** ****** ****** ****** ******
   2  ****** ****** ****** ****** ****** ****** ****** ****** ****** ******
      ****** ****** ****** ****** ****** ****** ****** ****** ****** ******
      ****** ****** ****** ****** ****** ****** ****** ****** ****** ******
   3  ****** ****** ****** ****** ****** ****** ****** ****** ****** ******
      ****** ****** ****** ****** ****** ****** ****** ****** ****** ******
      ****** ****** ****** ****** ****** ****** ****** ****** ****** ******
   4  ****** ****** ****** ****** ****** ****** ****** ****** ****** ******
      ****** ****** ****** ****** ****** ****** ****** ****** ****** ******
      ****** ****** ****** ****** ****** ****** ****** ****** ****** ******
   5  ****** ****** ****** ****** ****** ****** ****** ****** ****** ******
      ****** ****** ****** ****** ****** ****** ****** ****** ****** ******
      ****** ****** ****** ****** ****** ****** ****** ****** ****** ******
   6  ****** ****** ****** ****** ****** ****** ****** ****** ****** ******
      ****** ****** ****** ****** ****** ****** ****** ****** ****** ******
      ****** ****** ****** ****** ****** ****** ****** ****** ****** ******
   7  ****** ****** ****** ****** ****** ****** ****** ****** ****** ******
      ****** ****** ****** ****** ****** ****** ****** ****** ****** ******
      ****** ****** ****** ****** ****** ****** ****** ****** ****** ******
   8  ****** ****** ****** ****** ****** ****** ****** ****** ****** ******
      ****** ****** ****** ****** ****** ****** ****** ****** ****** ******
      ****** ****** ****** ****** ****** ****** ****** ****** ****** ******
   9  ****** ****** ****** ****** ****** ****** ****** ****** ****** ******
      ****** ****** ****** ****** ****** ****** ****** ****** ****** ******
      ****** ****** ****** ****** ****** ****** ****** ****** ****** ******
  10  ****** ****** ****** ****** ****** ****** ****** ****** ****** ******
      ****** ****** ****** ****** ****** ****** ****** ****** ****** ******
      ****** ****** ****** ****** ****** ****** ****** ****** ****** ******
  11  ****** ****** ****** ****** ****** ****** ****** ****** ****** ******
      ****** ****** ****** ****** ****** ****** ****** ****** ****** ******
      ****** ****** ****** ****** ****** ****** ****** ****** ****** ******
  12  ****** ****** ****** ****** ****** ****** ****** ****** ****** ******
      ****** ****** ****** ****** ****** ****** ****** ****** ****** ******
      ****** ****** ****** ****** ****** ****** ****** ****** ****** ******
  13  ****** ****** ****** ****** ****** ****** ****** ****** ****** ******
      ****** ****** ****** ****** ****** ****** ****** ****** ****** ******
      ****** ****** ****** ****** ****** ****** ****** ****** ****** ******
  14  ****** ****** ****** ****** ****** ****** ****** ****** ****** ******
      ****** ****** ****** ****** ****** ****** ****** ****** ****** ******
      ****** ****** ****** ****** ****** ****** ****** ****** ****** ******
  15  ****** ****** ****** ****** ****** ****** ****** ****** ****** ******
      ****** ****** ****** ****** ****** ****** ****** ****** ****** ******
      ****** ****** ****** ****** ****** ****** ****** ****** ****** ******
  16  ****** ****** ****** ****** ****** ****** ****** ****** ****** ******
      ****** ****** ****** ****** ****** ****** ****** ****** ****** ******
      ****** ****** ****** ****** ****** ****** ****** ****** ****** ******
  17  ****** ****** ****** ****** ****** ****** ****** ****** ****** ******
      ****** ****** ****** ****** ****** ****** ****** ****** ****** ******
      ****** ****** ****** ****** ****** ****** ****** ****** ****** ******
  18  ****** ****** ****** ****** ****** ****** ****** ****** ****** ******
      ****** ****** ****** ****** ****** ****** ****** ****** ****** ******
      ****** ****** ****** ****** ****** ****** ****** ****** ****** ******
  19  ****** ****** ****** ****** ****** ****** ****** ****** ****** ******
      ****** ****** ****** ****** ****** ****** ****** ****** ****** ******
      ****** ****** ****** ****** ****** ****** ****** ****** ****** ******
  20  ****** ****** ****** ****** ****** ****** ****** ****** ****** ******
      ****** ****** ****** ****** ****** ****** ****** ****** ****** ******
      ****** ****** ****** ****** ****** ****** ****** ****** ****** ******
  21  ****** ****** ****** ****** ****** ****** ****** ****** ****** ******
      ****** ****** ****** ****** ****** ****** ****** ****** ****** ******
      ****** ****** ****** ****** ****** ****** ****** ****** ****** ******
  22  ****** ****** ****** ****** ****** ****** ****** ****** ****** ******
      ****** ****** ****** ****** ****** ****** ****** ****** ****** ******
      ****** ****** ****** ****** ****** ****** ****** ****** ****** ******
  23  ****** ****** ****** ****** ****** ****** ****** ****** ****** ******
      ****** ****** ****** ****** ****** ****** ****** ****** ****** ******
      ****** ****** ****** ****** ****** ****** ****** ****** ****** ******
  24  ****** ****** ****** ****** ****** ****** ****** ****** ****** ******
      ****** ****** ****** ****** ****** ****** ****** ****** ****** ******
      ****** ****** ****** ****** ****** ****** ****** ****** ****** ******
  25  ****** ****** ****** ****** ****** ****** ****** ****** ****** ******
      ****** ****** ****** ****** ****** ****** ****** ****** ****** ******
      ****** ****** ****** ****** ****** ****** ****** ****** ****** ******

 HEAD WILL BE SAVED ON UNIT   51 AT END OF TIME STEP    1, STRESS PERIOD   11
1
  VOLUMETRIC BUDGET FOR ENTIRE MODEL AT END OF TIME STEP    1, STRESS PERIOD  11
  ------------------------------------------------------------------------------

     CUMULATIVE VOLUMES      L**3       RATES FOR THIS TIME STEP      L**3/T
     ------------------                 ------------------------

           IN:                                      IN:
           ---                                      ---
             STORAGE =    26356487.0588               STORAGE =       11849.8319
       CONSTANT HEAD =   170143816.7092         CONSTANT HEAD =      181392.6209
               WELLS =           0.0000                 WELLS =           0.0000
            RECHARGE =    23901600.0000              RECHARGE =           0.0000
      STREAM LEAKAGE =     6882784.7102        STREAM LEAKAGE =        7187.6049

            TOTAL IN =   227284688.4781              TOTAL IN =      200430.0577

          OUT:                                     OUT:
          ----                                     ----
             STORAGE =     2247649.3209               STORAGE =           0.0000
       CONSTANT HEAD =           0.0000         CONSTANT HEAD =           0.0000
               WELLS =    91158672.3538                 WELLS =       90795.4904
            RECHARGE =           0.0000              RECHARGE =           0.0000
      STREAM LEAKAGE =   133878367.8718        STREAM LEAKAGE =      109634.5695

           TOTAL OUT =   227284689.5465             TOTAL OUT =      200430.0599

            IN - OUT =          -1.0684              IN - OUT =      -2.2033E-03

 PERCENT DISCREPANCY =          -0.00     PERCENT DISCREPANCY =          -0.00






         TIME SUMMARY AT END OF TIME STEP    1 IN STRESS PERIOD   11
                    SECONDS     MINUTES      HOURS       DAYS        YEARS
                    -----------------------------------------------------------
   TIME STEP LENGTH 7.86240E+06 1.31040E+05  2184.0      91.000     0.24914    
 STRESS PERIOD TIME 7.86240E+06 1.31040E+05  2184.0      91.000     0.24914    
         TOTAL TIME 8.67456E+07 1.44576E+06  24096.      1004.0      2.7488    
1
1
                            STRESS PERIOD NO.   12, LENGTH =   91.00000    
                            -----------------------------------------------

                              NUMBER OF TIME STEPS =     1

                               MULTIPLIER FOR DELT =     1.500

                            INITIAL TIME STEP SIZE =   91.00000    

 WELL NO.  LAYER   ROW   COL   STRESS RATE         
 --------------------------------------------------
      1      1     21     15      -9504.    
      2      1     23     15     -0.2528E+05
      3      1     23     11     -0.3088E+05
      4      1     21     17     -0.2513E+05

      4 WELLS

                 RECHARGE =  1.000000E-03

 REUSING STREAM SEGMENT DATA FROM LAST STRESS PERIOD
 
 SOLVING FOR HEAD 


     6 CALLS TO PCG ROUTINE FOR TIME STEP   1 IN STRESS PERIOD   12
    23 TOTAL ITERATIONS

 OUTPUT CONTROL FOR STRESS PERIOD   12   TIME STEP    1
    SAVE BUDGET
    SAVE HEAD FOR ALL LAYERS
    PRINT HEAD FOR ALL LAYERS
 UBDSV2 SAVING "STREAMFLOW OUT  " ON UNIT  50 AT TIME STEP  1, STRESS PERIOD  12



 STREAM LISTING     PERIOD     12   STEP        1

 LAYER ROW COL. STREAM  RCH.  FLOW INTO     FLOW TO   FLOW OUT OF   OVRLND.     DIRECT     STREAM       STREAM     STREAM     STREAM   STREAMBED  STREAMBED
                SEG.NO.  NO.  STRM. RCH.    AQUIFER    STRM. RCH.    RUNOFF     PRECIP       ET          HEAD       DEPTH      WIDTH   CONDCTNC.   GRADIENT

   1   13    1     1     1    1.0000E+05 -2.7962E+03   1.0280E+05  0.000E+00  0.000E+00  0.000E+00  4.84072E+01  1.459E-01  2.000E+01  2.000E+04 -1.398E-01
   1   13    2     1     2    1.0280E+05 -4.7400E+03   1.0754E+05  0.000E+00  0.000E+00  0.000E+00  4.79332E+01  1.491E-01  2.000E+01  2.000E+04 -2.370E-01
   1   14    3     1     3    1.0754E+05 -3.7212E+03   1.1126E+05  0.000E+00  0.000E+00  0.000E+00  4.74595E+01  1.527E-01  2.000E+01  2.000E+04 -1.861E-01
   1   15    4     1     4    1.1126E+05 -3.5203E+03   1.1478E+05  0.000E+00  0.000E+00  0.000E+00  4.69852E+01  1.557E-01  2.000E+01  2.000E+04 -1.760E-01
   1   16    5     1     5    1.1478E+05 -3.5319E+03   1.1831E+05  0.000E+00  0.000E+00  0.000E+00  4.65108E+01  1.586E-01  2.000E+01  2.000E+04 -1.766E-01
   1   16    6     1     6    1.1831E+05 -2.7185E+03   1.2103E+05  0.000E+00  0.000E+00  0.000E+00  4.60361E+01  1.611E-01  2.000E+01  2.000E+04 -1.359E-01
   1   16    7     1     7    1.2103E+05 -2.6462E+03   1.2367E+05  0.000E+00  0.000E+00  0.000E+00  4.55610E+01  1.633E-01  2.000E+01  2.000E+04 -1.323E-01
   1   16    8     1     8    1.2367E+05 -2.4982E+03   1.2617E+05  0.000E+00  0.000E+00  0.000E+00  4.50858E+01  1.653E-01  2.000E+01  2.000E+04 -1.249E-01
   1   16    9     1     9    1.2617E+05 -2.2665E+03   1.2844E+05  0.000E+00  0.000E+00  0.000E+00  4.46104E+01  1.672E-01  2.000E+01  2.000E+04 -1.133E-01
   1   16   10     1    10    1.2844E+05 -1.9527E+03   1.3039E+05  0.000E+00  0.000E+00  0.000E+00  4.41348E+01  1.689E-01  2.000E+01  2.000E+04 -9.763E-02
   1   16   11     1    11    1.3039E+05 -1.5391E+03   1.3193E+05  0.000E+00  0.000E+00  0.000E+00  4.36589E+01  1.702E-01  2.000E+01  2.000E+04 -7.696E-02
   1   16   12     1    12    1.3193E+05 -9.3451E+02   1.3287E+05  0.000E+00  0.000E+00  0.000E+00  4.31825E+01  1.712E-01  2.000E+01  2.000E+04 -4.673E-02
   1   15   13     1    13    1.3287E+05 -1.7367E+03   1.3460E+05  0.000E+00  0.000E+00  0.000E+00  4.27063E+01  1.722E-01  2.000E+01  2.000E+04 -8.684E-02
   1   14   14     1    14    1.3460E+05 -2.4349E+03   1.3704E+05  0.000E+00  0.000E+00  0.000E+00  4.22306E+01  1.738E-01  2.000E+01  2.000E+04 -1.217E-01
   1   13   15     1    15    1.3704E+05 -3.2816E+03   1.4032E+05  0.000E+00  0.000E+00  0.000E+00  4.17556E+01  1.760E-01  2.000E+01  2.000E+04 -1.641E-01
   1   12   16     1    16    1.4032E+05 -5.0829E+03   1.4540E+05  0.000E+00  0.000E+00  0.000E+00  4.12814E+01  1.792E-01  2.000E+01  2.000E+04 -2.541E-01
   1   12   17     1    17    1.4540E+05 -3.1132E+03   1.4851E+05  0.000E+00  0.000E+00  0.000E+00  4.08072E+01  1.822E-01  2.000E+01  2.000E+04 -1.557E-01
   1   12   18     1    18    1.4851E+05 -2.9986E+03   1.5151E+05  0.000E+00  0.000E+00  0.000E+00  4.03322E+01  1.845E-01  2.000E+01  2.000E+04 -1.499E-01
   1   12   19     1    19    1.5151E+05 -4.1956E+03   1.5571E+05  0.000E+00  0.000E+00  0.000E+00  3.98576E+01  1.871E-01  2.000E+01  2.000E+04 -2.098E-01
   1   13   20     1    20    1.5571E+05 -2.1771E+03   1.5789E+05  0.000E+00  0.000E+00  0.000E+00  3.93826E+01  1.895E-01  2.000E+01  2.000E+04 -1.089E-01
   1   14   21     1    21    1.5789E+05 -1.0188E+03   1.5890E+05  0.000E+00  0.000E+00  0.000E+00  3.89065E+01  1.906E-01  2.000E+01  2.000E+04 -5.094E-02
   1   14   22     1    22    1.5890E+05  5.0961E+03   1.5381E+05  0.000E+00  0.000E+00  0.000E+00  3.84278E+01  1.891E-01  2.000E+01  2.000E+04  2.548E-01
   1    9   30     2     1    5.0000E+04 -2.7808E+03   5.2781E+04  0.000E+00  0.000E+00  0.000E+00  4.02428E+01  1.178E-01  2.000E+01  2.000E+04 -1.390E-01
   1    9   29     2     2    5.2781E+04 -3.1126E+03   5.5893E+04  0.000E+00  0.000E+00  0.000E+00  3.99968E+01  1.218E-01  2.000E+01  2.000E+04 -1.556E-01
   1    9   28     2     3    5.5893E+04 -3.4929E+03   5.9386E+04  0.000E+00  0.000E+00  0.000E+00  3.97512E+01  1.262E-01  2.000E+01  2.000E+04 -1.746E-01
   1    9   27     2     4    5.9386E+04 -6.2191E+03   6.5605E+04  0.000E+00  0.000E+00  0.000E+00  3.95075E+01  1.325E-01  2.000E+01  2.000E+04 -3.110E-01
   1   10   26     2     5    6.5605E+04 -3.8518E+03   6.9457E+04  0.000E+00  0.000E+00  0.000E+00  3.92638E+01  1.388E-01  2.000E+01  2.000E+04 -1.926E-01
   1   11   25     2     6    6.9457E+04 -2.8074E+03   7.2265E+04  0.000E+00  0.000E+00  0.000E+00  3.90178E+01  1.428E-01  2.000E+01  2.000E+04 -1.404E-01
   1   12   24     2     7    7.2265E+04 -1.9611E+03   7.4226E+04  0.000E+00  0.000E+00  0.000E+00  3.87707E+01  1.457E-01  2.000E+01  2.000E+04 -9.805E-02
   1   13   23     2     8    7.4226E+04 -1.1335E+03   7.5359E+04  0.000E+00  0.000E+00  0.000E+00  3.85225E+01  1.475E-01  2.000E+01  2.000E+04 -5.668E-02
   1   14   22     2     9    7.5359E+04  1.9811E+03   7.3378E+04  0.000E+00  0.000E+00  0.000E+00  3.82720E+01  1.470E-01  2.000E+01  2.000E+04  9.905E-02
   1   14   22     3     1    2.2719E+05 -8.3772E+03   2.3556E+05  0.000E+00  0.000E+00  0.000E+00  3.77541E+01  1.986E-01  2.000E+01  2.000E+04 -4.189E-01
   1   15   23     3     2    2.3556E+05 -1.9169E+03   2.3748E+05  0.000E+00  0.000E+00  0.000E+00  3.68679E+01  2.012E-01  2.000E+01  2.000E+04 -9.585E-02
   1   15   24     3     3    2.3748E+05 -1.6414E+03   2.3912E+05  0.000E+00  0.000E+00  0.000E+00  3.59799E+01  2.021E-01  2.000E+01  2.000E+04 -8.207E-02
   1   15   25     3     4    2.3912E+05 -1.6896E+03   2.4081E+05  0.000E+00  0.000E+00  0.000E+00  3.50918E+01  2.030E-01  2.000E+01  2.000E+04 -8.448E-02
   1   15   26     3     5    2.4081E+05 -2.1823E+03   2.4299E+05  0.000E+00  0.000E+00  0.000E+00  3.42039E+01  2.039E-01  2.000E+01  2.000E+04 -1.091E-01
   1   16   27     3     6    2.4299E+05 -2.9825E+03   2.4598E+05  0.000E+00  0.000E+00  0.000E+00  3.33163E+01  2.052E-01  2.000E+01  2.000E+04 -1.491E-01
   1   17   28     3     7    2.4598E+05 -3.8240E+03   2.4980E+05  0.000E+00  0.000E+00  0.000E+00  3.24292E+01  2.069E-01  2.000E+01  2.000E+04 -1.912E-01
   1   18   29     3     8    2.4980E+05 -5.5203E+03   2.5532E+05  0.000E+00  0.000E+00  0.000E+00  3.15426E+01  2.093E-01  2.000E+01  2.000E+04 -2.760E-01
   1   18   30     3     9    2.5532E+05 -4.7263E+03   2.6005E+05  0.000E+00  0.000E+00  0.000E+00  3.06563E+01  2.118E-01  2.000E+01  2.000E+04 -2.363E-01



1
              HEAD IN LAYER   1 AT END OF TIME STEP   1 IN STRESS PERIOD   12
  ---------------------------------------------------------------------------

          1      2      3      4      5      6      7      8      9     10
         11     12     13     14     15     16     17     18     19     20
         21     22     23     24     25     26     27     28     29     30
 .........................................................................
   1  ****** ****** ****** ****** ****** ****** ****** ****** ****** ******
      ****** ****** ****** ****** ****** ****** ****** ****** ****** ******
      ****** ****** ****** ****** ****** ****** ****** ****** ****** ******
   2  ****** ****** ****** ****** ****** ****** ****** ****** ****** ******
      ****** ****** ****** ****** ****** ****** ****** ****** ****** ******
      ****** ****** ****** ****** ****** ****** ****** ****** ****** ******
   3  ****** ****** ****** ****** ****** ****** ****** ****** ****** ******
      ****** ****** ****** ****** ****** ****** ****** ****** ****** ******
      ****** ****** ****** ****** ****** ****** ****** ****** ****** ******
   4  ****** ****** ****** ****** ****** ****** ****** ****** ****** ******
      ****** ****** ****** ****** ****** ****** ****** ****** ****** ******
      ****** ****** ****** ****** ****** ****** ****** ****** ****** ******
   5  ****** ****** ****** ****** ****** ****** ****** ****** ****** ******
      ****** ****** ****** ****** ****** ****** ****** ****** ****** ******
      ****** ****** ****** ****** ****** ****** ****** ****** ****** ******
   6  ****** ****** ****** ****** ****** ****** ****** ****** ****** ******
      ****** ****** ****** ****** ****** ****** ****** ****** ****** ******
      ****** ****** ****** ****** ****** ****** ****** ****** ****** ******
   7  ****** ****** ****** ****** ****** ****** ****** ****** ****** ******
      ****** ****** ****** ****** ****** ****** ****** ****** ****** ******
      ****** ****** ****** ****** ****** ****** ****** ****** ****** ******
   8  ****** ****** ****** ****** ****** ****** ****** ****** ****** ******
      ****** ****** ****** ****** ****** ****** ****** ****** ****** ******
      ****** ****** ****** ****** ****** ****** ****** ****** ****** ******
   9  ****** ****** ****** ****** ****** ****** ****** ****** ****** ******
      ****** ****** ****** ****** ****** ****** ****** ****** ****** ******
      ****** ****** ****** ****** ****** ****** ****** ****** ****** ******
  10  ****** ****** ****** ****** ****** ****** ****** ****** ****** ******
      ****** ****** ****** ****** ****** ****** ****** ****** ****** ******
      ****** ****** ****** ****** ****** ****** ****** ****** ****** ******
  11  ****** ****** ****** ****** ****** ****** ****** ****** ****** ******
      ****** ****** ****** ****** ****** ****** ****** ****** ****** ******
      ****** ****** ****** ****** ****** ****** ****** ****** ****** ******
  12  ****** ****** ****** ****** ****** ****** ****** ****** ****** ******
      ****** ****** ****** ****** ****** ****** ****** ****** ****** ******
      ****** ****** ****** ****** ****** ****** ****** ****** ****** ******
  13  ****** ****** ****** ****** ****** ****** ****** ****** ****** ******
      ****** ****** ****** ****** ****** ****** ****** ****** ****** ******
      ****** ****** ****** ****** ****** ****** ****** ****** ****** ******
  14  ****** ****** ****** ****** ****** ****** ****** ****** ****** ******
      ****** ****** ****** ****** ****** ****** ****** ****** ****** ******
      ****** ****** ****** ****** ****** ****** ****** ****** ****** ******
  15  ****** ****** ****** ****** ****** ****** ****** ****** ****** ******
      ****** ****** ****** ****** ****** ****** ****** ****** ****** ******
      ****** ****** ****** ****** ****** ****** ****** ****** ****** ******
  16  ****** ****** ****** ****** ****** ****** ****** ****** ****** ******
      ****** ****** ****** ****** ****** ****** ****** ****** ****** ******
      ****** ****** ****** ****** ****** ****** ****** ****** ****** ******
  17  ****** ****** ****** ****** ****** ****** ****** ****** ****** ******
      ****** ****** ****** ****** ****** ****** ****** ****** ****** ******
      ****** ****** ****** ****** ****** ****** ****** ****** ****** ******
  18  ****** ****** ****** ****** ****** ****** ****** ****** ****** ******
      ****** ****** ****** ****** ****** ****** ****** ****** ****** ******
      ****** ****** ****** ****** ****** ****** ****** ****** ****** ******
  19  ****** ****** ****** ****** ****** ****** ****** ****** ****** ******
      ****** ****** ****** ****** ****** ****** ****** ****** ****** ******
      ****** ****** ****** ****** ****** ****** ****** ****** ****** ******
  20  ****** ****** ****** ****** ****** ****** ****** ****** ****** ******
      ****** ****** ****** ****** ****** ****** ****** ****** ****** ******
      ****** ****** ****** ****** ****** ****** ****** ****** ****** ******
  21  ****** ****** ****** ****** ****** ****** ****** ****** ****** ******
      ****** ****** ****** ****** ****** ****** ****** ****** ****** ******
      ****** ****** ****** ****** ****** ****** ****** ****** ****** ******
  22  ****** ****** ****** ****** ****** ****** ****** ****** ****** ******
      ****** ****** ****** ****** ****** ****** ****** ****** ****** ******
      ****** ****** ****** ****** ****** ****** ****** ****** ****** ******
  23  ****** ****** ****** ****** ****** ****** ****** ****** ****** ******
      ****** ****** ****** ****** ****** ****** ****** ****** ****** ******
      ****** ****** ****** ****** ****** ****** ****** ****** ****** ******
  24  ****** ****** ****** ****** ****** ****** ****** ****** ****** ******
      ****** ****** ****** ****** ****** ****** ****** ****** ****** ******
      ****** ****** ****** ****** ****** ****** ****** ****** ****** ******
  25  ****** ****** ****** ****** ****** ****** ****** ****** ****** ******
      ****** ****** ****** ****** ****** ****** ****** ****** ****** ******
      ****** ****** ****** ****** ****** ****** ****** ****** ****** ******

 HEAD WILL BE SAVED ON UNIT   51 AT END OF TIME STEP    1, STRESS PERIOD   12
1
  VOLUMETRIC BUDGET FOR ENTIRE MODEL AT END OF TIME STEP    1, STRESS PERIOD  12
  ------------------------------------------------------------------------------

     CUMULATIVE VOLUMES      L**3       RATES FOR THIS TIME STEP      L**3/T
     ------------------                 ------------------------

           IN:                                      IN:
           ---                                      ---
             STORAGE =    26356487.0588               STORAGE =           0.0000
       CONSTANT HEAD =   186248683.1640         CONSTANT HEAD =      176976.5544
               WELLS =           0.0000                 WELLS =           0.0000
            RECHARGE =    26413200.0000              RECHARGE =       27600.0000
      STREAM LEAKAGE =     7526804.5697        STREAM LEAKAGE =        7077.1413

            TOTAL IN =   246545174.7924              TOTAL IN =      211653.6958

          OUT:                                     OUT:
          ----                                     ----
             STORAGE =     2587413.6467               STORAGE =        3733.6739
       CONSTANT HEAD =           0.0000         CONSTANT HEAD =           0.0000
               WELLS =    99421061.9795                 WELLS =       90795.4904
            RECHARGE =           0.0000              RECHARGE =           0.0000
      STREAM LEAKAGE =   144536700.1556        STREAM LEAKAGE =      117124.5306

           TOTAL OUT =   246545175.7818             TOTAL OUT =      211653.6949

            IN - OUT =          -0.9894              IN - OUT =       8.6859E-04

 PERCENT DISCREPANCY =          -0.00     PERCENT DISCREPANCY =           0.00






         TIME SUMMARY AT END OF TIME STEP    1 IN STRESS PERIOD   12
                    SECONDS     MINUTES      HOURS       DAYS        YEARS
                    -----------------------------------------------------------
   TIME STEP LENGTH 7.86240E+06 1.31040E+05  2184.0      91.000     0.24914    
 STRESS PERIOD TIME 7.86240E+06 1.31040E+05  2184.0      91.000     0.24914    
         TOTAL TIME 9.46080E+07 1.57680E+06  26280.      1095.0      2.9979    
1

 Run end date and time (yyyy/mm/dd hh:mm:ss): 2018/10/10 13:12:22
 Elapsed run time:  0.086 Seconds

