                                  MODFLOW-2005     
      U.S. GEOLOGICAL SURVEY MODULAR FINITE-DIFFERENCE GROUND-WATER FLOW MODEL
                            VERSION 1.11.00 8/8/2013

 LIST FILE: supply2.lst
                         UNIT   10

 OPENING ..\data\supply.dis
 FILE TYPE:DIS   UNIT   11   STATUS:OLD    
 FORMAT:FORMATTED              ACCESS:SEQUENTIAL          

 OPENING ..\data\supply.ba6
 FILE TYPE:BAS6   UNIT   12   STATUS:OLD    
 FORMAT:FORMATTED              ACCESS:SEQUENTIAL          

 OPENING ..\data\supply.bc6
 FILE TYPE:BCF6   UNIT   13   STATUS:OLD    
 FORMAT:FORMATTED              ACCESS:SEQUENTIAL          

 OPENING ..\data\supply.rch
 FILE TYPE:RCH   UNIT   15   STATUS:OLD    
 FORMAT:FORMATTED              ACCESS:SEQUENTIAL          

 OPENING ..\data\supply2.sfr
 FILE TYPE:SFR   UNIT   16   STATUS:OLD    
 FORMAT:FORMATTED              ACCESS:SEQUENTIAL          

 OPENING ..\data\supply.oc
 FILE TYPE:OC   UNIT   17   STATUS:OLD    
 FORMAT:FORMATTED              ACCESS:SEQUENTIAL          

 OPENING ..\data\supply.pcg
 FILE TYPE:PCG   UNIT   18   STATUS:OLD    
 FORMAT:FORMATTED              ACCESS:SEQUENTIAL          

 OPENING supply2.wel
 FILE TYPE:WEL   UNIT   19   STATUS:OLD    
 FORMAT:FORMATTED              ACCESS:SEQUENTIAL          

 OPENING supply2sf.bin
 FILE TYPE:DATA(BINARY)   UNIT   50   STATUS:UNKNOWN
 FORMAT:BINARY                 ACCESS:SEQUENTIAL          

 OPENING supply2hd.bin
 FILE TYPE:DATA(BINARY)   UNIT   51   STATUS:UNKNOWN
 FORMAT:BINARY                 ACCESS:SEQUENTIAL          

 BAS -- BASIC PACKAGE, VERSION 7, 5/2/2005 INPUT READ FROM UNIT   12
 
 MODFLOW was compiled using uniform precision
 Precision of REAL and DOUBLE PRECISION variables:          15

 DISCRETIZATION INPUT DATA READ FROM UNIT   11
    1 LAYERS        25 ROWS        30 COLUMNS
   12 STRESS PERIOD(S) IN SIMULATION
 MODEL TIME UNIT IS DAYS
 MODEL LENGTH UNIT IS UNDEFINED
  Confining bed flag for each layer:
   0

                     DELR =   200.000    

                     DELC =   200.000    

 TOP ELEVATION OF LAYER 1 =  100.0000    

   MODEL LAYER BOTTOM EL. =   0.00000     FOR LAYER   1


 STRESS PERIOD     LENGTH       TIME STEPS     MULTIPLIER FOR DELT    SS FLAG
 ----------------------------------------------------------------------------
        1         92.00000          1                    1.500         TR
        2         91.00000          1                    1.500         TR
        3         91.00000          1                    1.500         TR
        4         91.00000          1                    1.500         TR
        5         92.00000          1                    1.500         TR
        6         91.00000          1                    1.500         TR
        7         91.00000          1                    1.500         TR
        8         91.00000          1                    1.500         TR
        9         92.00000          1                    1.500         TR
       10         91.00000          1                    1.500         TR
       11         91.00000          1                    1.500         TR
       12         91.00000          1                    1.500         TR

 TRANSIENT SIMULATION



 
 #MODOFC transient water supply sample problem                                   
 #                                                                               
 THE FREE FORMAT OPTION HAS BEEN SELECTED



                     BOUNDARY ARRAY FOR LAYER   1
 READING ON UNIT   12 WITH FORMAT: (20I4)              

 AQUIFER HEAD WILL BE SET TO   0.0000     AT ALL NO-FLOW NODES (IBOUND=0).



                       INITIAL HEAD FOR LAYER   1
 READING ON UNIT   12 WITH FORMAT: (10F13.0)           

 OUTPUT CONTROL IS SPECIFIED ONLY AT TIME STEPS FOR WHICH OUTPUT IS DESIRED
 COMPACT CELL-BY-CELL BUDGET FILES WILL BE WRITTEN
 HEAD PRINT FORMAT CODE IS  18    DRAWDOWN PRINT FORMAT CODE IS   0
 HEADS WILL BE SAVED ON UNIT   51    DRAWDOWNS WILL BE SAVED ON UNIT    0

 BCF -- BLOCK-CENTERED FLOW PACKAGE, VERSION 7, 5/2/2005
         INPUT READ FROM UNIT 13
 TRANSIENT SIMULATION
 HEAD AT CELLS THAT CONVERT TO DRY=   0.0000    
 WETTING CAPABILITY IS NOT ACTIVE
      LAYER  LAYER-TYPE CODE     INTERBLOCK T
      --------------------------------------------
         1            0          0 -- HARMONIC    

 COLUMN TO ROW ANISOTROPY =  1.000000    

     PRIMARY STORAGE COEF =  5.000000E-02 FOR LAYER   1

     TRANSMIS. ALONG ROWS =   5000.00     FOR LAYER   1

 WEL -- WELL PACKAGE, VERSION 7, 5/2/2005 INPUT READ FROM UNIT   19
 # Well package input file written by MMProc
 No named parameters
 MAXIMUM OF      7 ACTIVE WELLS AT ONE TIME


     0 Well parameters

 RCH -- RECHARGE PACKAGE, VERSION 7, 5/2/2005 INPUT READ FROM UNIT   15
 No named parameters
 OPTION 1 -- RECHARGE TO TOP LAYER


     0 Recharge parameters

 SFR7 -- STREAMFLOW ROUTING PACKAGE, VERSION 1.0.7, 2013-01-15
         INPUT READ FROM UNIT  16
 #  Supply2 test problem for GWM-VI
 #  The eighth entry in the first data line is ISTCB2 -
 #    Setting this to a negative number indicates that
 #    streamflows out of the reach will be saved to a
 #    binary file.  The absolute value of ISTCB2 is the
 #    unit to which unformatted flows will be written.
 #
 No named parameters
 Segment information will not be 
 read by reach
 No named parameters
 No specifed inflow files


 NUMBER OF STREAM REACHES IS   40

 NUMBER OF STREAM SEGMENTS IS    3

 NUMBER OF STREAM PARAMETERS IS    0

 NUMBER OF STREAM SEGMENTS DEFINED USING PARAMETERS IS              0

 MAXIMUM ERROR FOR STREAM LEAKAGE RATES IS  1.00E-04

 CONSTANT FOR MANNINGS EQUATION IS  1.2839E+05





   STREAM NETWORK DESCRIPTION: 

   LAYER    ROW    COL   SEGMENT   REACH     LENGTH
                          NUMBER   NUMBER    IN CELL        
   --------------------------------------------------
      1     13      1       1        1    2.0000E+02
      1     13      2       1        2    2.0000E+02
      1     14      3       1        3    2.0000E+02
      1     15      4       1        4    2.0000E+02
      1     16      5       1        5    2.0000E+02
      1     16      6       1        6    2.0000E+02
      1     16      7       1        7    2.0000E+02
      1     16      8       1        8    2.0000E+02
      1     16      9       1        9    2.0000E+02
      1     16     10       1       10    2.0000E+02
      1     16     11       1       11    2.0000E+02
      1     16     12       1       12    2.0000E+02
      1     15     13       1       13    2.0000E+02
      1     14     14       1       14    2.0000E+02
      1     13     15       1       15    2.0000E+02
      1     12     16       1       16    2.0000E+02
      1     12     17       1       17    2.0000E+02
      1     12     18       1       18    2.0000E+02
      1     12     19       1       19    2.0000E+02
      1     13     20       1       20    2.0000E+02
      1     14     21       1       21    2.0000E+02
      1     14     22       1       22    2.0000E+02
      1      9     30       2        1    2.0000E+02
      1      9     29       2        2    2.0000E+02
      1      9     28       2        3    2.0000E+02
      1      9     27       2        4    2.0000E+02
      1     10     26       2        5    2.0000E+02
      1     11     25       2        6    2.0000E+02
      1     12     24       2        7    2.0000E+02
      1     13     23       2        8    2.0000E+02
      1     14     22       2        9    2.0000E+02
      1     14     22       3        1    2.0000E+02
      1     15     23       3        2    2.0000E+02
      1     15     24       3        3    2.0000E+02
      1     15     25       3        4    2.0000E+02
      1     15     26       3        5    2.0000E+02
      1     16     27       3        6    2.0000E+02
      1     17     28       3        7    2.0000E+02
      1     18     29       3        8    2.0000E+02
      1     18     30       3        9    2.0000E+02




 PCG -- CONJUGATE-GRADIENT SOLUTION PACKAGE, VERSION 7, 5/2/2005
 MAXIMUM OF    500 CALLS OF SOLUTION ROUTINE
 MAXIMUM OF      5 INTERNAL ITERATIONS PER CALL TO SOLUTION ROUTINE
 MATRIX PRECONDITIONING TYPE :    1



                                    SOLUTION BY THE CONJUGATE-GRADIENT METHOD
                                   -------------------------------------------
                    MAXIMUM NUMBER OF CALLS TO PCG ROUTINE =      500
                        MAXIMUM ITERATIONS PER CALL TO PCG =        5
                               MATRIX PRECONDITIONING TYPE =        1
        RELAXATION FACTOR (ONLY USED WITH PRECOND. TYPE 1) =    0.10000E+01
 PARAMETER OF POLYNOMIAL PRECOND. = 2 (2) OR IS CALCULATED :        0
                         HEAD CHANGE CRITERION FOR CLOSURE =    0.10000E-05
                     RESIDUAL CHANGE CRITERION FOR CLOSURE =    0.10000E+01
            PCG HEAD AND RESIDUAL CHANGE PRINTOUT INTERVAL =        1
     PRINTING FROM SOLVER IS LIMITED(1) OR SUPPRESSED (>1) =        1
                            STEADY-STATE DAMPING PARAMETER =    0.10000E+01
                               TRANSIENT DAMPING PARAMETER =    0.10000E+01
1
                            STRESS PERIOD NO.    1, LENGTH =   92.00000    
                            -----------------------------------------------

                              NUMBER OF TIME STEPS =     1

                               MULTIPLIER FOR DELT =     1.500

                            INITIAL TIME STEP SIZE =   92.00000    

 WELL NO.  LAYER   ROW   COL   STRESS RATE         
 --------------------------------------------------
      1      1      6     12     -0.5000E+05
      2      1     20     28     -0.3000E+05

      2 WELLS

                 RECHARGE =  5.000000E-04



 CLASSIFICATION & COUNT OF STREAM SEGMENTS BASED ON SOURCE OF INFLOW:

                HEADWATER     DIVERSION     RECEIVES TRIBUTARY FLOW
                ---------     ---------     -----------------------
                     2              0               1



                    INPUT DATA FOR EACH STREAM SEGMENT
 ---------------------------------------------------------------------------------------------

 SEGMENT    SEG.     INFLOW   OVERLAND   STREAM    STREAM   ICALC  OUTFLOW  DIVERSION PRIORITY
    NO.    LENGTH     RATE     RUNOFF      ET       PPT.    METH.  TO SEG.  FROM SEG.    NO.

      1  4.400E+03 1.000E+05 0.000E+00 0.000E+00 0.000E+00    1        3        0        0
      2  1.800E+03 5.000E+04 0.000E+00 0.000E+00 0.000E+00    1        3        0        0
      3  1.800E+03 0.000E+00 0.000E+00 0.000E+00 0.000E+00    1        0        0        0


         STREAMBED PROPERTIES AND STREAM DIMENSIONS

 SEGMENT     BED HYD. COND.      BED THICKNESS     ELEV.-TOP OF BED     WIDTH OF STREAM     DEPTH OF STREAM    STREAM ROUGHNESS
    No.     UPPER     LOWER     UPPER     LOWER     UPPER     LOWER     UPPER     LOWER     UPPER     LOWER   CHANNEL      BANK

     1  5.000E+00 5.000E+00 1.000E+00 1.000E+00 4.850E+01 3.800E+01 2.000E+01 2.000E+01                     5.000E-02
     2  5.000E+00 5.000E+00 1.000E+00 1.000E+00 4.025E+01 3.800E+01 2.000E+01 2.000E+01                     5.000E-02
     3  5.000E+00 5.000E+00 1.000E+00 1.000E+00 3.800E+01 3.000E+01 2.000E+01 2.000E+01                     5.000E-02



 
 SOLVING FOR HEAD 


     8 CALLS TO PCG ROUTINE FOR TIME STEP   1 IN STRESS PERIOD    1
    32 TOTAL ITERATIONS

 OUTPUT CONTROL FOR STRESS PERIOD    1   TIME STEP    1
    SAVE BUDGET
    SAVE HEAD FOR ALL LAYERS
    PRINT HEAD FOR ALL LAYERS
 UBDSV2 SAVING "STREAMFLOW OUT  " ON UNIT  50 AT TIME STEP  1, STRESS PERIOD   1



 STREAM LISTING     PERIOD      1   STEP        1

 LAYER ROW COL. STREAM  RCH.  FLOW INTO     FLOW TO   FLOW OUT OF   OVRLND.     DIRECT     STREAM       STREAM     STREAM     STREAM   STREAMBED  STREAMBED
                SEG.NO.  NO.  STRM. RCH.    AQUIFER    STRM. RCH.    RUNOFF     PRECIP       ET          HEAD       DEPTH      WIDTH   CONDCTNC.   GRADIENT

   1   13    1     1     1    1.0000E+05 -3.1113E+04   1.3111E+05  0.000E+00  0.000E+00  0.000E+00  4.84191E+01  1.578E-01  2.000E+01  2.000E+04 -1.556E+00
   1   13    2     1     2    1.3111E+05 -4.1351E+04   1.7246E+05  0.000E+00  0.000E+00  0.000E+00  4.79699E+01  1.858E-01  2.000E+01  2.000E+04 -2.068E+00
   1   14    3     1     3    1.7246E+05 -3.7035E+04   2.0950E+05  0.000E+00  0.000E+00  0.000E+00  4.75201E+01  2.133E-01  2.000E+01  2.000E+04 -1.852E+00
   1   15    4     1     4    2.0950E+05 -3.6215E+04   2.4571E+05  0.000E+00  0.000E+00  0.000E+00  4.70665E+01  2.369E-01  2.000E+01  2.000E+04 -1.811E+00
   1   16    5     1     5    2.4571E+05 -3.7365E+04   2.8308E+05  0.000E+00  0.000E+00  0.000E+00  4.66115E+01  2.592E-01  2.000E+01  2.000E+04 -1.868E+00
   1   16    6     1     6    2.8308E+05 -3.2571E+04   3.1565E+05  0.000E+00  0.000E+00  0.000E+00  4.61543E+01  2.793E-01  2.000E+01  2.000E+04 -1.629E+00
   1   16    7     1     7    3.1565E+05 -3.2318E+04   3.4797E+05  0.000E+00  0.000E+00  0.000E+00  4.56948E+01  2.971E-01  2.000E+01  2.000E+04 -1.616E+00
   1   16    8     1     8    3.4797E+05 -3.2478E+04   3.8045E+05  0.000E+00  0.000E+00  0.000E+00  4.52346E+01  3.141E-01  2.000E+01  2.000E+04 -1.624E+00
   1   16    9     1     9    3.8045E+05 -3.2544E+04   4.1299E+05  0.000E+00  0.000E+00  0.000E+00  4.47739E+01  3.307E-01  2.000E+01  2.000E+04 -1.627E+00
   1   16   10     1    10    4.1299E+05 -3.2576E+04   4.4557E+05  0.000E+00  0.000E+00  0.000E+00  4.43126E+01  3.467E-01  2.000E+01  2.000E+04 -1.629E+00
   1   16   11     1    11    4.4557E+05 -3.3271E+04   4.7884E+05  0.000E+00  0.000E+00  0.000E+00  4.38511E+01  3.624E-01  2.000E+01  2.000E+04 -1.664E+00
   1   16   12     1    12    4.7884E+05 -3.9409E+04   5.1825E+05  0.000E+00  0.000E+00  0.000E+00  4.33906E+01  3.793E-01  2.000E+01  2.000E+04 -1.970E+00
   1   15   13     1    13    5.1825E+05 -3.8365E+04   5.5661E+05  0.000E+00  0.000E+00  0.000E+00  4.29308E+01  3.967E-01  2.000E+01  2.000E+04 -1.918E+00
   1   14   14     1    14    5.5661E+05 -3.8827E+04   5.9544E+05  0.000E+00  0.000E+00  0.000E+00  4.24704E+01  4.136E-01  2.000E+01  2.000E+04 -1.941E+00
   1   13   15     1    15    5.9544E+05 -4.0671E+04   6.3611E+05  0.000E+00  0.000E+00  0.000E+00  4.20100E+01  4.305E-01  2.000E+01  2.000E+04 -2.034E+00
   1   12   16     1    16    6.3611E+05 -4.6051E+04   6.8216E+05  0.000E+00  0.000E+00  0.000E+00  4.15507E+01  4.484E-01  2.000E+01  2.000E+04 -2.303E+00
   1   12   17     1    17    6.8216E+05 -3.6589E+04   7.1875E+05  0.000E+00  0.000E+00  0.000E+00  4.10901E+01  4.651E-01  2.000E+01  2.000E+04 -1.829E+00
   1   12   18     1    18    7.1875E+05 -3.5156E+04   7.5390E+05  0.000E+00  0.000E+00  0.000E+00  4.06270E+01  4.793E-01  2.000E+01  2.000E+04 -1.758E+00
   1   12   19     1    19    7.5390E+05 -3.9704E+04   7.9361E+05  0.000E+00  0.000E+00  0.000E+00  4.01642E+01  4.937E-01  2.000E+01  2.000E+04 -1.985E+00
   1   13   20     1    20    7.9361E+05 -3.0268E+04   8.2388E+05  0.000E+00  0.000E+00  0.000E+00  3.97002E+01  5.070E-01  2.000E+01  2.000E+04 -1.513E+00
   1   14   21     1    21    8.2388E+05 -2.2728E+04   8.4660E+05  0.000E+00  0.000E+00  0.000E+00  3.92328E+01  5.169E-01  2.000E+01  2.000E+04 -1.136E+00
   1   14   22     1    22    8.4660E+05 -2.8839E+03   8.4949E+05  0.000E+00  0.000E+00  0.000E+00  3.87603E+01  5.216E-01  2.000E+01  2.000E+04 -1.442E-01
   1    9   30     2     1    5.0000E+04 -2.9575E+04   7.9575E+04  0.000E+00  0.000E+00  0.000E+00  4.02604E+01  1.354E-01  2.000E+01  2.000E+04 -1.479E+00
   1    9   29     2     2    7.9575E+04 -3.2010E+04   1.1159E+05  0.000E+00  0.000E+00  0.000E+00  4.00459E+01  1.709E-01  2.000E+01  2.000E+04 -1.601E+00
   1    9   28     2     3    1.1159E+05 -3.6316E+04   1.4790E+05  0.000E+00  0.000E+00  0.000E+00  3.98303E+01  2.053E-01  2.000E+01  2.000E+04 -1.816E+00
   1    9   27     2     4    1.4790E+05 -5.0882E+04   1.9878E+05  0.000E+00  0.000E+00  0.000E+00  3.96193E+01  2.443E-01  2.000E+01  2.000E+04 -2.544E+00
   1   10   26     2     5    1.9878E+05 -3.7245E+04   2.3603E+05  0.000E+00  0.000E+00  0.000E+00  3.94049E+01  2.799E-01  2.000E+01  2.000E+04 -1.862E+00
   1   11   25     2     6    2.3603E+05 -2.8829E+04   2.6486E+05  0.000E+00  0.000E+00  0.000E+00  3.91796E+01  3.046E-01  2.000E+01  2.000E+04 -1.441E+00
   1   12   24     2     7    2.6486E+05 -2.1877E+04   2.8673E+05  0.000E+00  0.000E+00  0.000E+00  3.89478E+01  3.228E-01  2.000E+01  2.000E+04 -1.094E+00
   1   13   23     2     8    2.8673E+05 -1.5881E+04   3.0262E+05  0.000E+00  0.000E+00  0.000E+00  3.87109E+01  3.359E-01  2.000E+01  2.000E+04 -7.940E-01
   1   14   22     2     9    3.0262E+05 -8.7053E+03   3.1132E+05  0.000E+00  0.000E+00  0.000E+00  3.84692E+01  3.442E-01  2.000E+01  2.000E+04 -4.353E-01
   1   14   22     3     1    1.1608E+06 -1.6482E+04   1.1773E+06  0.000E+00  0.000E+00  0.000E+00  3.80804E+01  5.248E-01  2.000E+01  2.000E+04 -8.241E-01
   1   15   23     3     2    1.1773E+06 -2.6232E+04   1.2035E+06  0.000E+00  0.000E+00  0.000E+00  3.71972E+01  5.305E-01  2.000E+01  2.000E+04 -1.312E+00
   1   15   24     3     3    1.2035E+06 -2.1850E+04   1.2254E+06  0.000E+00  0.000E+00  0.000E+00  3.63147E+01  5.369E-01  2.000E+01  2.000E+04 -1.092E+00
   1   15   25     3     4    1.2254E+06 -2.1499E+04   1.2469E+06  0.000E+00  0.000E+00  0.000E+00  3.54316E+01  5.427E-01  2.000E+01  2.000E+04 -1.075E+00
   1   15   26     3     5    1.2469E+06 -2.4836E+04   1.2717E+06  0.000E+00  0.000E+00  0.000E+00  3.45488E+01  5.488E-01  2.000E+01  2.000E+04 -1.242E+00
   1   16   27     3     6    1.2717E+06 -3.1654E+04   1.3034E+06  0.000E+00  0.000E+00  0.000E+00  3.36672E+01  5.561E-01  2.000E+01  2.000E+04 -1.583E+00
   1   17   28     3     7    1.3034E+06 -3.7107E+04   1.3405E+06  0.000E+00  0.000E+00  0.000E+00  3.27872E+01  5.650E-01  2.000E+01  2.000E+04 -1.855E+00
   1   18   29     3     8    1.3405E+06 -4.5438E+04   1.3859E+06  0.000E+00  0.000E+00  0.000E+00  3.19088E+01  5.755E-01  2.000E+01  2.000E+04 -2.272E+00
   1   18   30     3     9    1.3859E+06 -4.3079E+04   1.4290E+06  0.000E+00  0.000E+00  0.000E+00  3.10311E+01  5.866E-01  2.000E+01  2.000E+04 -2.154E+00



1
              HEAD IN LAYER   1 AT END OF TIME STEP   1 IN STRESS PERIOD    1
  ---------------------------------------------------------------------------

          1      2      3      4      5      6      7      8      9     10
         11     12     13     14     15     16     17     18     19     20
         21     22     23     24     25     26     27     28     29     30
 .........................................................................
   1  ****** ****** ****** ****** ****** ****** ****** ****** ****** ******
      ****** ****** ****** ****** ****** ****** ****** ****** ****** ******
      ****** ****** ****** ****** ****** ****** ****** ****** ****** ******
   2  ****** ****** ****** ****** ****** ****** ****** ****** ****** ******
      ****** ****** ****** ****** ****** ****** ****** ****** ****** ******
      ****** ****** ****** ****** ****** ****** ****** ****** ****** ******
   3  ****** ****** ****** ****** ****** ****** ****** ****** ****** ******
      ****** ****** ****** ****** ****** ****** ****** ****** ****** ******
      ****** ****** ****** ****** ****** ****** ****** ****** ****** ******
   4  ****** ****** ****** ****** ****** ****** ****** ****** ****** ******
      ****** ****** ****** ****** ****** ****** ****** ****** ****** ******
      ****** ****** ****** ****** ****** ****** ****** ****** ****** ******
   5  ****** ****** ****** ****** ****** ****** ****** ****** ****** ******
      ****** ****** ****** ****** ****** ****** ****** ****** ****** ******
      ****** ****** ****** ****** ****** ****** ****** ****** ****** ******
   6  ****** ****** ****** ****** ****** ****** ****** ****** ****** ******
      ****** ****** ****** ****** ****** ****** ****** ****** ****** ******
      ****** ****** ****** ****** ****** ****** ****** ****** ****** ******
   7  ****** ****** ****** ****** ****** ****** ****** ****** ****** ******
      ****** ****** ****** ****** ****** ****** ****** ****** ****** ******
      ****** ****** ****** ****** ****** ****** ****** ****** ****** ******
   8  ****** ****** ****** ****** ****** ****** ****** ****** ****** ******
      ****** ****** ****** ****** ****** ****** ****** ****** ****** ******
      ****** ****** ****** ****** ****** ****** ****** ****** ****** ******
   9  ****** ****** ****** ****** ****** ****** ****** ****** ****** ******
      ****** ****** ****** ****** ****** ****** ****** ****** ****** ******
      ****** ****** ****** ****** ****** ****** ****** ****** ****** ******
  10  ****** ****** ****** ****** ****** ****** ****** ****** ****** ******
      ****** ****** ****** ****** ****** ****** ****** ****** ****** ******
      ****** ****** ****** ****** ****** ****** ****** ****** ****** ******
  11  ****** ****** ****** ****** ****** ****** ****** ****** ****** ******
      ****** ****** ****** ****** ****** ****** ****** ****** ****** ******
      ****** ****** ****** ****** ****** ****** ****** ****** ****** ******
  12  ****** ****** ****** ****** ****** ****** ****** ****** ****** ******
      ****** ****** ****** ****** ****** ****** ****** ****** ****** ******
      ****** ****** ****** ****** ****** ****** ****** ****** ****** ******
  13  ****** ****** ****** ****** ****** ****** ****** ****** ****** ******
      ****** ****** ****** ****** ****** ****** ****** ****** ****** ******
      ****** ****** ****** ****** ****** ****** ****** ****** ****** ******
  14  ****** ****** ****** ****** ****** ****** ****** ****** ****** ******
      ****** ****** ****** ****** ****** ****** ****** ****** ****** ******
      ****** ****** ****** ****** ****** ****** ****** ****** ****** ******
  15  ****** ****** ****** ****** ****** ****** ****** ****** ****** ******
      ****** ****** ****** ****** ****** ****** ****** ****** ****** ******
      ****** ****** ****** ****** ****** ****** ****** ****** ****** ******
  16  ****** ****** ****** ****** ****** ****** ****** ****** ****** ******
      ****** ****** ****** ****** ****** ****** ****** ****** ****** ******
      ****** ****** ****** ****** ****** ****** ****** ****** ****** ******
  17  ****** ****** ****** ****** ****** ****** ****** ****** ****** ******
      ****** ****** ****** ****** ****** ****** ****** ****** ****** ******
      ****** ****** ****** ****** ****** ****** ****** ****** ****** ******
  18  ****** ****** ****** ****** ****** ****** ****** ****** ****** ******
      ****** ****** ****** ****** ****** ****** ****** ****** ****** ******
      ****** ****** ****** ****** ****** ****** ****** ****** ****** ******
  19  ****** ****** ****** ****** ****** ****** ****** ****** ****** ******
      ****** ****** ****** ****** ****** ****** ****** ****** ****** ******
      ****** ****** ****** ****** ****** ****** ****** ****** ****** ******
  20  ****** ****** ****** ****** ****** ****** ****** ****** ****** ******
      ****** ****** ****** ****** ****** ****** ****** ****** ****** ******
      ****** ****** ****** ****** ****** ****** ****** ****** ****** ******
  21  ****** ****** ****** ****** ****** ****** ****** ****** ****** ******
      ****** ****** ****** ****** ****** ****** ****** ****** ****** ******
      ****** ****** ****** ****** ****** ****** ****** ****** ****** ******
  22  ****** ****** ****** ****** ****** ****** ****** ****** ****** ******
      ****** ****** ****** ****** ****** ****** ****** ****** ****** ******
      ****** ****** ****** ****** ****** ****** ****** ****** ****** ******
  23  ****** ****** ****** ****** ****** ****** ****** ****** ****** ******
      ****** ****** ****** ****** ****** ****** ****** ****** ****** ******
      ****** ****** ****** ****** ****** ****** ****** ****** ****** ******
  24  ****** ****** ****** ****** ****** ****** ****** ****** ****** ******
      ****** ****** ****** ****** ****** ****** ****** ****** ****** ******
      ****** ****** ****** ****** ****** ****** ****** ****** ****** ******
  25  ****** ****** ****** ****** ****** ****** ****** ****** ****** ******
      ****** ****** ****** ****** ****** ****** ****** ****** ****** ******
      ****** ****** ****** ****** ****** ****** ****** ****** ****** ******

 HEAD WILL BE SAVED ON UNIT   51 AT END OF TIME STEP    1, STRESS PERIOD    1
1
  VOLUMETRIC BUDGET FOR ENTIRE MODEL AT END OF TIME STEP    1, STRESS PERIOD   1
  ------------------------------------------------------------------------------

     CUMULATIVE VOLUMES      L**3       RATES FOR THIS TIME STEP      L**3/T
     ------------------                 ------------------------

           IN:                                      IN:
           ---                                      ---
             STORAGE =    19341315.3151               STORAGE =      210231.6882
       CONSTANT HEAD =   104415679.5323         CONSTANT HEAD =     1134953.0384
               WELLS =           0.0000                 WELLS =           0.0000
            RECHARGE =     1269600.0000              RECHARGE =       13800.0000
      STREAM LEAKAGE =           0.0000        STREAM LEAKAGE =           0.0000

            TOTAL IN =   125026594.8474              TOTAL IN =     1358984.7266

          OUT:                                     OUT:
          ----                                     ----
             STORAGE =           0.0000               STORAGE =           0.0000
       CONSTANT HEAD =           0.0000         CONSTANT HEAD =           0.0000
               WELLS =     7360000.0000                 WELLS =       80000.0000
            RECHARGE =           0.0000              RECHARGE =           0.0000
      STREAM LEAKAGE =   117666596.6604        STREAM LEAKAGE =     1278984.7463

           TOTAL OUT =   125026596.6604             TOTAL OUT =     1358984.7463

            IN - OUT =          -1.8131              IN - OUT =      -1.9707E-02

 PERCENT DISCREPANCY =          -0.00     PERCENT DISCREPANCY =          -0.00






         TIME SUMMARY AT END OF TIME STEP    1 IN STRESS PERIOD    1
                    SECONDS     MINUTES      HOURS       DAYS        YEARS
                    -----------------------------------------------------------
   TIME STEP LENGTH 7.94880E+06 1.32480E+05  2208.0      92.000     0.25188    
 STRESS PERIOD TIME 7.94880E+06 1.32480E+05  2208.0      92.000     0.25188    
         TOTAL TIME 7.94880E+06 1.32480E+05  2208.0      92.000     0.25188    
1
1
                            STRESS PERIOD NO.    2, LENGTH =   91.00000    
                            -----------------------------------------------

                              NUMBER OF TIME STEPS =     1

                               MULTIPLIER FOR DELT =     1.500

                            INITIAL TIME STEP SIZE =   91.00000    

 WELL NO.  LAYER   ROW   COL   STRESS RATE         
 --------------------------------------------------
      1      1      6     12     -0.5000E+05
      2      1     20     28       0.000    
      3      1      2      2     -0.3500E+05

      3 WELLS

                 RECHARGE =  2.000000E-03

 REUSING STREAM SEGMENT DATA FROM LAST STRESS PERIOD
 
 SOLVING FOR HEAD 


     6 CALLS TO PCG ROUTINE FOR TIME STEP   1 IN STRESS PERIOD    2
    25 TOTAL ITERATIONS

 OUTPUT CONTROL FOR STRESS PERIOD    2   TIME STEP    1
    SAVE BUDGET
    SAVE HEAD FOR ALL LAYERS
    PRINT HEAD FOR ALL LAYERS
 UBDSV2 SAVING "STREAMFLOW OUT  " ON UNIT  50 AT TIME STEP  1, STRESS PERIOD   2



 STREAM LISTING     PERIOD      2   STEP        1

 LAYER ROW COL. STREAM  RCH.  FLOW INTO     FLOW TO   FLOW OUT OF   OVRLND.     DIRECT     STREAM       STREAM     STREAM     STREAM   STREAMBED  STREAMBED
                SEG.NO.  NO.  STRM. RCH.    AQUIFER    STRM. RCH.    RUNOFF     PRECIP       ET          HEAD       DEPTH      WIDTH   CONDCTNC.   GRADIENT

   1   13    1     1     1    1.0000E+05 -2.7512E+04   1.2751E+05  0.000E+00  0.000E+00  0.000E+00  4.84176E+01  1.563E-01  2.000E+01  2.000E+04 -1.376E+00
   1   13    2     1     2    1.2751E+05 -3.7073E+04   1.6459E+05  0.000E+00  0.000E+00  0.000E+00  4.79657E+01  1.816E-01  2.000E+01  2.000E+04 -1.854E+00
   1   14    3     1     3    1.6459E+05 -3.2863E+04   1.9745E+05  0.000E+00  0.000E+00  0.000E+00  4.75133E+01  2.065E-01  2.000E+01  2.000E+04 -1.643E+00
   1   15    4     1     4    1.9745E+05 -3.2305E+04   2.2975E+05  0.000E+00  0.000E+00  0.000E+00  4.70576E+01  2.281E-01  2.000E+01  2.000E+04 -1.615E+00
   1   16    5     1     5    2.2975E+05 -3.4060E+04   2.6381E+05  0.000E+00  0.000E+00  0.000E+00  4.66010E+01  2.487E-01  2.000E+01  2.000E+04 -1.703E+00
   1   16    6     1     6    2.6381E+05 -2.9634E+04   2.9345E+05  0.000E+00  0.000E+00  0.000E+00  4.61425E+01  2.675E-01  2.000E+01  2.000E+04 -1.482E+00
   1   16    7     1     7    2.9345E+05 -2.9386E+04   3.2283E+05  0.000E+00  0.000E+00  0.000E+00  4.56819E+01  2.842E-01  2.000E+01  2.000E+04 -1.469E+00
   1   16    8     1     8    3.2283E+05 -2.9529E+04   3.5236E+05  0.000E+00  0.000E+00  0.000E+00  4.52206E+01  3.002E-01  2.000E+01  2.000E+04 -1.476E+00
   1   16    9     1     9    3.5236E+05 -2.9594E+04   3.8196E+05  0.000E+00  0.000E+00  0.000E+00  4.47589E+01  3.157E-01  2.000E+01  2.000E+04 -1.480E+00
   1   16   10     1    10    3.8196E+05 -2.9642E+04   4.1160E+05  0.000E+00  0.000E+00  0.000E+00  4.42966E+01  3.307E-01  2.000E+01  2.000E+04 -1.482E+00
   1   16   11     1    11    4.1160E+05 -3.0324E+04   4.4192E+05  0.000E+00  0.000E+00  0.000E+00  4.38341E+01  3.455E-01  2.000E+01  2.000E+04 -1.516E+00
   1   16   12     1    12    4.4192E+05 -3.6060E+04   4.7798E+05  0.000E+00  0.000E+00  0.000E+00  4.33727E+01  3.614E-01  2.000E+01  2.000E+04 -1.803E+00
   1   15   13     1    13    4.7798E+05 -3.4416E+04   5.1240E+05  0.000E+00  0.000E+00  0.000E+00  4.29118E+01  3.777E-01  2.000E+01  2.000E+04 -1.721E+00
   1   14   14     1    14    5.1240E+05 -3.4649E+04   5.4705E+05  0.000E+00  0.000E+00  0.000E+00  4.24501E+01  3.933E-01  2.000E+01  2.000E+04 -1.732E+00
   1   13   15     1    15    5.4705E+05 -3.6503E+04   5.8355E+05  0.000E+00  0.000E+00  0.000E+00  4.19885E+01  4.090E-01  2.000E+01  2.000E+04 -1.825E+00
   1   12   16     1    16    5.8355E+05 -4.2131E+04   6.2568E+05  0.000E+00  0.000E+00  0.000E+00  4.15281E+01  4.258E-01  2.000E+01  2.000E+04 -2.107E+00
   1   12   17     1    17    6.2568E+05 -3.3393E+04   6.5907E+05  0.000E+00  0.000E+00  0.000E+00  4.10666E+01  4.416E-01  2.000E+01  2.000E+04 -1.670E+00
   1   12   18     1    18    6.5907E+05 -3.2093E+04   6.9117E+05  0.000E+00  0.000E+00  0.000E+00  4.06027E+01  4.549E-01  2.000E+01  2.000E+04 -1.605E+00
   1   12   19     1    19    6.9117E+05 -3.6353E+04   7.2752E+05  0.000E+00  0.000E+00  0.000E+00  4.01391E+01  4.686E-01  2.000E+01  2.000E+04 -1.818E+00
   1   13   20     1    20    7.2752E+05 -2.7070E+04   7.5459E+05  0.000E+00  0.000E+00  0.000E+00  3.96743E+01  4.811E-01  2.000E+01  2.000E+04 -1.354E+00
   1   14   21     1    21    7.5459E+05 -2.0140E+04   7.7473E+05  0.000E+00  0.000E+00  0.000E+00  3.92061E+01  4.902E-01  2.000E+01  2.000E+04 -1.007E+00
   1   14   22     1    22    7.7473E+05 -1.9285E+03   7.7666E+05  0.000E+00  0.000E+00  0.000E+00  3.87331E+01  4.945E-01  2.000E+01  2.000E+04 -9.642E-02
   1    9   30     2     1    5.0000E+04 -2.6964E+04   7.6964E+04  0.000E+00  0.000E+00  0.000E+00  4.02587E+01  1.337E-01  2.000E+01  2.000E+04 -1.348E+00
   1    9   29     2     2    7.6964E+04 -2.9422E+04   1.0639E+05  0.000E+00  0.000E+00  0.000E+00  4.00417E+01  1.667E-01  2.000E+01  2.000E+04 -1.471E+00
   1    9   28     2     3    1.0639E+05 -3.3701E+04   1.4009E+05  0.000E+00  0.000E+00  0.000E+00  3.98241E+01  1.991E-01  2.000E+01  2.000E+04 -1.685E+00
   1    9   27     2     4    1.4009E+05 -4.7856E+04   1.8794E+05  0.000E+00  0.000E+00  0.000E+00  3.96113E+01  2.363E-01  2.000E+01  2.000E+04 -2.393E+00
   1   10   26     2     5    1.8794E+05 -3.3827E+04   2.2177E+05  0.000E+00  0.000E+00  0.000E+00  3.93950E+01  2.700E-01  2.000E+01  2.000E+04 -1.691E+00
   1   11   25     2     6    2.2177E+05 -2.5441E+04   2.4721E+05  0.000E+00  0.000E+00  0.000E+00  3.91679E+01  2.929E-01  2.000E+01  2.000E+04 -1.272E+00
   1   12   24     2     7    2.4721E+05 -1.8816E+04   2.6603E+05  0.000E+00  0.000E+00  0.000E+00  3.89341E+01  3.091E-01  2.000E+01  2.000E+04 -9.408E-01
   1   13   23     2     8    2.6603E+05 -1.3414E+04   2.7944E+05  0.000E+00  0.000E+00  0.000E+00  3.86956E+01  3.206E-01  2.000E+01  2.000E+04 -6.707E-01
   1   14   22     2     9    2.7944E+05 -7.5312E+03   2.8697E+05  0.000E+00  0.000E+00  0.000E+00  3.84530E+01  3.280E-01  2.000E+01  2.000E+04 -3.766E-01
   1   14   22     3     1    1.0636E+06 -1.5519E+04   1.0791E+06  0.000E+00  0.000E+00  0.000E+00  3.80536E+01  4.980E-01  2.000E+01  2.000E+04 -7.759E-01
   1   15   23     3     2    1.0791E+06 -2.4167E+04   1.1033E+06  0.000E+00  0.000E+00  0.000E+00  3.71702E+01  5.036E-01  2.000E+01  2.000E+04 -1.208E+00
   1   15   24     3     3    1.1033E+06 -2.0109E+04   1.1234E+06  0.000E+00  0.000E+00  0.000E+00  3.62874E+01  5.097E-01  2.000E+01  2.000E+04 -1.005E+00
   1   15   25     3     4    1.1234E+06 -1.9699E+04   1.1431E+06  0.000E+00  0.000E+00  0.000E+00  3.54040E+01  5.151E-01  2.000E+01  2.000E+04 -9.850E-01
   1   15   26     3     5    1.1431E+06 -2.2518E+04   1.1656E+06  0.000E+00  0.000E+00  0.000E+00  3.45208E+01  5.208E-01  2.000E+01  2.000E+04 -1.126E+00
   1   16   27     3     6    1.1656E+06 -2.9774E+04   1.1954E+06  0.000E+00  0.000E+00  0.000E+00  3.36390E+01  5.279E-01  2.000E+01  2.000E+04 -1.489E+00
   1   17   28     3     7    1.1954E+06 -3.6822E+04   1.2322E+06  0.000E+00  0.000E+00  0.000E+00  3.27590E+01  5.368E-01  2.000E+01  2.000E+04 -1.841E+00
   1   18   29     3     8    1.2322E+06 -4.7743E+04   1.2800E+06  0.000E+00  0.000E+00  0.000E+00  3.18813E+01  5.479E-01  2.000E+01  2.000E+04 -2.387E+00
   1   18   30     3     9    1.2800E+06 -4.4098E+04   1.3241E+06  0.000E+00  0.000E+00  0.000E+00  3.10043E+01  5.599E-01  2.000E+01  2.000E+04 -2.205E+00



1
              HEAD IN LAYER   1 AT END OF TIME STEP   1 IN STRESS PERIOD    2
  ---------------------------------------------------------------------------

          1      2      3      4      5      6      7      8      9     10
         11     12     13     14     15     16     17     18     19     20
         21     22     23     24     25     26     27     28     29     30
 .........................................................................
   1  ****** ****** ****** ****** ****** ****** ****** ****** ****** ******
      ****** ****** ****** ****** ****** ****** ****** ****** ****** ******
      ****** ****** ****** ****** ****** ****** ****** ****** ****** ******
   2  ****** ****** ****** ****** ****** ****** ****** ****** ****** ******
      ****** ****** ****** ****** ****** ****** ****** ****** ****** ******
      ****** ****** ****** ****** ****** ****** ****** ****** ****** ******
   3  ****** ****** ****** ****** ****** ****** ****** ****** ****** ******
      ****** ****** ****** ****** ****** ****** ****** ****** ****** ******
      ****** ****** ****** ****** ****** ****** ****** ****** ****** ******
   4  ****** ****** ****** ****** ****** ****** ****** ****** ****** ******
      ****** ****** ****** ****** ****** ****** ****** ****** ****** ******
      ****** ****** ****** ****** ****** ****** ****** ****** ****** ******
   5  ****** ****** ****** ****** ****** ****** ****** ****** ****** ******
      ****** ****** ****** ****** ****** ****** ****** ****** ****** ******
      ****** ****** ****** ****** ****** ****** ****** ****** ****** ******
   6  ****** ****** ****** ****** ****** ****** ****** ****** ****** ******
      ****** ****** ****** ****** ****** ****** ****** ****** ****** ******
      ****** ****** ****** ****** ****** ****** ****** ****** ****** ******
   7  ****** ****** ****** ****** ****** ****** ****** ****** ****** ******
      ****** ****** ****** ****** ****** ****** ****** ****** ****** ******
      ****** ****** ****** ****** ****** ****** ****** ****** ****** ******
   8  ****** ****** ****** ****** ****** ****** ****** ****** ****** ******
      ****** ****** ****** ****** ****** ****** ****** ****** ****** ******
      ****** ****** ****** ****** ****** ****** ****** ****** ****** ******
   9  ****** ****** ****** ****** ****** ****** ****** ****** ****** ******
      ****** ****** ****** ****** ****** ****** ****** ****** ****** ******
      ****** ****** ****** ****** ****** ****** ****** ****** ****** ******
  10  ****** ****** ****** ****** ****** ****** ****** ****** ****** ******
      ****** ****** ****** ****** ****** ****** ****** ****** ****** ******
      ****** ****** ****** ****** ****** ****** ****** ****** ****** ******
  11  ****** ****** ****** ****** ****** ****** ****** ****** ****** ******
      ****** ****** ****** ****** ****** ****** ****** ****** ****** ******
      ****** ****** ****** ****** ****** ****** ****** ****** ****** ******
  12  ****** ****** ****** ****** ****** ****** ****** ****** ****** ******
      ****** ****** ****** ****** ****** ****** ****** ****** ****** ******
      ****** ****** ****** ****** ****** ****** ****** ****** ****** ******
  13  ****** ****** ****** ****** ****** ****** ****** ****** ****** ******
      ****** ****** ****** ****** ****** ****** ****** ****** ****** ******
      ****** ****** ****** ****** ****** ****** ****** ****** ****** ******
  14  ****** ****** ****** ****** ****** ****** ****** ****** ****** ******
      ****** ****** ****** ****** ****** ****** ****** ****** ****** ******
      ****** ****** ****** ****** ****** ****** ****** ****** ****** ******
  15  ****** ****** ****** ****** ****** ****** ****** ****** ****** ******
      ****** ****** ****** ****** ****** ****** ****** ****** ****** ******
      ****** ****** ****** ****** ****** ****** ****** ****** ****** ******
  16  ****** ****** ****** ****** ****** ****** ****** ****** ****** ******
      ****** ****** ****** ****** ****** ****** ****** ****** ****** ******
      ****** ****** ****** ****** ****** ****** ****** ****** ****** ******
  17  ****** ****** ****** ****** ****** ****** ****** ****** ****** ******
      ****** ****** ****** ****** ****** ****** ****** ****** ****** ******
      ****** ****** ****** ****** ****** ****** ****** ****** ****** ******
  18  ****** ****** ****** ****** ****** ****** ****** ****** ****** ******
      ****** ****** ****** ****** ****** ****** ****** ****** ****** ******
      ****** ****** ****** ****** ****** ****** ****** ****** ****** ******
  19  ****** ****** ****** ****** ****** ****** ****** ****** ****** ******
      ****** ****** ****** ****** ****** ****** ****** ****** ****** ******
      ****** ****** ****** ****** ****** ****** ****** ****** ****** ******
  20  ****** ****** ****** ****** ****** ****** ****** ****** ****** ******
      ****** ****** ****** ****** ****** ****** ****** ****** ****** ******
      ****** ****** ****** ****** ****** ****** ****** ****** ****** ******
  21  ****** ****** ****** ****** ****** ****** ****** ****** ****** ******
      ****** ****** ****** ****** ****** ****** ****** ****** ****** ******
      ****** ****** ****** ****** ****** ****** ****** ****** ****** ******
  22  ****** ****** ****** ****** ****** ****** ****** ****** ****** ******
      ****** ****** ****** ****** ****** ****** ****** ****** ****** ******
      ****** ****** ****** ****** ****** ****** ****** ****** ****** ******
  23  ****** ****** ****** ****** ****** ****** ****** ****** ****** ******
      ****** ****** ****** ****** ****** ****** ****** ****** ****** ******
      ****** ****** ****** ****** ****** ****** ****** ****** ****** ******
  24  ****** ****** ****** ****** ****** ****** ****** ****** ****** ******
      ****** ****** ****** ****** ****** ****** ****** ****** ****** ******
      ****** ****** ****** ****** ****** ****** ****** ****** ****** ******
  25  ****** ****** ****** ****** ****** ****** ****** ****** ****** ******
      ****** ****** ****** ****** ****** ****** ****** ****** ****** ******
      ****** ****** ****** ****** ****** ****** ****** ****** ****** ******

 HEAD WILL BE SAVED ON UNIT   51 AT END OF TIME STEP    1, STRESS PERIOD    2
1
  VOLUMETRIC BUDGET FOR ENTIRE MODEL AT END OF TIME STEP    1, STRESS PERIOD   2
  ------------------------------------------------------------------------------

     CUMULATIVE VOLUMES      L**3       RATES FOR THIS TIME STEP      L**3/T
     ------------------                 ------------------------

           IN:                                      IN:
           ---                                      ---
             STORAGE =    20055894.7760               STORAGE =        7852.5215
       CONSTANT HEAD =   213297091.3898         CONSTANT HEAD =     1196499.0314
               WELLS =           0.0000                 WELLS =           0.0000
            RECHARGE =     6292800.0000              RECHARGE =       55200.0000
      STREAM LEAKAGE =           0.0000        STREAM LEAKAGE =           0.0000

            TOTAL IN =   239645786.1658              TOTAL IN =     1259551.5529

          OUT:                                     OUT:
          ----                                     ----
             STORAGE =       42797.1534               STORAGE =         470.2984
       CONSTANT HEAD =           0.0000         CONSTANT HEAD =           0.0000
               WELLS =    15095045.5000                 WELLS =       85000.5000
            RECHARGE =           0.0000              RECHARGE =           0.0000
      STREAM LEAKAGE =   224507947.0326        STREAM LEAKAGE =     1174080.7733

           TOTAL OUT =   239645789.6860             TOTAL OUT =     1259551.5717

            IN - OUT =          -3.5202              IN - OUT =      -1.8759E-02

 PERCENT DISCREPANCY =          -0.00     PERCENT DISCREPANCY =          -0.00






         TIME SUMMARY AT END OF TIME STEP    1 IN STRESS PERIOD    2
                    SECONDS     MINUTES      HOURS       DAYS        YEARS
                    -----------------------------------------------------------
   TIME STEP LENGTH 7.86240E+06 1.31040E+05  2184.0      91.000     0.24914    
 STRESS PERIOD TIME 7.86240E+06 1.31040E+05  2184.0      91.000     0.24914    
         TOTAL TIME 1.58112E+07 2.63520E+05  4392.0      183.00     0.50103    
1
1
                            STRESS PERIOD NO.    3, LENGTH =   91.00000    
                            -----------------------------------------------

                              NUMBER OF TIME STEPS =     1

                               MULTIPLIER FOR DELT =     1.500

                            INITIAL TIME STEP SIZE =   91.00000    

 WELL NO.  LAYER   ROW   COL   STRESS RATE         
 --------------------------------------------------
      1      1      6     12     -0.5000E+05
      2      1     20     28     -0.3000E+05

      2 WELLS

                 RECHARGE =   0.00000    

 REUSING STREAM SEGMENT DATA FROM LAST STRESS PERIOD
 
 SOLVING FOR HEAD 


     6 CALLS TO PCG ROUTINE FOR TIME STEP   1 IN STRESS PERIOD    3
    23 TOTAL ITERATIONS

 OUTPUT CONTROL FOR STRESS PERIOD    3   TIME STEP    1
    SAVE BUDGET
    SAVE HEAD FOR ALL LAYERS
    PRINT HEAD FOR ALL LAYERS
 UBDSV2 SAVING "STREAMFLOW OUT  " ON UNIT  50 AT TIME STEP  1, STRESS PERIOD   3



 STREAM LISTING     PERIOD      3   STEP        1

 LAYER ROW COL. STREAM  RCH.  FLOW INTO     FLOW TO   FLOW OUT OF   OVRLND.     DIRECT     STREAM       STREAM     STREAM     STREAM   STREAMBED  STREAMBED
                SEG.NO.  NO.  STRM. RCH.    AQUIFER    STRM. RCH.    RUNOFF     PRECIP       ET          HEAD       DEPTH      WIDTH   CONDCTNC.   GRADIENT

   1   13    1     1     1    1.0000E+05 -2.6816E+04   1.2682E+05  0.000E+00  0.000E+00  0.000E+00  4.84174E+01  1.560E-01  2.000E+01  2.000E+04 -1.341E+00
   1   13    2     1     2    1.2682E+05 -3.6232E+04   1.6305E+05  0.000E+00  0.000E+00  0.000E+00  4.79648E+01  1.807E-01  2.000E+01  2.000E+04 -1.812E+00
   1   14    3     1     3    1.6305E+05 -3.1900E+04   1.9495E+05  0.000E+00  0.000E+00  0.000E+00  4.75120E+01  2.051E-01  2.000E+01  2.000E+04 -1.595E+00
   1   15    4     1     4    1.9495E+05 -3.1306E+04   2.2625E+05  0.000E+00  0.000E+00  0.000E+00  4.70557E+01  2.262E-01  2.000E+01  2.000E+04 -1.565E+00
   1   16    5     1     5    2.2625E+05 -3.3110E+04   2.5936E+05  0.000E+00  0.000E+00  0.000E+00  4.65986E+01  2.463E-01  2.000E+01  2.000E+04 -1.656E+00
   1   16    6     1     6    2.5936E+05 -2.8814E+04   2.8818E+05  0.000E+00  0.000E+00  0.000E+00  4.61397E+01  2.647E-01  2.000E+01  2.000E+04 -1.441E+00
   1   16    7     1     7    2.8818E+05 -2.8569E+04   3.1675E+05  0.000E+00  0.000E+00  0.000E+00  4.56787E+01  2.810E-01  2.000E+01  2.000E+04 -1.428E+00
   1   16    8     1     8    3.1675E+05 -2.8701E+04   3.4545E+05  0.000E+00  0.000E+00  0.000E+00  4.52171E+01  2.967E-01  2.000E+01  2.000E+04 -1.435E+00
   1   16    9     1     9    3.4545E+05 -2.8756E+04   3.7420E+05  0.000E+00  0.000E+00  0.000E+00  4.47551E+01  3.119E-01  2.000E+01  2.000E+04 -1.438E+00
   1   16   10     1    10    3.7420E+05 -2.8793E+04   4.0300E+05  0.000E+00  0.000E+00  0.000E+00  4.42925E+01  3.266E-01  2.000E+01  2.000E+04 -1.440E+00
   1   16   11     1    11    4.0300E+05 -2.9447E+04   4.3244E+05  0.000E+00  0.000E+00  0.000E+00  4.38297E+01  3.411E-01  2.000E+01  2.000E+04 -1.472E+00
   1   16   12     1    12    4.3244E+05 -3.5005E+04   4.6745E+05  0.000E+00  0.000E+00  0.000E+00  4.33680E+01  3.566E-01  2.000E+01  2.000E+04 -1.750E+00
   1   15   13     1    13    4.6745E+05 -3.3252E+04   5.0070E+05  0.000E+00  0.000E+00  0.000E+00  4.29067E+01  3.726E-01  2.000E+01  2.000E+04 -1.663E+00
   1   14   14     1    14    5.0070E+05 -3.3444E+04   5.3415E+05  0.000E+00  0.000E+00  0.000E+00  4.24446E+01  3.878E-01  2.000E+01  2.000E+04 -1.672E+00
   1   13   15     1    15    5.3415E+05 -3.5309E+04   5.6945E+05  0.000E+00  0.000E+00  0.000E+00  4.19826E+01  4.031E-01  2.000E+01  2.000E+04 -1.765E+00
   1   12   16     1    16    5.6945E+05 -4.0988E+04   6.1044E+05  0.000E+00  0.000E+00  0.000E+00  4.15219E+01  4.196E-01  2.000E+01  2.000E+04 -2.049E+00
   1   12   17     1    17    6.1044E+05 -3.2455E+04   6.4290E+05  0.000E+00  0.000E+00  0.000E+00  4.10601E+01  4.351E-01  2.000E+01  2.000E+04 -1.623E+00
   1   12   18     1    18    6.4290E+05 -3.1188E+04   6.7409E+05  0.000E+00  0.000E+00  0.000E+00  4.05959E+01  4.482E-01  2.000E+01  2.000E+04 -1.559E+00
   1   12   19     1    19    6.7409E+05 -3.5363E+04   7.0945E+05  0.000E+00  0.000E+00  0.000E+00  4.01321E+01  4.616E-01  2.000E+01  2.000E+04 -1.768E+00
   1   13   20     1    20    7.0945E+05 -2.6093E+04   7.3554E+05  0.000E+00  0.000E+00  0.000E+00  3.96670E+01  4.738E-01  2.000E+01  2.000E+04 -1.305E+00
   1   14   21     1    21    7.3554E+05 -1.9198E+04   7.5474E+05  0.000E+00  0.000E+00  0.000E+00  3.91986E+01  4.827E-01  2.000E+01  2.000E+04 -9.599E-01
   1   14   22     1    22    7.5474E+05 -1.5770E+03   7.5632E+05  0.000E+00  0.000E+00  0.000E+00  3.87254E+01  4.867E-01  2.000E+01  2.000E+04 -7.885E-02
   1    9   30     2     1    5.0000E+04 -2.6246E+04   7.6246E+04  0.000E+00  0.000E+00  0.000E+00  4.02583E+01  1.333E-01  2.000E+01  2.000E+04 -1.312E+00
   1    9   29     2     2    7.6246E+04 -2.8708E+04   1.0495E+05  0.000E+00  0.000E+00  0.000E+00  4.00405E+01  1.655E-01  2.000E+01  2.000E+04 -1.435E+00
   1    9   28     2     3    1.0495E+05 -3.2969E+04   1.3792E+05  0.000E+00  0.000E+00  0.000E+00  3.98223E+01  1.973E-01  2.000E+01  2.000E+04 -1.648E+00
   1    9   27     2     4    1.3792E+05 -4.6970E+04   1.8489E+05  0.000E+00  0.000E+00  0.000E+00  3.96091E+01  2.341E-01  2.000E+01  2.000E+04 -2.349E+00
   1   10   26     2     5    1.8489E+05 -3.2884E+04   2.1778E+05  0.000E+00  0.000E+00  0.000E+00  3.93923E+01  2.673E-01  2.000E+01  2.000E+04 -1.644E+00
   1   11   25     2     6    2.1778E+05 -2.4520E+04   2.4230E+05  0.000E+00  0.000E+00  0.000E+00  3.91645E+01  2.895E-01  2.000E+01  2.000E+04 -1.226E+00
   1   12   24     2     7    2.4230E+05 -1.7984E+04   2.6028E+05  0.000E+00  0.000E+00  0.000E+00  3.89303E+01  3.053E-01  2.000E+01  2.000E+04 -8.992E-01
   1   13   23     2     8    2.6028E+05 -1.2721E+04   2.7300E+05  0.000E+00  0.000E+00  0.000E+00  3.86913E+01  3.163E-01  2.000E+01  2.000E+04 -6.361E-01
   1   14   22     2     9    2.7300E+05 -7.1174E+03   2.8012E+05  0.000E+00  0.000E+00  0.000E+00  3.84483E+01  3.233E-01  2.000E+01  2.000E+04 -3.559E-01
   1   14   22     3     1    1.0364E+06 -1.5166E+04   1.0516E+06  0.000E+00  0.000E+00  0.000E+00  3.80459E+01  4.904E-01  2.000E+01  2.000E+04 -7.583E-01
   1   15   23     3     2    1.0516E+06 -2.2996E+04   1.0746E+06  0.000E+00  0.000E+00  0.000E+00  3.71624E+01  4.957E-01  2.000E+01  2.000E+04 -1.150E+00
   1   15   24     3     3    1.0746E+06 -1.9035E+04   1.0936E+06  0.000E+00  0.000E+00  0.000E+00  3.62794E+01  5.016E-01  2.000E+01  2.000E+04 -9.517E-01
   1   15   25     3     4    1.0936E+06 -1.8554E+04   1.1122E+06  0.000E+00  0.000E+00  0.000E+00  3.53957E+01  5.068E-01  2.000E+01  2.000E+04 -9.277E-01
   1   15   26     3     5    1.1122E+06 -2.1188E+04   1.1334E+06  0.000E+00  0.000E+00  0.000E+00  3.45122E+01  5.122E-01  2.000E+01  2.000E+04 -1.059E+00
   1   16   27     3     6    1.1334E+06 -2.7419E+04   1.1608E+06  0.000E+00  0.000E+00  0.000E+00  3.36300E+01  5.189E-01  2.000E+01  2.000E+04 -1.371E+00
   1   17   28     3     7    1.1608E+06 -3.2920E+04   1.1937E+06  0.000E+00  0.000E+00  0.000E+00  3.27492E+01  5.270E-01  2.000E+01  2.000E+04 -1.646E+00
   1   18   29     3     8    1.1937E+06 -4.1811E+04   1.2355E+06  0.000E+00  0.000E+00  0.000E+00  3.18703E+01  5.370E-01  2.000E+01  2.000E+04 -2.091E+00
   1   18   30     3     9    1.2355E+06 -3.9914E+04   1.2754E+06  0.000E+00  0.000E+00  0.000E+00  3.09922E+01  5.478E-01  2.000E+01  2.000E+04 -1.996E+00



1
              HEAD IN LAYER   1 AT END OF TIME STEP   1 IN STRESS PERIOD    3
  ---------------------------------------------------------------------------

          1      2      3      4      5      6      7      8      9     10
         11     12     13     14     15     16     17     18     19     20
         21     22     23     24     25     26     27     28     29     30
 .........................................................................
   1  ****** ****** ****** ****** ****** ****** ****** ****** ****** ******
      ****** ****** ****** ****** ****** ****** ****** ****** ****** ******
      ****** ****** ****** ****** ****** ****** ****** ****** ****** ******
   2  ****** ****** ****** ****** ****** ****** ****** ****** ****** ******
      ****** ****** ****** ****** ****** ****** ****** ****** ****** ******
      ****** ****** ****** ****** ****** ****** ****** ****** ****** ******
   3  ****** ****** ****** ****** ****** ****** ****** ****** ****** ******
      ****** ****** ****** ****** ****** ****** ****** ****** ****** ******
      ****** ****** ****** ****** ****** ****** ****** ****** ****** ******
   4  ****** ****** ****** ****** ****** ****** ****** ****** ****** ******
      ****** ****** ****** ****** ****** ****** ****** ****** ****** ******
      ****** ****** ****** ****** ****** ****** ****** ****** ****** ******
   5  ****** ****** ****** ****** ****** ****** ****** ****** ****** ******
      ****** ****** ****** ****** ****** ****** ****** ****** ****** ******
      ****** ****** ****** ****** ****** ****** ****** ****** ****** ******
   6  ****** ****** ****** ****** ****** ****** ****** ****** ****** ******
      ****** ****** ****** ****** ****** ****** ****** ****** ****** ******
      ****** ****** ****** ****** ****** ****** ****** ****** ****** ******
   7  ****** ****** ****** ****** ****** ****** ****** ****** ****** ******
      ****** ****** ****** ****** ****** ****** ****** ****** ****** ******
      ****** ****** ****** ****** ****** ****** ****** ****** ****** ******
   8  ****** ****** ****** ****** ****** ****** ****** ****** ****** ******
      ****** ****** ****** ****** ****** ****** ****** ****** ****** ******
      ****** ****** ****** ****** ****** ****** ****** ****** ****** ******
   9  ****** ****** ****** ****** ****** ****** ****** ****** ****** ******
      ****** ****** ****** ****** ****** ****** ****** ****** ****** ******
      ****** ****** ****** ****** ****** ****** ****** ****** ****** ******
  10  ****** ****** ****** ****** ****** ****** ****** ****** ****** ******
      ****** ****** ****** ****** ****** ****** ****** ****** ****** ******
      ****** ****** ****** ****** ****** ****** ****** ****** ****** ******
  11  ****** ****** ****** ****** ****** ****** ****** ****** ****** ******
      ****** ****** ****** ****** ****** ****** ****** ****** ****** ******
      ****** ****** ****** ****** ****** ****** ****** ****** ****** ******
  12  ****** ****** ****** ****** ****** ****** ****** ****** ****** ******
      ****** ****** ****** ****** ****** ****** ****** ****** ****** ******
      ****** ****** ****** ****** ****** ****** ****** ****** ****** ******
  13  ****** ****** ****** ****** ****** ****** ****** ****** ****** ******
      ****** ****** ****** ****** ****** ****** ****** ****** ****** ******
      ****** ****** ****** ****** ****** ****** ****** ****** ****** ******
  14  ****** ****** ****** ****** ****** ****** ****** ****** ****** ******
      ****** ****** ****** ****** ****** ****** ****** ****** ****** ******
      ****** ****** ****** ****** ****** ****** ****** ****** ****** ******
  15  ****** ****** ****** ****** ****** ****** ****** ****** ****** ******
      ****** ****** ****** ****** ****** ****** ****** ****** ****** ******
      ****** ****** ****** ****** ****** ****** ****** ****** ****** ******
  16  ****** ****** ****** ****** ****** ****** ****** ****** ****** ******
      ****** ****** ****** ****** ****** ****** ****** ****** ****** ******
      ****** ****** ****** ****** ****** ****** ****** ****** ****** ******
  17  ****** ****** ****** ****** ****** ****** ****** ****** ****** ******
      ****** ****** ****** ****** ****** ****** ****** ****** ****** ******
      ****** ****** ****** ****** ****** ****** ****** ****** ****** ******
  18  ****** ****** ****** ****** ****** ****** ****** ****** ****** ******
      ****** ****** ****** ****** ****** ****** ****** ****** ****** ******
      ****** ****** ****** ****** ****** ****** ****** ****** ****** ******
  19  ****** ****** ****** ****** ****** ****** ****** ****** ****** ******
      ****** ****** ****** ****** ****** ****** ****** ****** ****** ******
      ****** ****** ****** ****** ****** ****** ****** ****** ****** ******
  20  ****** ****** ****** ****** ****** ****** ****** ****** ****** ******
      ****** ****** ****** ****** ****** ****** ****** ****** ****** ******
      ****** ****** ****** ****** ****** ****** ****** ****** ****** ******
  21  ****** ****** ****** ****** ****** ****** ****** ****** ****** ******
      ****** ****** ****** ****** ****** ****** ****** ****** ****** ******
      ****** ****** ****** ****** ****** ****** ****** ****** ****** ******
  22  ****** ****** ****** ****** ****** ****** ****** ****** ****** ******
      ****** ****** ****** ****** ****** ****** ****** ****** ****** ******
      ****** ****** ****** ****** ****** ****** ****** ****** ****** ******
  23  ****** ****** ****** ****** ****** ****** ****** ****** ****** ******
      ****** ****** ****** ****** ****** ****** ****** ****** ****** ******
      ****** ****** ****** ****** ****** ****** ****** ****** ****** ******
  24  ****** ****** ****** ****** ****** ****** ****** ****** ****** ******
      ****** ****** ****** ****** ****** ****** ****** ****** ****** ******
      ****** ****** ****** ****** ****** ****** ****** ****** ****** ******
  25  ****** ****** ****** ****** ****** ****** ****** ****** ****** ******
      ****** ****** ****** ****** ****** ****** ****** ****** ****** ******
      ****** ****** ****** ****** ****** ****** ****** ****** ****** ******

 HEAD WILL BE SAVED ON UNIT   51 AT END OF TIME STEP    1, STRESS PERIOD    3
1
  VOLUMETRIC BUDGET FOR ENTIRE MODEL AT END OF TIME STEP    1, STRESS PERIOD   3
  ------------------------------------------------------------------------------

     CUMULATIVE VOLUMES      L**3       RATES FOR THIS TIME STEP      L**3/T
     ------------------                 ------------------------

           IN:                                      IN:
           ---                                      ---
             STORAGE =    20387413.7568               STORAGE =        3643.0657
       CONSTANT HEAD =   322688163.9524         CONSTANT HEAD =     1202099.6985
               WELLS =           0.0000                 WELLS =           0.0000
            RECHARGE =     6292800.0000              RECHARGE =           0.0000
      STREAM LEAKAGE =           0.0000        STREAM LEAKAGE =           0.0000

            TOTAL IN =   349368377.7092              TOTAL IN =     1205742.7642

          OUT:                                     OUT:
          ----                                     ----
             STORAGE =       70516.6768               STORAGE =         304.6101
       CONSTANT HEAD =           0.0000         CONSTANT HEAD =           0.0000
               WELLS =    22375045.5000                 WELLS =       80000.0000
            RECHARGE =           0.0000              RECHARGE =           0.0000
      STREAM LEAKAGE =   326922822.4465        STREAM LEAKAGE =     1125438.1914

           TOTAL OUT =   349368384.6233             TOTAL OUT =     1205742.8015

            IN - OUT =          -6.9141              IN - OUT =      -3.7295E-02

 PERCENT DISCREPANCY =          -0.00     PERCENT DISCREPANCY =          -0.00






         TIME SUMMARY AT END OF TIME STEP    1 IN STRESS PERIOD    3
                    SECONDS     MINUTES      HOURS       DAYS        YEARS
                    -----------------------------------------------------------
   TIME STEP LENGTH 7.86240E+06 1.31040E+05  2184.0      91.000     0.24914    
 STRESS PERIOD TIME 7.86240E+06 1.31040E+05  2184.0      91.000     0.24914    
         TOTAL TIME 2.36736E+07 3.94560E+05  6576.0      274.00     0.75017    
1
1
                            STRESS PERIOD NO.    4, LENGTH =   91.00000    
                            -----------------------------------------------

                              NUMBER OF TIME STEPS =     1

                               MULTIPLIER FOR DELT =     1.500

                            INITIAL TIME STEP SIZE =   91.00000    

 WELL NO.  LAYER   ROW   COL   STRESS RATE         
 --------------------------------------------------
      1      1      6     12     -0.5000E+05
      2      1     20     28       0.000    
      3      1      2      2     -0.3000E+05

      3 WELLS

                 RECHARGE =  1.000000E-03

 REUSING STREAM SEGMENT DATA FROM LAST STRESS PERIOD
 
 SOLVING FOR HEAD 


     6 CALLS TO PCG ROUTINE FOR TIME STEP   1 IN STRESS PERIOD    4
    22 TOTAL ITERATIONS

 OUTPUT CONTROL FOR STRESS PERIOD    4   TIME STEP    1
    SAVE BUDGET
    SAVE HEAD FOR ALL LAYERS
    PRINT HEAD FOR ALL LAYERS
 UBDSV2 SAVING "STREAMFLOW OUT  " ON UNIT  50 AT TIME STEP  1, STRESS PERIOD   4



 STREAM LISTING     PERIOD      4   STEP        1

 LAYER ROW COL. STREAM  RCH.  FLOW INTO     FLOW TO   FLOW OUT OF   OVRLND.     DIRECT     STREAM       STREAM     STREAM     STREAM   STREAMBED  STREAMBED
                SEG.NO.  NO.  STRM. RCH.    AQUIFER    STRM. RCH.    RUNOFF     PRECIP       ET          HEAD       DEPTH      WIDTH   CONDCTNC.   GRADIENT

   1   13    1     1     1    1.0000E+05 -2.6905E+04   1.2690E+05  0.000E+00  0.000E+00  0.000E+00  4.84174E+01  1.560E-01  2.000E+01  2.000E+04 -1.345E+00
   1   13    2     1     2    1.2690E+05 -3.6335E+04   1.6324E+05  0.000E+00  0.000E+00  0.000E+00  4.79649E+01  1.808E-01  2.000E+01  2.000E+04 -1.817E+00
   1   14    3     1     3    1.6324E+05 -3.2141E+04   1.9538E+05  0.000E+00  0.000E+00  0.000E+00  4.75122E+01  2.053E-01  2.000E+01  2.000E+04 -1.607E+00
   1   15    4     1     4    1.9538E+05 -3.1614E+04   2.2699E+05  0.000E+00  0.000E+00  0.000E+00  4.70561E+01  2.265E-01  2.000E+01  2.000E+04 -1.581E+00
   1   16    5     1     5    2.2699E+05 -3.3446E+04   2.6044E+05  0.000E+00  0.000E+00  0.000E+00  4.65991E+01  2.469E-01  2.000E+01  2.000E+04 -1.672E+00
   1   16    6     1     6    2.6044E+05 -2.9096E+04   2.8954E+05  0.000E+00  0.000E+00  0.000E+00  4.61404E+01  2.654E-01  2.000E+01  2.000E+04 -1.455E+00
   1   16    7     1     7    2.8954E+05 -2.8849E+04   3.1839E+05  0.000E+00  0.000E+00  0.000E+00  4.56796E+01  2.818E-01  2.000E+01  2.000E+04 -1.442E+00
   1   16    8     1     8    3.1839E+05 -2.8988E+04   3.4737E+05  0.000E+00  0.000E+00  0.000E+00  4.52181E+01  2.976E-01  2.000E+01  2.000E+04 -1.449E+00
   1   16    9     1     9    3.4737E+05 -2.9052E+04   3.7643E+05  0.000E+00  0.000E+00  0.000E+00  4.47561E+01  3.130E-01  2.000E+01  2.000E+04 -1.453E+00
   1   16   10     1    10    3.7643E+05 -2.9101E+04   4.0553E+05  0.000E+00  0.000E+00  0.000E+00  4.42937E+01  3.278E-01  2.000E+01  2.000E+04 -1.455E+00
   1   16   11     1    11    4.0553E+05 -2.9777E+04   4.3530E+05  0.000E+00  0.000E+00  0.000E+00  4.38310E+01  3.424E-01  2.000E+01  2.000E+04 -1.489E+00
   1   16   12     1    12    4.3530E+05 -3.5423E+04   4.7073E+05  0.000E+00  0.000E+00  0.000E+00  4.33695E+01  3.581E-01  2.000E+01  2.000E+04 -1.771E+00
   1   15   13     1    13    4.7073E+05 -3.3697E+04   5.0442E+05  0.000E+00  0.000E+00  0.000E+00  4.29083E+01  3.742E-01  2.000E+01  2.000E+04 -1.685E+00
   1   14   14     1    14    5.0442E+05 -3.3898E+04   5.3832E+05  0.000E+00  0.000E+00  0.000E+00  4.24464E+01  3.896E-01  2.000E+01  2.000E+04 -1.695E+00
   1   13   15     1    15    5.3832E+05 -3.5752E+04   5.7407E+05  0.000E+00  0.000E+00  0.000E+00  4.19846E+01  4.050E-01  2.000E+01  2.000E+04 -1.788E+00
   1   12   16     1    16    5.7407E+05 -4.1398E+04   6.1547E+05  0.000E+00  0.000E+00  0.000E+00  4.15239E+01  4.216E-01  2.000E+01  2.000E+04 -2.070E+00
   1   12   17     1    17    6.1547E+05 -3.2816E+04   6.4829E+05  0.000E+00  0.000E+00  0.000E+00  4.10622E+01  4.372E-01  2.000E+01  2.000E+04 -1.641E+00
   1   12   18     1    18    6.4829E+05 -3.1549E+04   6.7984E+05  0.000E+00  0.000E+00  0.000E+00  4.05982E+01  4.505E-01  2.000E+01  2.000E+04 -1.577E+00
   1   12   19     1    19    6.7984E+05 -3.5763E+04   7.1560E+05  0.000E+00  0.000E+00  0.000E+00  4.01345E+01  4.640E-01  2.000E+01  2.000E+04 -1.788E+00
   1   13   20     1    20    7.1560E+05 -2.6533E+04   7.4213E+05  0.000E+00  0.000E+00  0.000E+00  3.96695E+01  4.763E-01  2.000E+01  2.000E+04 -1.327E+00
   1   14   21     1    21    7.4213E+05 -1.9682E+04   7.6181E+05  0.000E+00  0.000E+00  0.000E+00  3.92012E+01  4.853E-01  2.000E+01  2.000E+04 -9.841E-01
   1   14   22     1    22    7.6181E+05 -1.7745E+03   7.6359E+05  0.000E+00  0.000E+00  0.000E+00  3.87281E+01  4.895E-01  2.000E+01  2.000E+04 -8.873E-02
   1    9   30     2     1    5.0000E+04 -2.6574E+04   7.6574E+04  0.000E+00  0.000E+00  0.000E+00  4.02585E+01  1.335E-01  2.000E+01  2.000E+04 -1.329E+00
   1    9   29     2     2    7.6574E+04 -2.9031E+04   1.0560E+05  0.000E+00  0.000E+00  0.000E+00  4.00411E+01  1.661E-01  2.000E+01  2.000E+04 -1.452E+00
   1    9   28     2     3    1.0560E+05 -3.3294E+04   1.3890E+05  0.000E+00  0.000E+00  0.000E+00  3.98231E+01  1.981E-01  2.000E+01  2.000E+04 -1.665E+00
   1    9   27     2     4    1.3890E+05 -4.7349E+04   1.8625E+05  0.000E+00  0.000E+00  0.000E+00  3.96101E+01  2.351E-01  2.000E+01  2.000E+04 -2.367E+00
   1   10   26     2     5    1.8625E+05 -3.3298E+04   2.1955E+05  0.000E+00  0.000E+00  0.000E+00  3.93935E+01  2.685E-01  2.000E+01  2.000E+04 -1.665E+00
   1   11   25     2     6    2.1955E+05 -2.4930E+04   2.4448E+05  0.000E+00  0.000E+00  0.000E+00  3.91660E+01  2.910E-01  2.000E+01  2.000E+04 -1.246E+00
   1   12   24     2     7    2.4448E+05 -1.8362E+04   2.6284E+05  0.000E+00  0.000E+00  0.000E+00  3.89320E+01  3.070E-01  2.000E+01  2.000E+04 -9.181E-01
   1   13   23     2     8    2.6284E+05 -1.3048E+04   2.7588E+05  0.000E+00  0.000E+00  0.000E+00  3.86933E+01  3.183E-01  2.000E+01  2.000E+04 -6.524E-01
   1   14   22     2     9    2.7588E+05 -7.3285E+03   2.8321E+05  0.000E+00  0.000E+00  0.000E+00  3.84504E+01  3.254E-01  2.000E+01  2.000E+04 -3.664E-01
   1   14   22     3     1    1.0468E+06 -1.5360E+04   1.0622E+06  0.000E+00  0.000E+00  0.000E+00  3.80489E+01  4.933E-01  2.000E+01  2.000E+04 -7.680E-01
   1   15   23     3     2    1.0622E+06 -2.3749E+04   1.0859E+06  0.000E+00  0.000E+00  0.000E+00  3.71654E+01  4.988E-01  2.000E+01  2.000E+04 -1.187E+00
   1   15   24     3     3    1.0859E+06 -1.9772E+04   1.1057E+06  0.000E+00  0.000E+00  0.000E+00  3.62826E+01  5.048E-01  2.000E+01  2.000E+04 -9.886E-01
   1   15   25     3     4    1.1057E+06 -1.9367E+04   1.1250E+06  0.000E+00  0.000E+00  0.000E+00  3.53991E+01  5.102E-01  2.000E+01  2.000E+04 -9.683E-01
   1   15   26     3     5    1.1250E+06 -2.2130E+04   1.1472E+06  0.000E+00  0.000E+00  0.000E+00  3.45159E+01  5.159E-01  2.000E+01  2.000E+04 -1.106E+00
   1   16   27     3     6    1.1472E+06 -2.9301E+04   1.1765E+06  0.000E+00  0.000E+00  0.000E+00  3.36340E+01  5.229E-01  2.000E+01  2.000E+04 -1.465E+00
   1   17   28     3     7    1.1765E+06 -3.6339E+04   1.2128E+06  0.000E+00  0.000E+00  0.000E+00  3.27539E+01  5.317E-01  2.000E+01  2.000E+04 -1.817E+00
   1   18   29     3     8    1.2128E+06 -4.7295E+04   1.2601E+06  0.000E+00  0.000E+00  0.000E+00  3.18761E+01  5.428E-01  2.000E+01  2.000E+04 -2.365E+00
   1   18   30     3     9    1.2601E+06 -4.3727E+04   1.3038E+06  0.000E+00  0.000E+00  0.000E+00  3.09991E+01  5.547E-01  2.000E+01  2.000E+04 -2.186E+00



1
              HEAD IN LAYER   1 AT END OF TIME STEP   1 IN STRESS PERIOD    4
  ---------------------------------------------------------------------------

          1      2      3      4      5      6      7      8      9     10
         11     12     13     14     15     16     17     18     19     20
         21     22     23     24     25     26     27     28     29     30
 .........................................................................
   1  ****** ****** ****** ****** ****** ****** ****** ****** ****** ******
      ****** ****** ****** ****** ****** ****** ****** ****** ****** ******
      ****** ****** ****** ****** ****** ****** ****** ****** ****** ******
   2  ****** ****** ****** ****** ****** ****** ****** ****** ****** ******
      ****** ****** ****** ****** ****** ****** ****** ****** ****** ******
      ****** ****** ****** ****** ****** ****** ****** ****** ****** ******
   3  ****** ****** ****** ****** ****** ****** ****** ****** ****** ******
      ****** ****** ****** ****** ****** ****** ****** ****** ****** ******
      ****** ****** ****** ****** ****** ****** ****** ****** ****** ******
   4  ****** ****** ****** ****** ****** ****** ****** ****** ****** ******
      ****** ****** ****** ****** ****** ****** ****** ****** ****** ******
      ****** ****** ****** ****** ****** ****** ****** ****** ****** ******
   5  ****** ****** ****** ****** ****** ****** ****** ****** ****** ******
      ****** ****** ****** ****** ****** ****** ****** ****** ****** ******
      ****** ****** ****** ****** ****** ****** ****** ****** ****** ******
   6  ****** ****** ****** ****** ****** ****** ****** ****** ****** ******
      ****** ****** ****** ****** ****** ****** ****** ****** ****** ******
      ****** ****** ****** ****** ****** ****** ****** ****** ****** ******
   7  ****** ****** ****** ****** ****** ****** ****** ****** ****** ******
      ****** ****** ****** ****** ****** ****** ****** ****** ****** ******
      ****** ****** ****** ****** ****** ****** ****** ****** ****** ******
   8  ****** ****** ****** ****** ****** ****** ****** ****** ****** ******
      ****** ****** ****** ****** ****** ****** ****** ****** ****** ******
      ****** ****** ****** ****** ****** ****** ****** ****** ****** ******
   9  ****** ****** ****** ****** ****** ****** ****** ****** ****** ******
      ****** ****** ****** ****** ****** ****** ****** ****** ****** ******
      ****** ****** ****** ****** ****** ****** ****** ****** ****** ******
  10  ****** ****** ****** ****** ****** ****** ****** ****** ****** ******
      ****** ****** ****** ****** ****** ****** ****** ****** ****** ******
      ****** ****** ****** ****** ****** ****** ****** ****** ****** ******
  11  ****** ****** ****** ****** ****** ****** ****** ****** ****** ******
      ****** ****** ****** ****** ****** ****** ****** ****** ****** ******
      ****** ****** ****** ****** ****** ****** ****** ****** ****** ******
  12  ****** ****** ****** ****** ****** ****** ****** ****** ****** ******
      ****** ****** ****** ****** ****** ****** ****** ****** ****** ******
      ****** ****** ****** ****** ****** ****** ****** ****** ****** ******
  13  ****** ****** ****** ****** ****** ****** ****** ****** ****** ******
      ****** ****** ****** ****** ****** ****** ****** ****** ****** ******
      ****** ****** ****** ****** ****** ****** ****** ****** ****** ******
  14  ****** ****** ****** ****** ****** ****** ****** ****** ****** ******
      ****** ****** ****** ****** ****** ****** ****** ****** ****** ******
      ****** ****** ****** ****** ****** ****** ****** ****** ****** ******
  15  ****** ****** ****** ****** ****** ****** ****** ****** ****** ******
      ****** ****** ****** ****** ****** ****** ****** ****** ****** ******
      ****** ****** ****** ****** ****** ****** ****** ****** ****** ******
  16  ****** ****** ****** ****** ****** ****** ****** ****** ****** ******
      ****** ****** ****** ****** ****** ****** ****** ****** ****** ******
      ****** ****** ****** ****** ****** ****** ****** ****** ****** ******
  17  ****** ****** ****** ****** ****** ****** ****** ****** ****** ******
      ****** ****** ****** ****** ****** ****** ****** ****** ****** ******
      ****** ****** ****** ****** ****** ****** ****** ****** ****** ******
  18  ****** ****** ****** ****** ****** ****** ****** ****** ****** ******
      ****** ****** ****** ****** ****** ****** ****** ****** ****** ******
      ****** ****** ****** ****** ****** ****** ****** ****** ****** ******
  19  ****** ****** ****** ****** ****** ****** ****** ****** ****** ******
      ****** ****** ****** ****** ****** ****** ****** ****** ****** ******
      ****** ****** ****** ****** ****** ****** ****** ****** ****** ******
  20  ****** ****** ****** ****** ****** ****** ****** ****** ****** ******
      ****** ****** ****** ****** ****** ****** ****** ****** ****** ******
      ****** ****** ****** ****** ****** ****** ****** ****** ****** ******
  21  ****** ****** ****** ****** ****** ****** ****** ****** ****** ******
      ****** ****** ****** ****** ****** ****** ****** ****** ****** ******
      ****** ****** ****** ****** ****** ****** ****** ****** ****** ******
  22  ****** ****** ****** ****** ****** ****** ****** ****** ****** ******
      ****** ****** ****** ****** ****** ****** ****** ****** ****** ******
      ****** ****** ****** ****** ****** ****** ****** ****** ****** ******
  23  ****** ****** ****** ****** ****** ****** ****** ****** ****** ******
      ****** ****** ****** ****** ****** ****** ****** ****** ****** ******
      ****** ****** ****** ****** ****** ****** ****** ****** ****** ******
  24  ****** ****** ****** ****** ****** ****** ****** ****** ****** ******
      ****** ****** ****** ****** ****** ****** ****** ****** ****** ******
      ****** ****** ****** ****** ****** ****** ****** ****** ****** ******
  25  ****** ****** ****** ****** ****** ****** ****** ****** ****** ******
      ****** ****** ****** ****** ****** ****** ****** ****** ****** ******
      ****** ****** ****** ****** ****** ****** ****** ****** ****** ******

 HEAD WILL BE SAVED ON UNIT   51 AT END OF TIME STEP    1, STRESS PERIOD    4
1
  VOLUMETRIC BUDGET FOR ENTIRE MODEL AT END OF TIME STEP    1, STRESS PERIOD   4
  ------------------------------------------------------------------------------

     CUMULATIVE VOLUMES      L**3       RATES FOR THIS TIME STEP      L**3/T
     ------------------                 ------------------------

           IN:                                      IN:
           ---                                      ---
             STORAGE =    20424687.7786               STORAGE =         409.6046
       CONSTANT HEAD =   432595769.2258         CONSTANT HEAD =     1207775.8821
               WELLS =           0.0000                 WELLS =           0.0000
            RECHARGE =     8804400.0000              RECHARGE =       27600.0000
      STREAM LEAKAGE =           0.0000        STREAM LEAKAGE =           0.0000

            TOTAL IN =   461824857.0044              TOTAL IN =     1235785.4868

          OUT:                                     OUT:
          ----                                     ----
             STORAGE =      247393.6870               STORAGE =        1943.7034
       CONSTANT HEAD =           0.0000         CONSTANT HEAD =           0.0000
               WELLS =    29655045.5000                 WELLS =       80000.0000
            RECHARGE =           0.0000              RECHARGE =           0.0000
      STREAM LEAKAGE =   431922423.1436        STREAM LEAKAGE =     1153841.7659

           TOTAL OUT =   461824862.3305             TOTAL OUT =     1235785.4693

            IN - OUT =          -5.3262              IN - OUT =       1.7450E-02

 PERCENT DISCREPANCY =          -0.00     PERCENT DISCREPANCY =           0.00






         TIME SUMMARY AT END OF TIME STEP    1 IN STRESS PERIOD    4
                    SECONDS     MINUTES      HOURS       DAYS        YEARS
                    -----------------------------------------------------------
   TIME STEP LENGTH 7.86240E+06 1.31040E+05  2184.0      91.000     0.24914    
 STRESS PERIOD TIME 7.86240E+06 1.31040E+05  2184.0      91.000     0.24914    
         TOTAL TIME 3.15360E+07 5.25600E+05  8760.0      365.00     0.99932    
1
1
                            STRESS PERIOD NO.    5, LENGTH =   92.00000    
                            -----------------------------------------------

                              NUMBER OF TIME STEPS =     1

                               MULTIPLIER FOR DELT =     1.500

                            INITIAL TIME STEP SIZE =   92.00000    

 WELL NO.  LAYER   ROW   COL   STRESS RATE         
 --------------------------------------------------
      1      1      6     12     -0.5000E+05
      2      1     20     28     -0.3000E+05

      2 WELLS

                 RECHARGE =  5.000000E-04

 REUSING STREAM SEGMENT DATA FROM LAST STRESS PERIOD
 
 SOLVING FOR HEAD 


     5 CALLS TO PCG ROUTINE FOR TIME STEP   1 IN STRESS PERIOD    5
    19 TOTAL ITERATIONS

 OUTPUT CONTROL FOR STRESS PERIOD    5   TIME STEP    1
    SAVE BUDGET
    SAVE HEAD FOR ALL LAYERS
    PRINT HEAD FOR ALL LAYERS
 UBDSV2 SAVING "STREAMFLOW OUT  " ON UNIT  50 AT TIME STEP  1, STRESS PERIOD   5



 STREAM LISTING     PERIOD      5   STEP        1

 LAYER ROW COL. STREAM  RCH.  FLOW INTO     FLOW TO   FLOW OUT OF   OVRLND.     DIRECT     STREAM       STREAM     STREAM     STREAM   STREAMBED  STREAMBED
                SEG.NO.  NO.  STRM. RCH.    AQUIFER    STRM. RCH.    RUNOFF     PRECIP       ET          HEAD       DEPTH      WIDTH   CONDCTNC.   GRADIENT

   1   13    1     1     1    1.0000E+05 -2.7002E+04   1.2700E+05  0.000E+00  0.000E+00  0.000E+00  4.84174E+01  1.561E-01  2.000E+01  2.000E+04 -1.350E+00
   1   13    2     1     2    1.2700E+05 -3.6452E+04   1.6345E+05  0.000E+00  0.000E+00  0.000E+00  4.79650E+01  1.809E-01  2.000E+01  2.000E+04 -1.823E+00
   1   14    3     1     3    1.6345E+05 -3.2119E+04   1.9557E+05  0.000E+00  0.000E+00  0.000E+00  4.75123E+01  2.055E-01  2.000E+01  2.000E+04 -1.606E+00
   1   15    4     1     4    1.9557E+05 -3.1517E+04   2.2709E+05  0.000E+00  0.000E+00  0.000E+00  4.70562E+01  2.266E-01  2.000E+01  2.000E+04 -1.576E+00
   1   16    5     1     5    2.2709E+05 -3.3304E+04   2.6039E+05  0.000E+00  0.000E+00  0.000E+00  4.65992E+01  2.469E-01  2.000E+01  2.000E+04 -1.665E+00
   1   16    6     1     6    2.6039E+05 -2.8982E+04   2.8938E+05  0.000E+00  0.000E+00  0.000E+00  4.61403E+01  2.653E-01  2.000E+01  2.000E+04 -1.449E+00
   1   16    7     1     7    2.8938E+05 -2.8734E+04   3.1811E+05  0.000E+00  0.000E+00  0.000E+00  4.56795E+01  2.817E-01  2.000E+01  2.000E+04 -1.437E+00
   1   16    8     1     8    3.1811E+05 -2.8866E+04   3.4698E+05  0.000E+00  0.000E+00  0.000E+00  4.52179E+01  2.975E-01  2.000E+01  2.000E+04 -1.443E+00
   1   16    9     1     9    3.4698E+05 -2.8921E+04   3.7590E+05  0.000E+00  0.000E+00  0.000E+00  4.47559E+01  3.127E-01  2.000E+01  2.000E+04 -1.446E+00
   1   16   10     1    10    3.7590E+05 -2.8958E+04   4.0485E+05  0.000E+00  0.000E+00  0.000E+00  4.42934E+01  3.275E-01  2.000E+01  2.000E+04 -1.448E+00
   1   16   11     1    11    4.0485E+05 -2.9614E+04   4.3447E+05  0.000E+00  0.000E+00  0.000E+00  4.38307E+01  3.420E-01  2.000E+01  2.000E+04 -1.481E+00
   1   16   12     1    12    4.3447E+05 -3.5200E+04   4.6967E+05  0.000E+00  0.000E+00  0.000E+00  4.33690E+01  3.576E-01  2.000E+01  2.000E+04 -1.760E+00
   1   15   13     1    13    4.6967E+05 -3.3466E+04   5.0313E+05  0.000E+00  0.000E+00  0.000E+00  4.29078E+01  3.737E-01  2.000E+01  2.000E+04 -1.673E+00
   1   14   14     1    14    5.0313E+05 -3.3663E+04   5.3680E+05  0.000E+00  0.000E+00  0.000E+00  4.24458E+01  3.890E-01  2.000E+01  2.000E+04 -1.683E+00
   1   13   15     1    15    5.3680E+05 -3.5525E+04   5.7232E+05  0.000E+00  0.000E+00  0.000E+00  4.19838E+01  4.043E-01  2.000E+01  2.000E+04 -1.776E+00
   1   12   16     1    16    5.7232E+05 -4.1195E+04   6.1352E+05  0.000E+00  0.000E+00  0.000E+00  4.15231E+01  4.208E-01  2.000E+01  2.000E+04 -2.060E+00
   1   12   17     1    17    6.1352E+05 -3.2625E+04   6.4614E+05  0.000E+00  0.000E+00  0.000E+00  4.10614E+01  4.364E-01  2.000E+01  2.000E+04 -1.631E+00
   1   12   18     1    18    6.4614E+05 -3.1351E+04   6.7749E+05  0.000E+00  0.000E+00  0.000E+00  4.05973E+01  4.495E-01  2.000E+01  2.000E+04 -1.568E+00
   1   12   19     1    19    6.7749E+05 -3.5542E+04   7.1304E+05  0.000E+00  0.000E+00  0.000E+00  4.01335E+01  4.630E-01  2.000E+01  2.000E+04 -1.777E+00
   1   13   20     1    20    7.1304E+05 -2.6263E+04   7.3930E+05  0.000E+00  0.000E+00  0.000E+00  3.96685E+01  4.753E-01  2.000E+01  2.000E+04 -1.313E+00
   1   14   21     1    21    7.3930E+05 -1.9346E+04   7.5864E+05  0.000E+00  0.000E+00  0.000E+00  3.92001E+01  4.842E-01  2.000E+01  2.000E+04 -9.673E-01
   1   14   22     1    22    7.5864E+05 -1.6301E+03   7.6027E+05  0.000E+00  0.000E+00  0.000E+00  3.87269E+01  4.882E-01  2.000E+01  2.000E+04 -8.150E-02
   1    9   30     2     1    5.0000E+04 -2.6383E+04   7.6383E+04  0.000E+00  0.000E+00  0.000E+00  4.02583E+01  1.333E-01  2.000E+01  2.000E+04 -1.319E+00
   1    9   29     2     2    7.6383E+04 -2.8844E+04   1.0523E+05  0.000E+00  0.000E+00  0.000E+00  4.00407E+01  1.657E-01  2.000E+01  2.000E+04 -1.442E+00
   1    9   28     2     3    1.0523E+05 -3.3110E+04   1.3834E+05  0.000E+00  0.000E+00  0.000E+00  3.98227E+01  1.977E-01  2.000E+01  2.000E+04 -1.655E+00
   1    9   27     2     4    1.3834E+05 -4.7141E+04   1.8548E+05  0.000E+00  0.000E+00  0.000E+00  3.96095E+01  2.345E-01  2.000E+01  2.000E+04 -2.357E+00
   1   10   26     2     5    1.8548E+05 -3.3061E+04   2.1854E+05  0.000E+00  0.000E+00  0.000E+00  3.93928E+01  2.678E-01  2.000E+01  2.000E+04 -1.653E+00
   1   11   25     2     6    2.1854E+05 -2.4690E+04   2.4323E+05  0.000E+00  0.000E+00  0.000E+00  3.91651E+01  2.901E-01  2.000E+01  2.000E+04 -1.235E+00
   1   12   24     2     7    2.4323E+05 -1.8137E+04   2.6137E+05  0.000E+00  0.000E+00  0.000E+00  3.89310E+01  3.060E-01  2.000E+01  2.000E+04 -9.068E-01
   1   13   23     2     8    2.6137E+05 -1.2846E+04   2.7421E+05  0.000E+00  0.000E+00  0.000E+00  3.86921E+01  3.171E-01  2.000E+01  2.000E+04 -6.423E-01
   1   14   22     2     9    2.7421E+05 -7.1834E+03   2.8140E+05  0.000E+00  0.000E+00  0.000E+00  3.84492E+01  3.242E-01  2.000E+01  2.000E+04 -3.592E-01
   1   14   22     3     1    1.0417E+06 -1.5219E+04   1.0569E+06  0.000E+00  0.000E+00  0.000E+00  3.80474E+01  4.919E-01  2.000E+01  2.000E+04 -7.610E-01
   1   15   23     3     2    1.0569E+06 -2.3134E+04   1.0800E+06  0.000E+00  0.000E+00  0.000E+00  3.71639E+01  4.972E-01  2.000E+01  2.000E+04 -1.157E+00
   1   15   24     3     3    1.0800E+06 -1.9151E+04   1.0992E+06  0.000E+00  0.000E+00  0.000E+00  3.62809E+01  5.031E-01  2.000E+01  2.000E+04 -9.575E-01
   1   15   25     3     4    1.0992E+06 -1.8670E+04   1.1178E+06  0.000E+00  0.000E+00  0.000E+00  3.53972E+01  5.083E-01  2.000E+01  2.000E+04 -9.335E-01
   1   15   26     3     5    1.1178E+06 -2.1324E+04   1.1392E+06  0.000E+00  0.000E+00  0.000E+00  3.45138E+01  5.138E-01  2.000E+01  2.000E+04 -1.066E+00
   1   16   27     3     6    1.1392E+06 -2.7582E+04   1.1668E+06  0.000E+00  0.000E+00  0.000E+00  3.36316E+01  5.205E-01  2.000E+01  2.000E+04 -1.379E+00
   1   17   28     3     7    1.1668E+06 -3.3087E+04   1.1998E+06  0.000E+00  0.000E+00  0.000E+00  3.27509E+01  5.286E-01  2.000E+01  2.000E+04 -1.654E+00
   1   18   29     3     8    1.1998E+06 -4.1967E+04   1.2418E+06  0.000E+00  0.000E+00  0.000E+00  3.18720E+01  5.386E-01  2.000E+01  2.000E+04 -2.098E+00
   1   18   30     3     9    1.2418E+06 -4.0045E+04   1.2818E+06  0.000E+00  0.000E+00  0.000E+00  3.09939E+01  5.494E-01  2.000E+01  2.000E+04 -2.002E+00



1
              HEAD IN LAYER   1 AT END OF TIME STEP   1 IN STRESS PERIOD    5
  ---------------------------------------------------------------------------

          1      2      3      4      5      6      7      8      9     10
         11     12     13     14     15     16     17     18     19     20
         21     22     23     24     25     26     27     28     29     30
 .........................................................................
   1  ****** ****** ****** ****** ****** ****** ****** ****** ****** ******
      ****** ****** ****** ****** ****** ****** ****** ****** ****** ******
      ****** ****** ****** ****** ****** ****** ****** ****** ****** ******
   2  ****** ****** ****** ****** ****** ****** ****** ****** ****** ******
      ****** ****** ****** ****** ****** ****** ****** ****** ****** ******
      ****** ****** ****** ****** ****** ****** ****** ****** ****** ******
   3  ****** ****** ****** ****** ****** ****** ****** ****** ****** ******
      ****** ****** ****** ****** ****** ****** ****** ****** ****** ******
      ****** ****** ****** ****** ****** ****** ****** ****** ****** ******
   4  ****** ****** ****** ****** ****** ****** ****** ****** ****** ******
      ****** ****** ****** ****** ****** ****** ****** ****** ****** ******
      ****** ****** ****** ****** ****** ****** ****** ****** ****** ******
   5  ****** ****** ****** ****** ****** ****** ****** ****** ****** ******
      ****** ****** ****** ****** ****** ****** ****** ****** ****** ******
      ****** ****** ****** ****** ****** ****** ****** ****** ****** ******
   6  ****** ****** ****** ****** ****** ****** ****** ****** ****** ******
      ****** ****** ****** ****** ****** ****** ****** ****** ****** ******
      ****** ****** ****** ****** ****** ****** ****** ****** ****** ******
   7  ****** ****** ****** ****** ****** ****** ****** ****** ****** ******
      ****** ****** ****** ****** ****** ****** ****** ****** ****** ******
      ****** ****** ****** ****** ****** ****** ****** ****** ****** ******
   8  ****** ****** ****** ****** ****** ****** ****** ****** ****** ******
      ****** ****** ****** ****** ****** ****** ****** ****** ****** ******
      ****** ****** ****** ****** ****** ****** ****** ****** ****** ******
   9  ****** ****** ****** ****** ****** ****** ****** ****** ****** ******
      ****** ****** ****** ****** ****** ****** ****** ****** ****** ******
      ****** ****** ****** ****** ****** ****** ****** ****** ****** ******
  10  ****** ****** ****** ****** ****** ****** ****** ****** ****** ******
      ****** ****** ****** ****** ****** ****** ****** ****** ****** ******
      ****** ****** ****** ****** ****** ****** ****** ****** ****** ******
  11  ****** ****** ****** ****** ****** ****** ****** ****** ****** ******
      ****** ****** ****** ****** ****** ****** ****** ****** ****** ******
      ****** ****** ****** ****** ****** ****** ****** ****** ****** ******
  12  ****** ****** ****** ****** ****** ****** ****** ****** ****** ******
      ****** ****** ****** ****** ****** ****** ****** ****** ****** ******
      ****** ****** ****** ****** ****** ****** ****** ****** ****** ******
  13  ****** ****** ****** ****** ****** ****** ****** ****** ****** ******
      ****** ****** ****** ****** ****** ****** ****** ****** ****** ******
      ****** ****** ****** ****** ****** ****** ****** ****** ****** ******
  14  ****** ****** ****** ****** ****** ****** ****** ****** ****** ******
      ****** ****** ****** ****** ****** ****** ****** ****** ****** ******
      ****** ****** ****** ****** ****** ****** ****** ****** ****** ******
  15  ****** ****** ****** ****** ****** ****** ****** ****** ****** ******
      ****** ****** ****** ****** ****** ****** ****** ****** ****** ******
      ****** ****** ****** ****** ****** ****** ****** ****** ****** ******
  16  ****** ****** ****** ****** ****** ****** ****** ****** ****** ******
      ****** ****** ****** ****** ****** ****** ****** ****** ****** ******
      ****** ****** ****** ****** ****** ****** ****** ****** ****** ******
  17  ****** ****** ****** ****** ****** ****** ****** ****** ****** ******
      ****** ****** ****** ****** ****** ****** ****** ****** ****** ******
      ****** ****** ****** ****** ****** ****** ****** ****** ****** ******
  18  ****** ****** ****** ****** ****** ****** ****** ****** ****** ******
      ****** ****** ****** ****** ****** ****** ****** ****** ****** ******
      ****** ****** ****** ****** ****** ****** ****** ****** ****** ******
  19  ****** ****** ****** ****** ****** ****** ****** ****** ****** ******
      ****** ****** ****** ****** ****** ****** ****** ****** ****** ******
      ****** ****** ****** ****** ****** ****** ****** ****** ****** ******
  20  ****** ****** ****** ****** ****** ****** ****** ****** ****** ******
      ****** ****** ****** ****** ****** ****** ****** ****** ****** ******
      ****** ****** ****** ****** ****** ****** ****** ****** ****** ******
  21  ****** ****** ****** ****** ****** ****** ****** ****** ****** ******
      ****** ****** ****** ****** ****** ****** ****** ****** ****** ******
      ****** ****** ****** ****** ****** ****** ****** ****** ****** ******
  22  ****** ****** ****** ****** ****** ****** ****** ****** ****** ******
      ****** ****** ****** ****** ****** ****** ****** ****** ****** ******
      ****** ****** ****** ****** ****** ****** ****** ****** ****** ******
  23  ****** ****** ****** ****** ****** ****** ****** ****** ****** ******
      ****** ****** ****** ****** ****** ****** ****** ****** ****** ******
      ****** ****** ****** ****** ****** ****** ****** ****** ****** ******
  24  ****** ****** ****** ****** ****** ****** ****** ****** ****** ******
      ****** ****** ****** ****** ****** ****** ****** ****** ****** ******
      ****** ****** ****** ****** ****** ****** ****** ****** ****** ******
  25  ****** ****** ****** ****** ****** ****** ****** ****** ****** ******
      ****** ****** ****** ****** ****** ****** ****** ****** ****** ******
      ****** ****** ****** ****** ****** ****** ****** ****** ****** ******

 HEAD WILL BE SAVED ON UNIT   51 AT END OF TIME STEP    1, STRESS PERIOD    5
1
  VOLUMETRIC BUDGET FOR ENTIRE MODEL AT END OF TIME STEP    1, STRESS PERIOD   5
  ------------------------------------------------------------------------------

     CUMULATIVE VOLUMES      L**3       RATES FOR THIS TIME STEP      L**3/T
     ------------------                 ------------------------

           IN:                                      IN:
           ---                                      ---
             STORAGE =    20560757.9667               STORAGE =        1479.0238
       CONSTANT HEAD =   542726753.2322         CONSTANT HEAD =     1197075.9131
               WELLS =           0.0000                 WELLS =           0.0000
            RECHARGE =    10074000.0000              RECHARGE =       13800.0000
      STREAM LEAKAGE =           0.0000        STREAM LEAKAGE =           0.0000

            TOTAL IN =   573361511.1988              TOTAL IN =     1212354.9369

          OUT:                                     OUT:
          ----                                     ----
             STORAGE =      293955.7503               STORAGE =         506.1094
       CONSTANT HEAD =           0.0000         CONSTANT HEAD =           0.0000
               WELLS =    37015045.5000                 WELLS =       80000.0000
            RECHARGE =           0.0000              RECHARGE =           0.0000
      STREAM LEAKAGE =   536052522.1980        STREAM LEAKAGE =     1131848.9028

           TOTAL OUT =   573361523.4483             TOTAL OUT =     1212355.0121

            IN - OUT =         -12.2495              IN - OUT =      -7.5253E-02

 PERCENT DISCREPANCY =          -0.00     PERCENT DISCREPANCY =          -0.00






         TIME SUMMARY AT END OF TIME STEP    1 IN STRESS PERIOD    5
                    SECONDS     MINUTES      HOURS       DAYS        YEARS
                    -----------------------------------------------------------
   TIME STEP LENGTH 7.94880E+06 1.32480E+05  2208.0      92.000     0.25188    
 STRESS PERIOD TIME 7.94880E+06 1.32480E+05  2208.0      92.000     0.25188    
         TOTAL TIME 3.94848E+07 6.58080E+05  10968.      457.00      1.2512    
1
1
                            STRESS PERIOD NO.    6, LENGTH =   91.00000    
                            -----------------------------------------------

                              NUMBER OF TIME STEPS =     1

                               MULTIPLIER FOR DELT =     1.500

                            INITIAL TIME STEP SIZE =   91.00000    

 WELL NO.  LAYER   ROW   COL   STRESS RATE         
 --------------------------------------------------
      1      1      6     12     -0.5000E+05
      2      1     20     28       0.000    
      3      1      2      2     -0.3500E+05

      3 WELLS

                 RECHARGE =  2.000000E-03

 REUSING STREAM SEGMENT DATA FROM LAST STRESS PERIOD
 
 SOLVING FOR HEAD 


     6 CALLS TO PCG ROUTINE FOR TIME STEP   1 IN STRESS PERIOD    6
    22 TOTAL ITERATIONS

 OUTPUT CONTROL FOR STRESS PERIOD    6   TIME STEP    1
    SAVE BUDGET
    SAVE HEAD FOR ALL LAYERS
    PRINT HEAD FOR ALL LAYERS
 UBDSV2 SAVING "STREAMFLOW OUT  " ON UNIT  50 AT TIME STEP  1, STRESS PERIOD   6



 STREAM LISTING     PERIOD      6   STEP        1

 LAYER ROW COL. STREAM  RCH.  FLOW INTO     FLOW TO   FLOW OUT OF   OVRLND.     DIRECT     STREAM       STREAM     STREAM     STREAM   STREAMBED  STREAMBED
                SEG.NO.  NO.  STRM. RCH.    AQUIFER    STRM. RCH.    RUNOFF     PRECIP       ET          HEAD       DEPTH      WIDTH   CONDCTNC.   GRADIENT

   1   13    1     1     1    1.0000E+05 -2.7303E+04   1.2730E+05  0.000E+00  0.000E+00  0.000E+00  4.84176E+01  1.562E-01  2.000E+01  2.000E+04 -1.365E+00
   1   13    2     1     2    1.2730E+05 -3.6811E+04   1.6411E+05  0.000E+00  0.000E+00  0.000E+00  4.79654E+01  1.813E-01  2.000E+01  2.000E+04 -1.841E+00
   1   14    3     1     3    1.6411E+05 -3.2630E+04   1.9674E+05  0.000E+00  0.000E+00  0.000E+00  4.75129E+01  2.061E-01  2.000E+01  2.000E+04 -1.631E+00
   1   15    4     1     4    1.9674E+05 -3.2096E+04   2.2884E+05  0.000E+00  0.000E+00  0.000E+00  4.70571E+01  2.276E-01  2.000E+01  2.000E+04 -1.605E+00
   1   16    5     1     5    2.2884E+05 -3.3889E+04   2.6273E+05  0.000E+00  0.000E+00  0.000E+00  4.66004E+01  2.481E-01  2.000E+01  2.000E+04 -1.694E+00
   1   16    6     1     6    2.6273E+05 -2.9481E+04   2.9221E+05  0.000E+00  0.000E+00  0.000E+00  4.61418E+01  2.668E-01  2.000E+01  2.000E+04 -1.474E+00
   1   16    7     1     7    2.9221E+05 -2.9230E+04   3.2144E+05  0.000E+00  0.000E+00  0.000E+00  4.56812E+01  2.834E-01  2.000E+01  2.000E+04 -1.462E+00
   1   16    8     1     8    3.2144E+05 -2.9371E+04   3.5081E+05  0.000E+00  0.000E+00  0.000E+00  4.52198E+01  2.994E-01  2.000E+01  2.000E+04 -1.469E+00
   1   16    9     1     9    3.5081E+05 -2.9436E+04   3.8025E+05  0.000E+00  0.000E+00  0.000E+00  4.47580E+01  3.148E-01  2.000E+01  2.000E+04 -1.472E+00
   1   16   10     1    10    3.8025E+05 -2.9485E+04   4.0973E+05  0.000E+00  0.000E+00  0.000E+00  4.42957E+01  3.298E-01  2.000E+01  2.000E+04 -1.474E+00
   1   16   11     1    11    4.0973E+05 -3.0168E+04   4.3990E+05  0.000E+00  0.000E+00  0.000E+00  4.38332E+01  3.445E-01  2.000E+01  2.000E+04 -1.508E+00
   1   16   12     1    12    4.3990E+05 -3.5881E+04   4.7578E+05  0.000E+00  0.000E+00  0.000E+00  4.33717E+01  3.604E-01  2.000E+01  2.000E+04 -1.794E+00
   1   15   13     1    13    4.7578E+05 -3.4201E+04   5.0998E+05  0.000E+00  0.000E+00  0.000E+00  4.29108E+01  3.767E-01  2.000E+01  2.000E+04 -1.710E+00
   1   14   14     1    14    5.0998E+05 -3.4418E+04   5.4440E+05  0.000E+00  0.000E+00  0.000E+00  4.24490E+01  3.922E-01  2.000E+01  2.000E+04 -1.721E+00
   1   13   15     1    15    5.4440E+05 -3.6269E+04   5.8067E+05  0.000E+00  0.000E+00  0.000E+00  4.19873E+01  4.078E-01  2.000E+01  2.000E+04 -1.813E+00
   1   12   16     1    16    5.8067E+05 -4.1898E+04   6.2257E+05  0.000E+00  0.000E+00  0.000E+00  4.15268E+01  4.245E-01  2.000E+01  2.000E+04 -2.095E+00
   1   12   17     1    17    6.2257E+05 -3.3220E+04   6.5579E+05  0.000E+00  0.000E+00  0.000E+00  4.10652E+01  4.402E-01  2.000E+01  2.000E+04 -1.661E+00
   1   12   18     1    18    6.5579E+05 -3.1935E+04   6.8772E+05  0.000E+00  0.000E+00  0.000E+00  4.06013E+01  4.536E-01  2.000E+01  2.000E+04 -1.597E+00
   1   12   19     1    19    6.8772E+05 -3.6186E+04   7.2391E+05  0.000E+00  0.000E+00  0.000E+00  4.01377E+01  4.672E-01  2.000E+01  2.000E+04 -1.809E+00
   1   13   20     1    20    7.2391E+05 -2.6928E+04   7.5084E+05  0.000E+00  0.000E+00  0.000E+00  3.96728E+01  4.797E-01  2.000E+01  2.000E+04 -1.346E+00
   1   14   21     1    21    7.5084E+05 -2.0022E+04   7.7086E+05  0.000E+00  0.000E+00  0.000E+00  3.92047E+01  4.888E-01  2.000E+01  2.000E+04 -1.001E+00
   1   14   22     1    22    7.7086E+05 -1.8943E+03   7.7275E+05  0.000E+00  0.000E+00  0.000E+00  3.87316E+01  4.930E-01  2.000E+01  2.000E+04 -9.472E-02
   1    9   30     2     1    5.0000E+04 -2.6877E+04   7.6877E+04  0.000E+00  0.000E+00  0.000E+00  4.02587E+01  1.337E-01  2.000E+01  2.000E+04 -1.344E+00
   1    9   29     2     2    7.6877E+04 -2.9335E+04   1.0621E+05  0.000E+00  0.000E+00  0.000E+00  4.00416E+01  1.666E-01  2.000E+01  2.000E+04 -1.467E+00
   1    9   28     2     3    1.0621E+05 -3.3609E+04   1.3982E+05  0.000E+00  0.000E+00  0.000E+00  3.98239E+01  1.989E-01  2.000E+01  2.000E+04 -1.680E+00
   1    9   27     2     4    1.3982E+05 -4.7735E+04   1.8756E+05  0.000E+00  0.000E+00  0.000E+00  3.96110E+01  2.360E-01  2.000E+01  2.000E+04 -2.387E+00
   1   10   26     2     5    1.8756E+05 -3.3698E+04   2.2125E+05  0.000E+00  0.000E+00  0.000E+00  3.93947E+01  2.697E-01  2.000E+01  2.000E+04 -1.685E+00
   1   11   25     2     6    2.2125E+05 -2.5315E+04   2.4657E+05  0.000E+00  0.000E+00  0.000E+00  3.91674E+01  2.924E-01  2.000E+01  2.000E+04 -1.266E+00
   1   12   24     2     7    2.4657E+05 -1.8706E+04   2.6528E+05  0.000E+00  0.000E+00  0.000E+00  3.89336E+01  3.086E-01  2.000E+01  2.000E+04 -9.353E-01
   1   13   23     2     8    2.6528E+05 -1.3328E+04   2.7860E+05  0.000E+00  0.000E+00  0.000E+00  3.86951E+01  3.201E-01  2.000E+01  2.000E+04 -6.664E-01
   1   14   22     2     9    2.7860E+05 -7.4793E+03   2.8608E+05  0.000E+00  0.000E+00  0.000E+00  3.84524E+01  3.274E-01  2.000E+01  2.000E+04 -3.740E-01
   1   14   22     3     1    1.0588E+06 -1.5482E+04   1.0743E+06  0.000E+00  0.000E+00  0.000E+00  3.80523E+01  4.967E-01  2.000E+01  2.000E+04 -7.741E-01
   1   15   23     3     2    1.0743E+06 -2.4066E+04   1.0984E+06  0.000E+00  0.000E+00  0.000E+00  3.71689E+01  5.022E-01  2.000E+01  2.000E+04 -1.203E+00
   1   15   24     3     3    1.0984E+06 -2.0032E+04   1.1184E+06  0.000E+00  0.000E+00  0.000E+00  3.62861E+01  5.083E-01  2.000E+01  2.000E+04 -1.002E+00
   1   15   25     3     4    1.1184E+06 -1.9626E+04   1.1380E+06  0.000E+00  0.000E+00  0.000E+00  3.54026E+01  5.137E-01  2.000E+01  2.000E+04 -9.813E-01
   1   15   26     3     5    1.1380E+06 -2.2430E+04   1.1605E+06  0.000E+00  0.000E+00  0.000E+00  3.45195E+01  5.195E-01  2.000E+01  2.000E+04 -1.122E+00
   1   16   27     3     6    1.1605E+06 -2.9665E+04   1.1901E+06  0.000E+00  0.000E+00  0.000E+00  3.36376E+01  5.265E-01  2.000E+01  2.000E+04 -1.483E+00
   1   17   28     3     7    1.1901E+06 -3.6712E+04   1.2269E+06  0.000E+00  0.000E+00  0.000E+00  3.27576E+01  5.354E-01  2.000E+01  2.000E+04 -1.836E+00
   1   18   29     3     8    1.2269E+06 -4.7645E+04   1.2745E+06  0.000E+00  0.000E+00  0.000E+00  3.18798E+01  5.465E-01  2.000E+01  2.000E+04 -2.382E+00
   1   18   30     3     9    1.2745E+06 -4.4019E+04   1.3185E+06  0.000E+00  0.000E+00  0.000E+00  3.10029E+01  5.584E-01  2.000E+01  2.000E+04 -2.201E+00



1
              HEAD IN LAYER   1 AT END OF TIME STEP   1 IN STRESS PERIOD    6
  ---------------------------------------------------------------------------

          1      2      3      4      5      6      7      8      9     10
         11     12     13     14     15     16     17     18     19     20
         21     22     23     24     25     26     27     28     29     30
 .........................................................................
   1  ****** ****** ****** ****** ****** ****** ****** ****** ****** ******
      ****** ****** ****** ****** ****** ****** ****** ****** ****** ******
      ****** ****** ****** ****** ****** ****** ****** ****** ****** ******
   2  ****** ****** ****** ****** ****** ****** ****** ****** ****** ******
      ****** ****** ****** ****** ****** ****** ****** ****** ****** ******
      ****** ****** ****** ****** ****** ****** ****** ****** ****** ******
   3  ****** ****** ****** ****** ****** ****** ****** ****** ****** ******
      ****** ****** ****** ****** ****** ****** ****** ****** ****** ******
      ****** ****** ****** ****** ****** ****** ****** ****** ****** ******
   4  ****** ****** ****** ****** ****** ****** ****** ****** ****** ******
      ****** ****** ****** ****** ****** ****** ****** ****** ****** ******
      ****** ****** ****** ****** ****** ****** ****** ****** ****** ******
   5  ****** ****** ****** ****** ****** ****** ****** ****** ****** ******
      ****** ****** ****** ****** ****** ****** ****** ****** ****** ******
      ****** ****** ****** ****** ****** ****** ****** ****** ****** ******
   6  ****** ****** ****** ****** ****** ****** ****** ****** ****** ******
      ****** ****** ****** ****** ****** ****** ****** ****** ****** ******
      ****** ****** ****** ****** ****** ****** ****** ****** ****** ******
   7  ****** ****** ****** ****** ****** ****** ****** ****** ****** ******
      ****** ****** ****** ****** ****** ****** ****** ****** ****** ******
      ****** ****** ****** ****** ****** ****** ****** ****** ****** ******
   8  ****** ****** ****** ****** ****** ****** ****** ****** ****** ******
      ****** ****** ****** ****** ****** ****** ****** ****** ****** ******
      ****** ****** ****** ****** ****** ****** ****** ****** ****** ******
   9  ****** ****** ****** ****** ****** ****** ****** ****** ****** ******
      ****** ****** ****** ****** ****** ****** ****** ****** ****** ******
      ****** ****** ****** ****** ****** ****** ****** ****** ****** ******
  10  ****** ****** ****** ****** ****** ****** ****** ****** ****** ******
      ****** ****** ****** ****** ****** ****** ****** ****** ****** ******
      ****** ****** ****** ****** ****** ****** ****** ****** ****** ******
  11  ****** ****** ****** ****** ****** ****** ****** ****** ****** ******
      ****** ****** ****** ****** ****** ****** ****** ****** ****** ******
      ****** ****** ****** ****** ****** ****** ****** ****** ****** ******
  12  ****** ****** ****** ****** ****** ****** ****** ****** ****** ******
      ****** ****** ****** ****** ****** ****** ****** ****** ****** ******
      ****** ****** ****** ****** ****** ****** ****** ****** ****** ******
  13  ****** ****** ****** ****** ****** ****** ****** ****** ****** ******
      ****** ****** ****** ****** ****** ****** ****** ****** ****** ******
      ****** ****** ****** ****** ****** ****** ****** ****** ****** ******
  14  ****** ****** ****** ****** ****** ****** ****** ****** ****** ******
      ****** ****** ****** ****** ****** ****** ****** ****** ****** ******
      ****** ****** ****** ****** ****** ****** ****** ****** ****** ******
  15  ****** ****** ****** ****** ****** ****** ****** ****** ****** ******
      ****** ****** ****** ****** ****** ****** ****** ****** ****** ******
      ****** ****** ****** ****** ****** ****** ****** ****** ****** ******
  16  ****** ****** ****** ****** ****** ****** ****** ****** ****** ******
      ****** ****** ****** ****** ****** ****** ****** ****** ****** ******
      ****** ****** ****** ****** ****** ****** ****** ****** ****** ******
  17  ****** ****** ****** ****** ****** ****** ****** ****** ****** ******
      ****** ****** ****** ****** ****** ****** ****** ****** ****** ******
      ****** ****** ****** ****** ****** ****** ****** ****** ****** ******
  18  ****** ****** ****** ****** ****** ****** ****** ****** ****** ******
      ****** ****** ****** ****** ****** ****** ****** ****** ****** ******
      ****** ****** ****** ****** ****** ****** ****** ****** ****** ******
  19  ****** ****** ****** ****** ****** ****** ****** ****** ****** ******
      ****** ****** ****** ****** ****** ****** ****** ****** ****** ******
      ****** ****** ****** ****** ****** ****** ****** ****** ****** ******
  20  ****** ****** ****** ****** ****** ****** ****** ****** ****** ******
      ****** ****** ****** ****** ****** ****** ****** ****** ****** ******
      ****** ****** ****** ****** ****** ****** ****** ****** ****** ******
  21  ****** ****** ****** ****** ****** ****** ****** ****** ****** ******
      ****** ****** ****** ****** ****** ****** ****** ****** ****** ******
      ****** ****** ****** ****** ****** ****** ****** ****** ****** ******
  22  ****** ****** ****** ****** ****** ****** ****** ****** ****** ******
      ****** ****** ****** ****** ****** ****** ****** ****** ****** ******
      ****** ****** ****** ****** ****** ****** ****** ****** ****** ******
  23  ****** ****** ****** ****** ****** ****** ****** ****** ****** ******
      ****** ****** ****** ****** ****** ****** ****** ****** ****** ******
      ****** ****** ****** ****** ****** ****** ****** ****** ****** ******
  24  ****** ****** ****** ****** ****** ****** ****** ****** ****** ******
      ****** ****** ****** ****** ****** ****** ****** ****** ****** ******
      ****** ****** ****** ****** ****** ****** ****** ****** ****** ******
  25  ****** ****** ****** ****** ****** ****** ****** ****** ****** ******
      ****** ****** ****** ****** ****** ****** ****** ****** ****** ******
      ****** ****** ****** ****** ****** ****** ****** ****** ****** ******

 HEAD WILL BE SAVED ON UNIT   51 AT END OF TIME STEP    1, STRESS PERIOD    6
1
  VOLUMETRIC BUDGET FOR ENTIRE MODEL AT END OF TIME STEP    1, STRESS PERIOD   6
  ------------------------------------------------------------------------------

     CUMULATIVE VOLUMES      L**3       RATES FOR THIS TIME STEP      L**3/T
     ------------------                 ------------------------

           IN:                                      IN:
           ---                                      ---
             STORAGE =    20597212.4310               STORAGE =         400.5985
       CONSTANT HEAD =   651973576.3276         CONSTANT HEAD =     1200514.5395
               WELLS =           0.0000                 WELLS =           0.0000
            RECHARGE =    15097200.0000              RECHARGE =       55200.0000
      STREAM LEAKAGE =           0.0000        STREAM LEAKAGE =           0.0000

            TOTAL IN =   687667988.7587              TOTAL IN =     1256115.1380

          OUT:                                     OUT:
          ----                                     ----
             STORAGE =      530615.8831               STORAGE =        2600.6608
       CONSTANT HEAD =           0.0000         CONSTANT HEAD =           0.0000
               WELLS =    44750091.0000                 WELLS =       85000.5000
            RECHARGE =           0.0000              RECHARGE =           0.0000
      STREAM LEAKAGE =   642387291.4098        STREAM LEAKAGE =     1168513.9474

           TOTAL OUT =   687667998.2930             TOTAL OUT =     1256115.1082

            IN - OUT =          -9.5343              IN - OUT =       2.9837E-02

 PERCENT DISCREPANCY =          -0.00     PERCENT DISCREPANCY =           0.00






         TIME SUMMARY AT END OF TIME STEP    1 IN STRESS PERIOD    6
                    SECONDS     MINUTES      HOURS       DAYS        YEARS
                    -----------------------------------------------------------
   TIME STEP LENGTH 7.86240E+06 1.31040E+05  2184.0      91.000     0.24914    
 STRESS PERIOD TIME 7.86240E+06 1.31040E+05  2184.0      91.000     0.24914    
         TOTAL TIME 4.73472E+07 7.89120E+05  13152.      548.00      1.5003    
1
1
                            STRESS PERIOD NO.    7, LENGTH =   91.00000    
                            -----------------------------------------------

                              NUMBER OF TIME STEPS =     1

                               MULTIPLIER FOR DELT =     1.500

                            INITIAL TIME STEP SIZE =   91.00000    

 WELL NO.  LAYER   ROW   COL   STRESS RATE         
 --------------------------------------------------
      1      1      6     12     -0.5000E+05
      2      1     20     28     -0.3000E+05

      2 WELLS

                 RECHARGE =   0.00000    

 REUSING STREAM SEGMENT DATA FROM LAST STRESS PERIOD
 
 SOLVING FOR HEAD 


     6 CALLS TO PCG ROUTINE FOR TIME STEP   1 IN STRESS PERIOD    7
    22 TOTAL ITERATIONS

 OUTPUT CONTROL FOR STRESS PERIOD    7   TIME STEP    1
    SAVE BUDGET
    SAVE HEAD FOR ALL LAYERS
    PRINT HEAD FOR ALL LAYERS
 UBDSV2 SAVING "STREAMFLOW OUT  " ON UNIT  50 AT TIME STEP  1, STRESS PERIOD   7



 STREAM LISTING     PERIOD      7   STEP        1

 LAYER ROW COL. STREAM  RCH.  FLOW INTO     FLOW TO   FLOW OUT OF   OVRLND.     DIRECT     STREAM       STREAM     STREAM     STREAM   STREAMBED  STREAMBED
                SEG.NO.  NO.  STRM. RCH.    AQUIFER    STRM. RCH.    RUNOFF     PRECIP       ET          HEAD       DEPTH      WIDTH   CONDCTNC.   GRADIENT

   1   13    1     1     1    1.0000E+05 -2.6802E+04   1.2680E+05  0.000E+00  0.000E+00  0.000E+00  4.84174E+01  1.560E-01  2.000E+01  2.000E+04 -1.340E+00
   1   13    2     1     2    1.2680E+05 -3.6214E+04   1.6302E+05  0.000E+00  0.000E+00  0.000E+00  4.79648E+01  1.807E-01  2.000E+01  2.000E+04 -1.811E+00
   1   14    3     1     3    1.6302E+05 -3.1885E+04   1.9490E+05  0.000E+00  0.000E+00  0.000E+00  4.75119E+01  2.051E-01  2.000E+01  2.000E+04 -1.594E+00
   1   15    4     1     4    1.9490E+05 -3.1293E+04   2.2619E+05  0.000E+00  0.000E+00  0.000E+00  4.70557E+01  2.261E-01  2.000E+01  2.000E+04 -1.565E+00
   1   16    5     1     5    2.2619E+05 -3.3101E+04   2.5929E+05  0.000E+00  0.000E+00  0.000E+00  4.65985E+01  2.463E-01  2.000E+01  2.000E+04 -1.655E+00
   1   16    6     1     6    2.5929E+05 -2.8805E+04   2.8810E+05  0.000E+00  0.000E+00  0.000E+00  4.61397E+01  2.647E-01  2.000E+01  2.000E+04 -1.440E+00
   1   16    7     1     7    2.8810E+05 -2.8560E+04   3.1666E+05  0.000E+00  0.000E+00  0.000E+00  4.56787E+01  2.810E-01  2.000E+01  2.000E+04 -1.428E+00
   1   16    8     1     8    3.1666E+05 -2.8691E+04   3.4535E+05  0.000E+00  0.000E+00  0.000E+00  4.52171E+01  2.966E-01  2.000E+01  2.000E+04 -1.435E+00
   1   16    9     1     9    3.4535E+05 -2.8747E+04   3.7410E+05  0.000E+00  0.000E+00  0.000E+00  4.47550E+01  3.118E-01  2.000E+01  2.000E+04 -1.437E+00
   1   16   10     1    10    3.7410E+05 -2.8784E+04   4.0288E+05  0.000E+00  0.000E+00  0.000E+00  4.42925E+01  3.266E-01  2.000E+01  2.000E+04 -1.439E+00
   1   16   11     1    11    4.0288E+05 -2.9438E+04   4.3232E+05  0.000E+00  0.000E+00  0.000E+00  4.38297E+01  3.410E-01  2.000E+01  2.000E+04 -1.472E+00
   1   16   12     1    12    4.3232E+05 -3.4995E+04   4.6732E+05  0.000E+00  0.000E+00  0.000E+00  4.33679E+01  3.566E-01  2.000E+01  2.000E+04 -1.750E+00
   1   15   13     1    13    4.6732E+05 -3.3240E+04   5.0055E+05  0.000E+00  0.000E+00  0.000E+00  4.29067E+01  3.726E-01  2.000E+01  2.000E+04 -1.662E+00
   1   14   14     1    14    5.0055E+05 -3.3431E+04   5.3399E+05  0.000E+00  0.000E+00  0.000E+00  4.24446E+01  3.878E-01  2.000E+01  2.000E+04 -1.672E+00
   1   13   15     1    15    5.3399E+05 -3.5295E+04   5.6928E+05  0.000E+00  0.000E+00  0.000E+00  4.19826E+01  4.030E-01  2.000E+01  2.000E+04 -1.765E+00
   1   12   16     1    16    5.6928E+05 -4.0973E+04   6.1025E+05  0.000E+00  0.000E+00  0.000E+00  4.15218E+01  4.195E-01  2.000E+01  2.000E+04 -2.049E+00
   1   12   17     1    17    6.1025E+05 -3.2445E+04   6.4270E+05  0.000E+00  0.000E+00  0.000E+00  4.10600E+01  4.350E-01  2.000E+01  2.000E+04 -1.622E+00
   1   12   18     1    18    6.4270E+05 -3.1179E+04   6.7388E+05  0.000E+00  0.000E+00  0.000E+00  4.05958E+01  4.481E-01  2.000E+01  2.000E+04 -1.559E+00
   1   12   19     1    19    6.7388E+05 -3.5354E+04   7.0923E+05  0.000E+00  0.000E+00  0.000E+00  4.01320E+01  4.616E-01  2.000E+01  2.000E+04 -1.768E+00
   1   13   20     1    20    7.0923E+05 -2.6086E+04   7.3532E+05  0.000E+00  0.000E+00  0.000E+00  3.96669E+01  4.737E-01  2.000E+01  2.000E+04 -1.304E+00
   1   14   21     1    21    7.3532E+05 -1.9193E+04   7.5451E+05  0.000E+00  0.000E+00  0.000E+00  3.91985E+01  4.826E-01  2.000E+01  2.000E+04 -9.596E-01
   1   14   22     1    22    7.5451E+05 -1.5756E+03   7.5609E+05  0.000E+00  0.000E+00  0.000E+00  3.87253E+01  4.866E-01  2.000E+01  2.000E+04 -7.878E-02
   1    9   30     2     1    5.0000E+04 -2.6243E+04   7.6243E+04  0.000E+00  0.000E+00  0.000E+00  4.02583E+01  1.333E-01  2.000E+01  2.000E+04 -1.312E+00
   1    9   29     2     2    7.6243E+04 -2.8704E+04   1.0495E+05  0.000E+00  0.000E+00  0.000E+00  4.00405E+01  1.655E-01  2.000E+01  2.000E+04 -1.435E+00
   1    9   28     2     3    1.0495E+05 -3.2965E+04   1.3791E+05  0.000E+00  0.000E+00  0.000E+00  3.98223E+01  1.973E-01  2.000E+01  2.000E+04 -1.648E+00
   1    9   27     2     4    1.3791E+05 -4.6965E+04   1.8488E+05  0.000E+00  0.000E+00  0.000E+00  3.96090E+01  2.340E-01  2.000E+01  2.000E+04 -2.348E+00
   1   10   26     2     5    1.8488E+05 -3.2879E+04   2.1776E+05  0.000E+00  0.000E+00  0.000E+00  3.93922E+01  2.672E-01  2.000E+01  2.000E+04 -1.644E+00
   1   11   25     2     6    2.1776E+05 -2.4514E+04   2.4227E+05  0.000E+00  0.000E+00  0.000E+00  3.91645E+01  2.895E-01  2.000E+01  2.000E+04 -1.226E+00
   1   12   24     2     7    2.4227E+05 -1.7979E+04   2.6025E+05  0.000E+00  0.000E+00  0.000E+00  3.89302E+01  3.052E-01  2.000E+01  2.000E+04 -8.990E-01
   1   13   23     2     8    2.6025E+05 -1.2717E+04   2.7297E+05  0.000E+00  0.000E+00  0.000E+00  3.86913E+01  3.163E-01  2.000E+01  2.000E+04 -6.359E-01
   1   14   22     2     9    2.7297E+05 -7.1148E+03   2.8008E+05  0.000E+00  0.000E+00  0.000E+00  3.84483E+01  3.233E-01  2.000E+01  2.000E+04 -3.557E-01
   1   14   22     3     1    1.0362E+06 -1.5164E+04   1.0513E+06  0.000E+00  0.000E+00  0.000E+00  3.80459E+01  4.903E-01  2.000E+01  2.000E+04 -7.582E-01
   1   15   23     3     2    1.0513E+06 -2.2991E+04   1.0743E+06  0.000E+00  0.000E+00  0.000E+00  3.71623E+01  4.957E-01  2.000E+01  2.000E+04 -1.150E+00
   1   15   24     3     3    1.0743E+06 -1.9031E+04   1.0934E+06  0.000E+00  0.000E+00  0.000E+00  3.62793E+01  5.015E-01  2.000E+01  2.000E+04 -9.516E-01
   1   15   25     3     4    1.0934E+06 -1.8551E+04   1.1119E+06  0.000E+00  0.000E+00  0.000E+00  3.53956E+01  5.067E-01  2.000E+01  2.000E+04 -9.275E-01
   1   15   26     3     5    1.1119E+06 -2.1185E+04   1.1331E+06  0.000E+00  0.000E+00  0.000E+00  3.45122E+01  5.122E-01  2.000E+01  2.000E+04 -1.059E+00
   1   16   27     3     6    1.1331E+06 -2.7415E+04   1.1605E+06  0.000E+00  0.000E+00  0.000E+00  3.36299E+01  5.188E-01  2.000E+01  2.000E+04 -1.371E+00
   1   17   28     3     7    1.1605E+06 -3.2916E+04   1.1934E+06  0.000E+00  0.000E+00  0.000E+00  3.27492E+01  5.269E-01  2.000E+01  2.000E+04 -1.646E+00
   1   18   29     3     8    1.1934E+06 -4.1807E+04   1.2352E+06  0.000E+00  0.000E+00  0.000E+00  3.18702E+01  5.369E-01  2.000E+01  2.000E+04 -2.090E+00
   1   18   30     3     9    1.2352E+06 -3.9911E+04   1.2751E+06  0.000E+00  0.000E+00  0.000E+00  3.09921E+01  5.477E-01  2.000E+01  2.000E+04 -1.996E+00



1
              HEAD IN LAYER   1 AT END OF TIME STEP   1 IN STRESS PERIOD    7
  ---------------------------------------------------------------------------

          1      2      3      4      5      6      7      8      9     10
         11     12     13     14     15     16     17     18     19     20
         21     22     23     24     25     26     27     28     29     30
 .........................................................................
   1  ****** ****** ****** ****** ****** ****** ****** ****** ****** ******
      ****** ****** ****** ****** ****** ****** ****** ****** ****** ******
      ****** ****** ****** ****** ****** ****** ****** ****** ****** ******
   2  ****** ****** ****** ****** ****** ****** ****** ****** ****** ******
      ****** ****** ****** ****** ****** ****** ****** ****** ****** ******
      ****** ****** ****** ****** ****** ****** ****** ****** ****** ******
   3  ****** ****** ****** ****** ****** ****** ****** ****** ****** ******
      ****** ****** ****** ****** ****** ****** ****** ****** ****** ******
      ****** ****** ****** ****** ****** ****** ****** ****** ****** ******
   4  ****** ****** ****** ****** ****** ****** ****** ****** ****** ******
      ****** ****** ****** ****** ****** ****** ****** ****** ****** ******
      ****** ****** ****** ****** ****** ****** ****** ****** ****** ******
   5  ****** ****** ****** ****** ****** ****** ****** ****** ****** ******
      ****** ****** ****** ****** ****** ****** ****** ****** ****** ******
      ****** ****** ****** ****** ****** ****** ****** ****** ****** ******
   6  ****** ****** ****** ****** ****** ****** ****** ****** ****** ******
      ****** ****** ****** ****** ****** ****** ****** ****** ****** ******
      ****** ****** ****** ****** ****** ****** ****** ****** ****** ******
   7  ****** ****** ****** ****** ****** ****** ****** ****** ****** ******
      ****** ****** ****** ****** ****** ****** ****** ****** ****** ******
      ****** ****** ****** ****** ****** ****** ****** ****** ****** ******
   8  ****** ****** ****** ****** ****** ****** ****** ****** ****** ******
      ****** ****** ****** ****** ****** ****** ****** ****** ****** ******
      ****** ****** ****** ****** ****** ****** ****** ****** ****** ******
   9  ****** ****** ****** ****** ****** ****** ****** ****** ****** ******
      ****** ****** ****** ****** ****** ****** ****** ****** ****** ******
      ****** ****** ****** ****** ****** ****** ****** ****** ****** ******
  10  ****** ****** ****** ****** ****** ****** ****** ****** ****** ******
      ****** ****** ****** ****** ****** ****** ****** ****** ****** ******
      ****** ****** ****** ****** ****** ****** ****** ****** ****** ******
  11  ****** ****** ****** ****** ****** ****** ****** ****** ****** ******
      ****** ****** ****** ****** ****** ****** ****** ****** ****** ******
      ****** ****** ****** ****** ****** ****** ****** ****** ****** ******
  12  ****** ****** ****** ****** ****** ****** ****** ****** ****** ******
      ****** ****** ****** ****** ****** ****** ****** ****** ****** ******
      ****** ****** ****** ****** ****** ****** ****** ****** ****** ******
  13  ****** ****** ****** ****** ****** ****** ****** ****** ****** ******
      ****** ****** ****** ****** ****** ****** ****** ****** ****** ******
      ****** ****** ****** ****** ****** ****** ****** ****** ****** ******
  14  ****** ****** ****** ****** ****** ****** ****** ****** ****** ******
      ****** ****** ****** ****** ****** ****** ****** ****** ****** ******
      ****** ****** ****** ****** ****** ****** ****** ****** ****** ******
  15  ****** ****** ****** ****** ****** ****** ****** ****** ****** ******
      ****** ****** ****** ****** ****** ****** ****** ****** ****** ******
      ****** ****** ****** ****** ****** ****** ****** ****** ****** ******
  16  ****** ****** ****** ****** ****** ****** ****** ****** ****** ******
      ****** ****** ****** ****** ****** ****** ****** ****** ****** ******
      ****** ****** ****** ****** ****** ****** ****** ****** ****** ******
  17  ****** ****** ****** ****** ****** ****** ****** ****** ****** ******
      ****** ****** ****** ****** ****** ****** ****** ****** ****** ******
      ****** ****** ****** ****** ****** ****** ****** ****** ****** ******
  18  ****** ****** ****** ****** ****** ****** ****** ****** ****** ******
      ****** ****** ****** ****** ****** ****** ****** ****** ****** ******
      ****** ****** ****** ****** ****** ****** ****** ****** ****** ******
  19  ****** ****** ****** ****** ****** ****** ****** ****** ****** ******
      ****** ****** ****** ****** ****** ****** ****** ****** ****** ******
      ****** ****** ****** ****** ****** ****** ****** ****** ****** ******
  20  ****** ****** ****** ****** ****** ****** ****** ****** ****** ******
      ****** ****** ****** ****** ****** ****** ****** ****** ****** ******
      ****** ****** ****** ****** ****** ****** ****** ****** ****** ******
  21  ****** ****** ****** ****** ****** ****** ****** ****** ****** ******
      ****** ****** ****** ****** ****** ****** ****** ****** ****** ******
      ****** ****** ****** ****** ****** ****** ****** ****** ****** ******
  22  ****** ****** ****** ****** ****** ****** ****** ****** ****** ******
      ****** ****** ****** ****** ****** ****** ****** ****** ****** ******
      ****** ****** ****** ****** ****** ****** ****** ****** ****** ******
  23  ****** ****** ****** ****** ****** ****** ****** ****** ****** ******
      ****** ****** ****** ****** ****** ****** ****** ****** ****** ******
      ****** ****** ****** ****** ****** ****** ****** ****** ****** ******
  24  ****** ****** ****** ****** ****** ****** ****** ****** ****** ******
      ****** ****** ****** ****** ****** ****** ****** ****** ****** ******
      ****** ****** ****** ****** ****** ****** ****** ****** ****** ******
  25  ****** ****** ****** ****** ****** ****** ****** ****** ****** ******
      ****** ****** ****** ****** ****** ****** ****** ****** ****** ******
      ****** ****** ****** ****** ****** ****** ****** ****** ****** ******

 HEAD WILL BE SAVED ON UNIT   51 AT END OF TIME STEP    1, STRESS PERIOD    7
1
  VOLUMETRIC BUDGET FOR ENTIRE MODEL AT END OF TIME STEP    1, STRESS PERIOD   7
  ------------------------------------------------------------------------------

     CUMULATIVE VOLUMES      L**3       RATES FOR THIS TIME STEP      L**3/T
     ------------------                 ------------------------

           IN:                                      IN:
           ---                                      ---
             STORAGE =    20882459.8642               STORAGE =        3134.5872
       CONSTANT HEAD =   761387564.1736         CONSTANT HEAD =     1202351.5148
               WELLS =           0.0000                 WELLS =           0.0000
            RECHARGE =    15097200.0000              RECHARGE =           0.0000
      STREAM LEAKAGE =           0.0000        STREAM LEAKAGE =           0.0000

            TOTAL IN =   797367224.0378              TOTAL IN =     1205486.1020

          OUT:                                     OUT:
          ----                                     ----
             STORAGE =      562224.2816               STORAGE =         347.3450
       CONSTANT HEAD =           0.0000         CONSTANT HEAD =           0.0000
               WELLS =    52030091.0000                 WELLS =       80000.0000
            RECHARGE =           0.0000              RECHARGE =           0.0000
      STREAM LEAKAGE =   744774921.9821        STREAM LEAKAGE =     1125138.7975

           TOTAL OUT =   797367237.2637             TOTAL OUT =     1205486.1425

            IN - OUT =         -13.2259              IN - OUT =      -4.0567E-02

 PERCENT DISCREPANCY =          -0.00     PERCENT DISCREPANCY =          -0.00






         TIME SUMMARY AT END OF TIME STEP    1 IN STRESS PERIOD    7
                    SECONDS     MINUTES      HOURS       DAYS        YEARS
                    -----------------------------------------------------------
   TIME STEP LENGTH 7.86240E+06 1.31040E+05  2184.0      91.000     0.24914    
 STRESS PERIOD TIME 7.86240E+06 1.31040E+05  2184.0      91.000     0.24914    
         TOTAL TIME 5.52096E+07 9.20160E+05  15336.      639.00      1.7495    
1
1
                            STRESS PERIOD NO.    8, LENGTH =   91.00000    
                            -----------------------------------------------

                              NUMBER OF TIME STEPS =     1

                               MULTIPLIER FOR DELT =     1.500

                            INITIAL TIME STEP SIZE =   91.00000    

 WELL NO.  LAYER   ROW   COL   STRESS RATE         
 --------------------------------------------------
      1      1      6     12     -0.5000E+05
      2      1     20     28       0.000    
      3      1      2      2     -0.3000E+05

      3 WELLS

                 RECHARGE =  1.000000E-03

 REUSING STREAM SEGMENT DATA FROM LAST STRESS PERIOD
 
 SOLVING FOR HEAD 


     6 CALLS TO PCG ROUTINE FOR TIME STEP   1 IN STRESS PERIOD    8
    22 TOTAL ITERATIONS

 OUTPUT CONTROL FOR STRESS PERIOD    8   TIME STEP    1
    SAVE BUDGET
    SAVE HEAD FOR ALL LAYERS
    PRINT HEAD FOR ALL LAYERS
 UBDSV2 SAVING "STREAMFLOW OUT  " ON UNIT  50 AT TIME STEP  1, STRESS PERIOD   8



 STREAM LISTING     PERIOD      8   STEP        1

 LAYER ROW COL. STREAM  RCH.  FLOW INTO     FLOW TO   FLOW OUT OF   OVRLND.     DIRECT     STREAM       STREAM     STREAM     STREAM   STREAMBED  STREAMBED
                SEG.NO.  NO.  STRM. RCH.    AQUIFER    STRM. RCH.    RUNOFF     PRECIP       ET          HEAD       DEPTH      WIDTH   CONDCTNC.   GRADIENT

   1   13    1     1     1    1.0000E+05 -2.6904E+04   1.2690E+05  0.000E+00  0.000E+00  0.000E+00  4.84174E+01  1.560E-01  2.000E+01  2.000E+04 -1.345E+00
   1   13    2     1     2    1.2690E+05 -3.6333E+04   1.6324E+05  0.000E+00  0.000E+00  0.000E+00  4.79649E+01  1.808E-01  2.000E+01  2.000E+04 -1.817E+00
   1   14    3     1     3    1.6324E+05 -3.2140E+04   1.9538E+05  0.000E+00  0.000E+00  0.000E+00  4.75122E+01  2.053E-01  2.000E+01  2.000E+04 -1.607E+00
   1   15    4     1     4    1.9538E+05 -3.1613E+04   2.2699E+05  0.000E+00  0.000E+00  0.000E+00  4.70561E+01  2.265E-01  2.000E+01  2.000E+04 -1.581E+00
   1   16    5     1     5    2.2699E+05 -3.3445E+04   2.6043E+05  0.000E+00  0.000E+00  0.000E+00  4.65991E+01  2.469E-01  2.000E+01  2.000E+04 -1.672E+00
   1   16    6     1     6    2.6043E+05 -2.9096E+04   2.8953E+05  0.000E+00  0.000E+00  0.000E+00  4.61404E+01  2.654E-01  2.000E+01  2.000E+04 -1.455E+00
   1   16    7     1     7    2.8953E+05 -2.8849E+04   3.1838E+05  0.000E+00  0.000E+00  0.000E+00  4.56796E+01  2.818E-01  2.000E+01  2.000E+04 -1.442E+00
   1   16    8     1     8    3.1838E+05 -2.8987E+04   3.4737E+05  0.000E+00  0.000E+00  0.000E+00  4.52181E+01  2.976E-01  2.000E+01  2.000E+04 -1.449E+00
   1   16    9     1     9    3.4737E+05 -2.9052E+04   3.7642E+05  0.000E+00  0.000E+00  0.000E+00  4.47561E+01  3.129E-01  2.000E+01  2.000E+04 -1.453E+00
   1   16   10     1    10    3.7642E+05 -2.9101E+04   4.0552E+05  0.000E+00  0.000E+00  0.000E+00  4.42937E+01  3.278E-01  2.000E+01  2.000E+04 -1.455E+00
   1   16   11     1    11    4.0552E+05 -2.9776E+04   4.3530E+05  0.000E+00  0.000E+00  0.000E+00  4.38310E+01  3.424E-01  2.000E+01  2.000E+04 -1.489E+00
   1   16   12     1    12    4.3530E+05 -3.5422E+04   4.7072E+05  0.000E+00  0.000E+00  0.000E+00  4.33694E+01  3.581E-01  2.000E+01  2.000E+04 -1.771E+00
   1   15   13     1    13    4.7072E+05 -3.3696E+04   5.0441E+05  0.000E+00  0.000E+00  0.000E+00  4.29083E+01  3.742E-01  2.000E+01  2.000E+04 -1.685E+00
   1   14   14     1    14    5.0441E+05 -3.3897E+04   5.3831E+05  0.000E+00  0.000E+00  0.000E+00  4.24464E+01  3.896E-01  2.000E+01  2.000E+04 -1.695E+00
   1   13   15     1    15    5.3831E+05 -3.5751E+04   5.7406E+05  0.000E+00  0.000E+00  0.000E+00  4.19845E+01  4.050E-01  2.000E+01  2.000E+04 -1.788E+00
   1   12   16     1    16    5.7406E+05 -4.1397E+04   6.1546E+05  0.000E+00  0.000E+00  0.000E+00  4.15239E+01  4.216E-01  2.000E+01  2.000E+04 -2.070E+00
   1   12   17     1    17    6.1546E+05 -3.2815E+04   6.4827E+05  0.000E+00  0.000E+00  0.000E+00  4.10622E+01  4.372E-01  2.000E+01  2.000E+04 -1.641E+00
   1   12   18     1    18    6.4827E+05 -3.1548E+04   6.7982E+05  0.000E+00  0.000E+00  0.000E+00  4.05982E+01  4.504E-01  2.000E+01  2.000E+04 -1.577E+00
   1   12   19     1    19    6.7982E+05 -3.5763E+04   7.1559E+05  0.000E+00  0.000E+00  0.000E+00  4.01345E+01  4.640E-01  2.000E+01  2.000E+04 -1.788E+00
   1   13   20     1    20    7.1559E+05 -2.6533E+04   7.4212E+05  0.000E+00  0.000E+00  0.000E+00  3.96695E+01  4.763E-01  2.000E+01  2.000E+04 -1.327E+00
   1   14   21     1    21    7.4212E+05 -1.9681E+04   7.6180E+05  0.000E+00  0.000E+00  0.000E+00  3.92012E+01  4.853E-01  2.000E+01  2.000E+04 -9.841E-01
   1   14   22     1    22    7.6180E+05 -1.7745E+03   7.6357E+05  0.000E+00  0.000E+00  0.000E+00  3.87281E+01  4.895E-01  2.000E+01  2.000E+04 -8.872E-02
   1    9   30     2     1    5.0000E+04 -2.6573E+04   7.6573E+04  0.000E+00  0.000E+00  0.000E+00  4.02585E+01  1.335E-01  2.000E+01  2.000E+04 -1.329E+00
   1    9   29     2     2    7.6573E+04 -2.9031E+04   1.0560E+05  0.000E+00  0.000E+00  0.000E+00  4.00411E+01  1.661E-01  2.000E+01  2.000E+04 -1.452E+00
   1    9   28     2     3    1.0560E+05 -3.3294E+04   1.3890E+05  0.000E+00  0.000E+00  0.000E+00  3.98231E+01  1.981E-01  2.000E+01  2.000E+04 -1.665E+00
   1    9   27     2     4    1.3890E+05 -4.7348E+04   1.8625E+05  0.000E+00  0.000E+00  0.000E+00  3.96101E+01  2.351E-01  2.000E+01  2.000E+04 -2.367E+00
   1   10   26     2     5    1.8625E+05 -3.3298E+04   2.1954E+05  0.000E+00  0.000E+00  0.000E+00  3.93935E+01  2.685E-01  2.000E+01  2.000E+04 -1.665E+00
   1   11   25     2     6    2.1954E+05 -2.4929E+04   2.4447E+05  0.000E+00  0.000E+00  0.000E+00  3.91660E+01  2.910E-01  2.000E+01  2.000E+04 -1.246E+00
   1   12   24     2     7    2.4447E+05 -1.8361E+04   2.6284E+05  0.000E+00  0.000E+00  0.000E+00  3.89320E+01  3.070E-01  2.000E+01  2.000E+04 -9.181E-01
   1   13   23     2     8    2.6284E+05 -1.3048E+04   2.7588E+05  0.000E+00  0.000E+00  0.000E+00  3.86933E+01  3.183E-01  2.000E+01  2.000E+04 -6.524E-01
   1   14   22     2     9    2.7588E+05 -7.3283E+03   2.8321E+05  0.000E+00  0.000E+00  0.000E+00  3.84504E+01  3.254E-01  2.000E+01  2.000E+04 -3.664E-01
   1   14   22     3     1    1.0468E+06 -1.5359E+04   1.0621E+06  0.000E+00  0.000E+00  0.000E+00  3.80489E+01  4.933E-01  2.000E+01  2.000E+04 -7.680E-01
   1   15   23     3     2    1.0621E+06 -2.3749E+04   1.0859E+06  0.000E+00  0.000E+00  0.000E+00  3.71654E+01  4.988E-01  2.000E+01  2.000E+04 -1.187E+00
   1   15   24     3     3    1.0859E+06 -1.9771E+04   1.1057E+06  0.000E+00  0.000E+00  0.000E+00  3.62826E+01  5.048E-01  2.000E+01  2.000E+04 -9.886E-01
   1   15   25     3     4    1.1057E+06 -1.9367E+04   1.1250E+06  0.000E+00  0.000E+00  0.000E+00  3.53991E+01  5.102E-01  2.000E+01  2.000E+04 -9.683E-01
   1   15   26     3     5    1.1250E+06 -2.2130E+04   1.1472E+06  0.000E+00  0.000E+00  0.000E+00  3.45159E+01  5.159E-01  2.000E+01  2.000E+04 -1.106E+00
   1   16   27     3     6    1.1472E+06 -2.9301E+04   1.1765E+06  0.000E+00  0.000E+00  0.000E+00  3.36340E+01  5.229E-01  2.000E+01  2.000E+04 -1.465E+00
   1   17   28     3     7    1.1765E+06 -3.6339E+04   1.2128E+06  0.000E+00  0.000E+00  0.000E+00  3.27539E+01  5.317E-01  2.000E+01  2.000E+04 -1.817E+00
   1   18   29     3     8    1.2128E+06 -4.7295E+04   1.2601E+06  0.000E+00  0.000E+00  0.000E+00  3.18761E+01  5.428E-01  2.000E+01  2.000E+04 -2.365E+00
   1   18   30     3     9    1.2601E+06 -4.3727E+04   1.3038E+06  0.000E+00  0.000E+00  0.000E+00  3.09991E+01  5.547E-01  2.000E+01  2.000E+04 -2.186E+00



1
              HEAD IN LAYER   1 AT END OF TIME STEP   1 IN STRESS PERIOD    8
  ---------------------------------------------------------------------------

          1      2      3      4      5      6      7      8      9     10
         11     12     13     14     15     16     17     18     19     20
         21     22     23     24     25     26     27     28     29     30
 .........................................................................
   1  ****** ****** ****** ****** ****** ****** ****** ****** ****** ******
      ****** ****** ****** ****** ****** ****** ****** ****** ****** ******
      ****** ****** ****** ****** ****** ****** ****** ****** ****** ******
   2  ****** ****** ****** ****** ****** ****** ****** ****** ****** ******
      ****** ****** ****** ****** ****** ****** ****** ****** ****** ******
      ****** ****** ****** ****** ****** ****** ****** ****** ****** ******
   3  ****** ****** ****** ****** ****** ****** ****** ****** ****** ******
      ****** ****** ****** ****** ****** ****** ****** ****** ****** ******
      ****** ****** ****** ****** ****** ****** ****** ****** ****** ******
   4  ****** ****** ****** ****** ****** ****** ****** ****** ****** ******
      ****** ****** ****** ****** ****** ****** ****** ****** ****** ******
      ****** ****** ****** ****** ****** ****** ****** ****** ****** ******
   5  ****** ****** ****** ****** ****** ****** ****** ****** ****** ******
      ****** ****** ****** ****** ****** ****** ****** ****** ****** ******
      ****** ****** ****** ****** ****** ****** ****** ****** ****** ******
   6  ****** ****** ****** ****** ****** ****** ****** ****** ****** ******
      ****** ****** ****** ****** ****** ****** ****** ****** ****** ******
      ****** ****** ****** ****** ****** ****** ****** ****** ****** ******
   7  ****** ****** ****** ****** ****** ****** ****** ****** ****** ******
      ****** ****** ****** ****** ****** ****** ****** ****** ****** ******
      ****** ****** ****** ****** ****** ****** ****** ****** ****** ******
   8  ****** ****** ****** ****** ****** ****** ****** ****** ****** ******
      ****** ****** ****** ****** ****** ****** ****** ****** ****** ******
      ****** ****** ****** ****** ****** ****** ****** ****** ****** ******
   9  ****** ****** ****** ****** ****** ****** ****** ****** ****** ******
      ****** ****** ****** ****** ****** ****** ****** ****** ****** ******
      ****** ****** ****** ****** ****** ****** ****** ****** ****** ******
  10  ****** ****** ****** ****** ****** ****** ****** ****** ****** ******
      ****** ****** ****** ****** ****** ****** ****** ****** ****** ******
      ****** ****** ****** ****** ****** ****** ****** ****** ****** ******
  11  ****** ****** ****** ****** ****** ****** ****** ****** ****** ******
      ****** ****** ****** ****** ****** ****** ****** ****** ****** ******
      ****** ****** ****** ****** ****** ****** ****** ****** ****** ******
  12  ****** ****** ****** ****** ****** ****** ****** ****** ****** ******
      ****** ****** ****** ****** ****** ****** ****** ****** ****** ******
      ****** ****** ****** ****** ****** ****** ****** ****** ****** ******
  13  ****** ****** ****** ****** ****** ****** ****** ****** ****** ******
      ****** ****** ****** ****** ****** ****** ****** ****** ****** ******
      ****** ****** ****** ****** ****** ****** ****** ****** ****** ******
  14  ****** ****** ****** ****** ****** ****** ****** ****** ****** ******
      ****** ****** ****** ****** ****** ****** ****** ****** ****** ******
      ****** ****** ****** ****** ****** ****** ****** ****** ****** ******
  15  ****** ****** ****** ****** ****** ****** ****** ****** ****** ******
      ****** ****** ****** ****** ****** ****** ****** ****** ****** ******
      ****** ****** ****** ****** ****** ****** ****** ****** ****** ******
  16  ****** ****** ****** ****** ****** ****** ****** ****** ****** ******
      ****** ****** ****** ****** ****** ****** ****** ****** ****** ******
      ****** ****** ****** ****** ****** ****** ****** ****** ****** ******
  17  ****** ****** ****** ****** ****** ****** ****** ****** ****** ******
      ****** ****** ****** ****** ****** ****** ****** ****** ****** ******
      ****** ****** ****** ****** ****** ****** ****** ****** ****** ******
  18  ****** ****** ****** ****** ****** ****** ****** ****** ****** ******
      ****** ****** ****** ****** ****** ****** ****** ****** ****** ******
      ****** ****** ****** ****** ****** ****** ****** ****** ****** ******
  19  ****** ****** ****** ****** ****** ****** ****** ****** ****** ******
      ****** ****** ****** ****** ****** ****** ****** ****** ****** ******
      ****** ****** ****** ****** ****** ****** ****** ****** ****** ******
  20  ****** ****** ****** ****** ****** ****** ****** ****** ****** ******
      ****** ****** ****** ****** ****** ****** ****** ****** ****** ******
      ****** ****** ****** ****** ****** ****** ****** ****** ****** ******
  21  ****** ****** ****** ****** ****** ****** ****** ****** ****** ******
      ****** ****** ****** ****** ****** ****** ****** ****** ****** ******
      ****** ****** ****** ****** ****** ****** ****** ****** ****** ******
  22  ****** ****** ****** ****** ****** ****** ****** ****** ****** ******
      ****** ****** ****** ****** ****** ****** ****** ****** ****** ******
      ****** ****** ****** ****** ****** ****** ****** ****** ****** ******
  23  ****** ****** ****** ****** ****** ****** ****** ****** ****** ******
      ****** ****** ****** ****** ****** ****** ****** ****** ****** ******
      ****** ****** ****** ****** ****** ****** ****** ****** ****** ******
  24  ****** ****** ****** ****** ****** ****** ****** ****** ****** ******
      ****** ****** ****** ****** ****** ****** ****** ****** ****** ******
      ****** ****** ****** ****** ****** ****** ****** ****** ****** ******
  25  ****** ****** ****** ****** ****** ****** ****** ****** ****** ******
      ****** ****** ****** ****** ****** ****** ****** ****** ****** ******
      ****** ****** ****** ****** ****** ****** ****** ****** ****** ******

 HEAD WILL BE SAVED ON UNIT   51 AT END OF TIME STEP    1, STRESS PERIOD    8
1
  VOLUMETRIC BUDGET FOR ENTIRE MODEL AT END OF TIME STEP    1, STRESS PERIOD   8
  ------------------------------------------------------------------------------

     CUMULATIVE VOLUMES      L**3       RATES FOR THIS TIME STEP      L**3/T
     ------------------                 ------------------------

           IN:                                      IN:
           ---                                      ---
             STORAGE =    20919005.4810               STORAGE =         401.6002
       CONSTANT HEAD =   871296635.3281         CONSTANT HEAD =     1207791.9907
               WELLS =           0.0000                 WELLS =           0.0000
            RECHARGE =    17608800.0000              RECHARGE =       27600.0000
      STREAM LEAKAGE =           0.0000        STREAM LEAKAGE =           0.0000

            TOTAL IN =   909824440.8091              TOTAL IN =     1235793.5909

          OUT:                                     OUT:
          ----                                     ----
             STORAGE =      741493.5679               STORAGE =        1969.9922
       CONSTANT HEAD =           0.0000         CONSTANT HEAD =           0.0000
               WELLS =    59310091.0000                 WELLS =       80000.0000
            RECHARGE =           0.0000              RECHARGE =           0.0000
      STREAM LEAKAGE =   849772867.8249        STREAM LEAKAGE =     1153823.5807

           TOTAL OUT =   909824452.3928             TOTAL OUT =     1235793.5728

            IN - OUT =         -11.5837              IN - OUT =       1.8046E-02

 PERCENT DISCREPANCY =          -0.00     PERCENT DISCREPANCY =           0.00






         TIME SUMMARY AT END OF TIME STEP    1 IN STRESS PERIOD    8
                    SECONDS     MINUTES      HOURS       DAYS        YEARS
                    -----------------------------------------------------------
   TIME STEP LENGTH 7.86240E+06 1.31040E+05  2184.0      91.000     0.24914    
 STRESS PERIOD TIME 7.86240E+06 1.31040E+05  2184.0      91.000     0.24914    
         TOTAL TIME 6.30720E+07 1.05120E+06  17520.      730.00      1.9986    
1
1
                            STRESS PERIOD NO.    9, LENGTH =   92.00000    
                            -----------------------------------------------

                              NUMBER OF TIME STEPS =     1

                               MULTIPLIER FOR DELT =     1.500

                            INITIAL TIME STEP SIZE =   92.00000    

 WELL NO.  LAYER   ROW   COL   STRESS RATE         
 --------------------------------------------------
      1      1      6     12     -0.5000E+05
      2      1     20     28     -0.3000E+05

      2 WELLS

                 RECHARGE =  5.000000E-04

 REUSING STREAM SEGMENT DATA FROM LAST STRESS PERIOD
 
 SOLVING FOR HEAD 


     5 CALLS TO PCG ROUTINE FOR TIME STEP   1 IN STRESS PERIOD    9
    19 TOTAL ITERATIONS

 OUTPUT CONTROL FOR STRESS PERIOD    9   TIME STEP    1
    SAVE BUDGET
    SAVE HEAD FOR ALL LAYERS
    PRINT HEAD FOR ALL LAYERS
 UBDSV2 SAVING "STREAMFLOW OUT  " ON UNIT  50 AT TIME STEP  1, STRESS PERIOD   9



 STREAM LISTING     PERIOD      9   STEP        1

 LAYER ROW COL. STREAM  RCH.  FLOW INTO     FLOW TO   FLOW OUT OF   OVRLND.     DIRECT     STREAM       STREAM     STREAM     STREAM   STREAMBED  STREAMBED
                SEG.NO.  NO.  STRM. RCH.    AQUIFER    STRM. RCH.    RUNOFF     PRECIP       ET          HEAD       DEPTH      WIDTH   CONDCTNC.   GRADIENT

   1   13    1     1     1    1.0000E+05 -2.7002E+04   1.2700E+05  0.000E+00  0.000E+00  0.000E+00  4.84174E+01  1.561E-01  2.000E+01  2.000E+04 -1.350E+00
   1   13    2     1     2    1.2700E+05 -3.6452E+04   1.6345E+05  0.000E+00  0.000E+00  0.000E+00  4.79650E+01  1.809E-01  2.000E+01  2.000E+04 -1.823E+00
   1   14    3     1     3    1.6345E+05 -3.2119E+04   1.9557E+05  0.000E+00  0.000E+00  0.000E+00  4.75123E+01  2.055E-01  2.000E+01  2.000E+04 -1.606E+00
   1   15    4     1     4    1.9557E+05 -3.1517E+04   2.2709E+05  0.000E+00  0.000E+00  0.000E+00  4.70562E+01  2.266E-01  2.000E+01  2.000E+04 -1.576E+00
   1   16    5     1     5    2.2709E+05 -3.3304E+04   2.6039E+05  0.000E+00  0.000E+00  0.000E+00  4.65992E+01  2.469E-01  2.000E+01  2.000E+04 -1.665E+00
   1   16    6     1     6    2.6039E+05 -2.8982E+04   2.8937E+05  0.000E+00  0.000E+00  0.000E+00  4.61403E+01  2.653E-01  2.000E+01  2.000E+04 -1.449E+00
   1   16    7     1     7    2.8937E+05 -2.8734E+04   3.1811E+05  0.000E+00  0.000E+00  0.000E+00  4.56795E+01  2.817E-01  2.000E+01  2.000E+04 -1.437E+00
   1   16    8     1     8    3.1811E+05 -2.8866E+04   3.4698E+05  0.000E+00  0.000E+00  0.000E+00  4.52179E+01  2.975E-01  2.000E+01  2.000E+04 -1.443E+00
   1   16    9     1     9    3.4698E+05 -2.8921E+04   3.7590E+05  0.000E+00  0.000E+00  0.000E+00  4.47559E+01  3.127E-01  2.000E+01  2.000E+04 -1.446E+00
   1   16   10     1    10    3.7590E+05 -2.8958E+04   4.0485E+05  0.000E+00  0.000E+00  0.000E+00  4.42934E+01  3.275E-01  2.000E+01  2.000E+04 -1.448E+00
   1   16   11     1    11    4.0485E+05 -2.9614E+04   4.3447E+05  0.000E+00  0.000E+00  0.000E+00  4.38307E+01  3.420E-01  2.000E+01  2.000E+04 -1.481E+00
   1   16   12     1    12    4.3447E+05 -3.5200E+04   4.6967E+05  0.000E+00  0.000E+00  0.000E+00  4.33690E+01  3.576E-01  2.000E+01  2.000E+04 -1.760E+00
   1   15   13     1    13    4.6967E+05 -3.3466E+04   5.0313E+05  0.000E+00  0.000E+00  0.000E+00  4.29078E+01  3.737E-01  2.000E+01  2.000E+04 -1.673E+00
   1   14   14     1    14    5.0313E+05 -3.3663E+04   5.3680E+05  0.000E+00  0.000E+00  0.000E+00  4.24458E+01  3.890E-01  2.000E+01  2.000E+04 -1.683E+00
   1   13   15     1    15    5.3680E+05 -3.5525E+04   5.7232E+05  0.000E+00  0.000E+00  0.000E+00  4.19838E+01  4.043E-01  2.000E+01  2.000E+04 -1.776E+00
   1   12   16     1    16    5.7232E+05 -4.1195E+04   6.1352E+05  0.000E+00  0.000E+00  0.000E+00  4.15231E+01  4.208E-01  2.000E+01  2.000E+04 -2.060E+00
   1   12   17     1    17    6.1352E+05 -3.2625E+04   6.4614E+05  0.000E+00  0.000E+00  0.000E+00  4.10614E+01  4.364E-01  2.000E+01  2.000E+04 -1.631E+00
   1   12   18     1    18    6.4614E+05 -3.1351E+04   6.7749E+05  0.000E+00  0.000E+00  0.000E+00  4.05973E+01  4.495E-01  2.000E+01  2.000E+04 -1.568E+00
   1   12   19     1    19    6.7749E+05 -3.5542E+04   7.1303E+05  0.000E+00  0.000E+00  0.000E+00  4.01335E+01  4.630E-01  2.000E+01  2.000E+04 -1.777E+00
   1   13   20     1    20    7.1303E+05 -2.6263E+04   7.3930E+05  0.000E+00  0.000E+00  0.000E+00  3.96685E+01  4.753E-01  2.000E+01  2.000E+04 -1.313E+00
   1   14   21     1    21    7.3930E+05 -1.9346E+04   7.5864E+05  0.000E+00  0.000E+00  0.000E+00  3.92001E+01  4.842E-01  2.000E+01  2.000E+04 -9.673E-01
   1   14   22     1    22    7.5864E+05 -1.6301E+03   7.6027E+05  0.000E+00  0.000E+00  0.000E+00  3.87269E+01  4.882E-01  2.000E+01  2.000E+04 -8.150E-02
   1    9   30     2     1    5.0000E+04 -2.6383E+04   7.6383E+04  0.000E+00  0.000E+00  0.000E+00  4.02583E+01  1.333E-01  2.000E+01  2.000E+04 -1.319E+00
   1    9   29     2     2    7.6383E+04 -2.8844E+04   1.0523E+05  0.000E+00  0.000E+00  0.000E+00  4.00407E+01  1.657E-01  2.000E+01  2.000E+04 -1.442E+00
   1    9   28     2     3    1.0523E+05 -3.3110E+04   1.3834E+05  0.000E+00  0.000E+00  0.000E+00  3.98227E+01  1.977E-01  2.000E+01  2.000E+04 -1.655E+00
   1    9   27     2     4    1.3834E+05 -4.7141E+04   1.8548E+05  0.000E+00  0.000E+00  0.000E+00  3.96095E+01  2.345E-01  2.000E+01  2.000E+04 -2.357E+00
   1   10   26     2     5    1.8548E+05 -3.3061E+04   2.1854E+05  0.000E+00  0.000E+00  0.000E+00  3.93928E+01  2.678E-01  2.000E+01  2.000E+04 -1.653E+00
   1   11   25     2     6    2.1854E+05 -2.4690E+04   2.4323E+05  0.000E+00  0.000E+00  0.000E+00  3.91651E+01  2.901E-01  2.000E+01  2.000E+04 -1.235E+00
   1   12   24     2     7    2.4323E+05 -1.8137E+04   2.6137E+05  0.000E+00  0.000E+00  0.000E+00  3.89310E+01  3.060E-01  2.000E+01  2.000E+04 -9.068E-01
   1   13   23     2     8    2.6137E+05 -1.2846E+04   2.7421E+05  0.000E+00  0.000E+00  0.000E+00  3.86921E+01  3.171E-01  2.000E+01  2.000E+04 -6.423E-01
   1   14   22     2     9    2.7421E+05 -7.1834E+03   2.8140E+05  0.000E+00  0.000E+00  0.000E+00  3.84492E+01  3.242E-01  2.000E+01  2.000E+04 -3.592E-01
   1   14   22     3     1    1.0417E+06 -1.5219E+04   1.0569E+06  0.000E+00  0.000E+00  0.000E+00  3.80474E+01  4.919E-01  2.000E+01  2.000E+04 -7.610E-01
   1   15   23     3     2    1.0569E+06 -2.3134E+04   1.0800E+06  0.000E+00  0.000E+00  0.000E+00  3.71639E+01  4.972E-01  2.000E+01  2.000E+04 -1.157E+00
   1   15   24     3     3    1.0800E+06 -1.9151E+04   1.0992E+06  0.000E+00  0.000E+00  0.000E+00  3.62809E+01  5.031E-01  2.000E+01  2.000E+04 -9.575E-01
   1   15   25     3     4    1.0992E+06 -1.8670E+04   1.1178E+06  0.000E+00  0.000E+00  0.000E+00  3.53972E+01  5.083E-01  2.000E+01  2.000E+04 -9.335E-01
   1   15   26     3     5    1.1178E+06 -2.1324E+04   1.1392E+06  0.000E+00  0.000E+00  0.000E+00  3.45138E+01  5.138E-01  2.000E+01  2.000E+04 -1.066E+00
   1   16   27     3     6    1.1392E+06 -2.7582E+04   1.1667E+06  0.000E+00  0.000E+00  0.000E+00  3.36316E+01  5.205E-01  2.000E+01  2.000E+04 -1.379E+00
   1   17   28     3     7    1.1667E+06 -3.3087E+04   1.1998E+06  0.000E+00  0.000E+00  0.000E+00  3.27509E+01  5.286E-01  2.000E+01  2.000E+04 -1.654E+00
   1   18   29     3     8    1.1998E+06 -4.1967E+04   1.2418E+06  0.000E+00  0.000E+00  0.000E+00  3.18720E+01  5.386E-01  2.000E+01  2.000E+04 -2.098E+00
   1   18   30     3     9    1.2418E+06 -4.0045E+04   1.2818E+06  0.000E+00  0.000E+00  0.000E+00  3.09939E+01  5.494E-01  2.000E+01  2.000E+04 -2.002E+00



1
              HEAD IN LAYER   1 AT END OF TIME STEP   1 IN STRESS PERIOD    9
  ---------------------------------------------------------------------------

          1      2      3      4      5      6      7      8      9     10
         11     12     13     14     15     16     17     18     19     20
         21     22     23     24     25     26     27     28     29     30
 .........................................................................
   1  ****** ****** ****** ****** ****** ****** ****** ****** ****** ******
      ****** ****** ****** ****** ****** ****** ****** ****** ****** ******
      ****** ****** ****** ****** ****** ****** ****** ****** ****** ******
   2  ****** ****** ****** ****** ****** ****** ****** ****** ****** ******
      ****** ****** ****** ****** ****** ****** ****** ****** ****** ******
      ****** ****** ****** ****** ****** ****** ****** ****** ****** ******
   3  ****** ****** ****** ****** ****** ****** ****** ****** ****** ******
      ****** ****** ****** ****** ****** ****** ****** ****** ****** ******
      ****** ****** ****** ****** ****** ****** ****** ****** ****** ******
   4  ****** ****** ****** ****** ****** ****** ****** ****** ****** ******
      ****** ****** ****** ****** ****** ****** ****** ****** ****** ******
      ****** ****** ****** ****** ****** ****** ****** ****** ****** ******
   5  ****** ****** ****** ****** ****** ****** ****** ****** ****** ******
      ****** ****** ****** ****** ****** ****** ****** ****** ****** ******
      ****** ****** ****** ****** ****** ****** ****** ****** ****** ******
   6  ****** ****** ****** ****** ****** ****** ****** ****** ****** ******
      ****** ****** ****** ****** ****** ****** ****** ****** ****** ******
      ****** ****** ****** ****** ****** ****** ****** ****** ****** ******
   7  ****** ****** ****** ****** ****** ****** ****** ****** ****** ******
      ****** ****** ****** ****** ****** ****** ****** ****** ****** ******
      ****** ****** ****** ****** ****** ****** ****** ****** ****** ******
   8  ****** ****** ****** ****** ****** ****** ****** ****** ****** ******
      ****** ****** ****** ****** ****** ****** ****** ****** ****** ******
      ****** ****** ****** ****** ****** ****** ****** ****** ****** ******
   9  ****** ****** ****** ****** ****** ****** ****** ****** ****** ******
      ****** ****** ****** ****** ****** ****** ****** ****** ****** ******
      ****** ****** ****** ****** ****** ****** ****** ****** ****** ******
  10  ****** ****** ****** ****** ****** ****** ****** ****** ****** ******
      ****** ****** ****** ****** ****** ****** ****** ****** ****** ******
      ****** ****** ****** ****** ****** ****** ****** ****** ****** ******
  11  ****** ****** ****** ****** ****** ****** ****** ****** ****** ******
      ****** ****** ****** ****** ****** ****** ****** ****** ****** ******
      ****** ****** ****** ****** ****** ****** ****** ****** ****** ******
  12  ****** ****** ****** ****** ****** ****** ****** ****** ****** ******
      ****** ****** ****** ****** ****** ****** ****** ****** ****** ******
      ****** ****** ****** ****** ****** ****** ****** ****** ****** ******
  13  ****** ****** ****** ****** ****** ****** ****** ****** ****** ******
      ****** ****** ****** ****** ****** ****** ****** ****** ****** ******
      ****** ****** ****** ****** ****** ****** ****** ****** ****** ******
  14  ****** ****** ****** ****** ****** ****** ****** ****** ****** ******
      ****** ****** ****** ****** ****** ****** ****** ****** ****** ******
      ****** ****** ****** ****** ****** ****** ****** ****** ****** ******
  15  ****** ****** ****** ****** ****** ****** ****** ****** ****** ******
      ****** ****** ****** ****** ****** ****** ****** ****** ****** ******
      ****** ****** ****** ****** ****** ****** ****** ****** ****** ******
  16  ****** ****** ****** ****** ****** ****** ****** ****** ****** ******
      ****** ****** ****** ****** ****** ****** ****** ****** ****** ******
      ****** ****** ****** ****** ****** ****** ****** ****** ****** ******
  17  ****** ****** ****** ****** ****** ****** ****** ****** ****** ******
      ****** ****** ****** ****** ****** ****** ****** ****** ****** ******
      ****** ****** ****** ****** ****** ****** ****** ****** ****** ******
  18  ****** ****** ****** ****** ****** ****** ****** ****** ****** ******
      ****** ****** ****** ****** ****** ****** ****** ****** ****** ******
      ****** ****** ****** ****** ****** ****** ****** ****** ****** ******
  19  ****** ****** ****** ****** ****** ****** ****** ****** ****** ******
      ****** ****** ****** ****** ****** ****** ****** ****** ****** ******
      ****** ****** ****** ****** ****** ****** ****** ****** ****** ******
  20  ****** ****** ****** ****** ****** ****** ****** ****** ****** ******
      ****** ****** ****** ****** ****** ****** ****** ****** ****** ******
      ****** ****** ****** ****** ****** ****** ****** ****** ****** ******
  21  ****** ****** ****** ****** ****** ****** ****** ****** ****** ******
      ****** ****** ****** ****** ****** ****** ****** ****** ****** ******
      ****** ****** ****** ****** ****** ****** ****** ****** ****** ******
  22  ****** ****** ****** ****** ****** ****** ****** ****** ****** ******
      ****** ****** ****** ****** ****** ****** ****** ****** ****** ******
      ****** ****** ****** ****** ****** ****** ****** ****** ****** ******
  23  ****** ****** ****** ****** ****** ****** ****** ****** ****** ******
      ****** ****** ****** ****** ****** ****** ****** ****** ****** ******
      ****** ****** ****** ****** ****** ****** ****** ****** ****** ******
  24  ****** ****** ****** ****** ****** ****** ****** ****** ****** ******
      ****** ****** ****** ****** ****** ****** ****** ****** ****** ******
      ****** ****** ****** ****** ****** ****** ****** ****** ****** ******
  25  ****** ****** ****** ****** ****** ****** ****** ****** ****** ******
      ****** ****** ****** ****** ****** ****** ****** ****** ****** ******
      ****** ****** ****** ****** ****** ****** ****** ****** ****** ******

 HEAD WILL BE SAVED ON UNIT   51 AT END OF TIME STEP    1, STRESS PERIOD    9
1
  VOLUMETRIC BUDGET FOR ENTIRE MODEL AT END OF TIME STEP    1, STRESS PERIOD   9
  ------------------------------------------------------------------------------

     CUMULATIVE VOLUMES      L**3       RATES FOR THIS TIME STEP      L**3/T
     ------------------                 ------------------------

           IN:                                      IN:
           ---                                      ---
             STORAGE =    21054954.1356               STORAGE =        1477.7028
       CONSTANT HEAD =   981427715.8415         CONSTANT HEAD =     1197076.9621
               WELLS =           0.0000                 WELLS =           0.0000
            RECHARGE =    18878400.0000              RECHARGE =       13800.0000
      STREAM LEAKAGE =           0.0000        STREAM LEAKAGE =           0.0000

            TOTAL IN =  1021361069.9771              TOTAL IN =     1212354.6649

          OUT:                                     OUT:
          ----                                     ----
             STORAGE =      788137.4333               STORAGE =         506.9985
       CONSTANT HEAD =           0.0000         CONSTANT HEAD =           0.0000
               WELLS =    66670091.0000                 WELLS =       80000.0000
            RECHARGE =           0.0000              RECHARGE =           0.0000
      STREAM LEAKAGE =   953902860.0206        STREAM LEAKAGE =     1131847.7413

           TOTAL OUT =  1021361088.4540             TOTAL OUT =     1212354.7398

            IN - OUT =         -18.4769              IN - OUT =      -7.4926E-02

 PERCENT DISCREPANCY =          -0.00     PERCENT DISCREPANCY =          -0.00






         TIME SUMMARY AT END OF TIME STEP    1 IN STRESS PERIOD    9
                    SECONDS     MINUTES      HOURS       DAYS        YEARS
                    -----------------------------------------------------------
   TIME STEP LENGTH 7.94880E+06 1.32480E+05  2208.0      92.000     0.25188    
 STRESS PERIOD TIME 7.94880E+06 1.32480E+05  2208.0      92.000     0.25188    
         TOTAL TIME 7.10208E+07 1.18368E+06  19728.      822.00      2.2505    
1
1
                            STRESS PERIOD NO.   10, LENGTH =   91.00000    
                            -----------------------------------------------

                              NUMBER OF TIME STEPS =     1

                               MULTIPLIER FOR DELT =     1.500

                            INITIAL TIME STEP SIZE =   91.00000    

 WELL NO.  LAYER   ROW   COL   STRESS RATE         
 --------------------------------------------------
      1      1      6     12     -0.5000E+05
      2      1     20     28       0.000    
      3      1      2      2     -0.3500E+05

      3 WELLS

                 RECHARGE =  2.000000E-03

 REUSING STREAM SEGMENT DATA FROM LAST STRESS PERIOD
 
 SOLVING FOR HEAD 


     6 CALLS TO PCG ROUTINE FOR TIME STEP   1 IN STRESS PERIOD   10
    22 TOTAL ITERATIONS

 OUTPUT CONTROL FOR STRESS PERIOD   10   TIME STEP    1
    SAVE BUDGET
    SAVE HEAD FOR ALL LAYERS
    PRINT HEAD FOR ALL LAYERS
 UBDSV2 SAVING "STREAMFLOW OUT  " ON UNIT  50 AT TIME STEP  1, STRESS PERIOD  10



 STREAM LISTING     PERIOD     10   STEP        1

 LAYER ROW COL. STREAM  RCH.  FLOW INTO     FLOW TO   FLOW OUT OF   OVRLND.     DIRECT     STREAM       STREAM     STREAM     STREAM   STREAMBED  STREAMBED
                SEG.NO.  NO.  STRM. RCH.    AQUIFER    STRM. RCH.    RUNOFF     PRECIP       ET          HEAD       DEPTH      WIDTH   CONDCTNC.   GRADIENT

   1   13    1     1     1    1.0000E+05 -2.7303E+04   1.2730E+05  0.000E+00  0.000E+00  0.000E+00  4.84176E+01  1.562E-01  2.000E+01  2.000E+04 -1.365E+00
   1   13    2     1     2    1.2730E+05 -3.6811E+04   1.6411E+05  0.000E+00  0.000E+00  0.000E+00  4.79654E+01  1.813E-01  2.000E+01  2.000E+04 -1.841E+00
   1   14    3     1     3    1.6411E+05 -3.2630E+04   1.9674E+05  0.000E+00  0.000E+00  0.000E+00  4.75129E+01  2.061E-01  2.000E+01  2.000E+04 -1.631E+00
   1   15    4     1     4    1.9674E+05 -3.2096E+04   2.2884E+05  0.000E+00  0.000E+00  0.000E+00  4.70571E+01  2.276E-01  2.000E+01  2.000E+04 -1.605E+00
   1   16    5     1     5    2.2884E+05 -3.3889E+04   2.6273E+05  0.000E+00  0.000E+00  0.000E+00  4.66004E+01  2.481E-01  2.000E+01  2.000E+04 -1.694E+00
   1   16    6     1     6    2.6273E+05 -2.9481E+04   2.9221E+05  0.000E+00  0.000E+00  0.000E+00  4.61418E+01  2.668E-01  2.000E+01  2.000E+04 -1.474E+00
   1   16    7     1     7    2.9221E+05 -2.9230E+04   3.2144E+05  0.000E+00  0.000E+00  0.000E+00  4.56812E+01  2.834E-01  2.000E+01  2.000E+04 -1.462E+00
   1   16    8     1     8    3.2144E+05 -2.9371E+04   3.5081E+05  0.000E+00  0.000E+00  0.000E+00  4.52198E+01  2.994E-01  2.000E+01  2.000E+04 -1.469E+00
   1   16    9     1     9    3.5081E+05 -2.9436E+04   3.8025E+05  0.000E+00  0.000E+00  0.000E+00  4.47580E+01  3.148E-01  2.000E+01  2.000E+04 -1.472E+00
   1   16   10     1    10    3.8025E+05 -2.9485E+04   4.0973E+05  0.000E+00  0.000E+00  0.000E+00  4.42957E+01  3.298E-01  2.000E+01  2.000E+04 -1.474E+00
   1   16   11     1    11    4.0973E+05 -3.0168E+04   4.3990E+05  0.000E+00  0.000E+00  0.000E+00  4.38332E+01  3.445E-01  2.000E+01  2.000E+04 -1.508E+00
   1   16   12     1    12    4.3990E+05 -3.5881E+04   4.7578E+05  0.000E+00  0.000E+00  0.000E+00  4.33717E+01  3.604E-01  2.000E+01  2.000E+04 -1.794E+00
   1   15   13     1    13    4.7578E+05 -3.4201E+04   5.0998E+05  0.000E+00  0.000E+00  0.000E+00  4.29108E+01  3.767E-01  2.000E+01  2.000E+04 -1.710E+00
   1   14   14     1    14    5.0998E+05 -3.4418E+04   5.4440E+05  0.000E+00  0.000E+00  0.000E+00  4.24490E+01  3.922E-01  2.000E+01  2.000E+04 -1.721E+00
   1   13   15     1    15    5.4440E+05 -3.6269E+04   5.8067E+05  0.000E+00  0.000E+00  0.000E+00  4.19873E+01  4.078E-01  2.000E+01  2.000E+04 -1.813E+00
   1   12   16     1    16    5.8067E+05 -4.1898E+04   6.2257E+05  0.000E+00  0.000E+00  0.000E+00  4.15268E+01  4.245E-01  2.000E+01  2.000E+04 -2.095E+00
   1   12   17     1    17    6.2257E+05 -3.3220E+04   6.5579E+05  0.000E+00  0.000E+00  0.000E+00  4.10652E+01  4.402E-01  2.000E+01  2.000E+04 -1.661E+00
   1   12   18     1    18    6.5579E+05 -3.1935E+04   6.8772E+05  0.000E+00  0.000E+00  0.000E+00  4.06013E+01  4.536E-01  2.000E+01  2.000E+04 -1.597E+00
   1   12   19     1    19    6.8772E+05 -3.6186E+04   7.2391E+05  0.000E+00  0.000E+00  0.000E+00  4.01377E+01  4.672E-01  2.000E+01  2.000E+04 -1.809E+00
   1   13   20     1    20    7.2391E+05 -2.6928E+04   7.5084E+05  0.000E+00  0.000E+00  0.000E+00  3.96728E+01  4.797E-01  2.000E+01  2.000E+04 -1.346E+00
   1   14   21     1    21    7.5084E+05 -2.0022E+04   7.7086E+05  0.000E+00  0.000E+00  0.000E+00  3.92047E+01  4.888E-01  2.000E+01  2.000E+04 -1.001E+00
   1   14   22     1    22    7.7086E+05 -1.8943E+03   7.7275E+05  0.000E+00  0.000E+00  0.000E+00  3.87316E+01  4.930E-01  2.000E+01  2.000E+04 -9.472E-02
   1    9   30     2     1    5.0000E+04 -2.6877E+04   7.6877E+04  0.000E+00  0.000E+00  0.000E+00  4.02587E+01  1.337E-01  2.000E+01  2.000E+04 -1.344E+00
   1    9   29     2     2    7.6877E+04 -2.9335E+04   1.0621E+05  0.000E+00  0.000E+00  0.000E+00  4.00416E+01  1.666E-01  2.000E+01  2.000E+04 -1.467E+00
   1    9   28     2     3    1.0621E+05 -3.3609E+04   1.3982E+05  0.000E+00  0.000E+00  0.000E+00  3.98239E+01  1.989E-01  2.000E+01  2.000E+04 -1.680E+00
   1    9   27     2     4    1.3982E+05 -4.7735E+04   1.8756E+05  0.000E+00  0.000E+00  0.000E+00  3.96110E+01  2.360E-01  2.000E+01  2.000E+04 -2.387E+00
   1   10   26     2     5    1.8756E+05 -3.3698E+04   2.2125E+05  0.000E+00  0.000E+00  0.000E+00  3.93947E+01  2.697E-01  2.000E+01  2.000E+04 -1.685E+00
   1   11   25     2     6    2.2125E+05 -2.5315E+04   2.4657E+05  0.000E+00  0.000E+00  0.000E+00  3.91674E+01  2.924E-01  2.000E+01  2.000E+04 -1.266E+00
   1   12   24     2     7    2.4657E+05 -1.8706E+04   2.6528E+05  0.000E+00  0.000E+00  0.000E+00  3.89336E+01  3.086E-01  2.000E+01  2.000E+04 -9.353E-01
   1   13   23     2     8    2.6528E+05 -1.3328E+04   2.7860E+05  0.000E+00  0.000E+00  0.000E+00  3.86951E+01  3.201E-01  2.000E+01  2.000E+04 -6.664E-01
   1   14   22     2     9    2.7860E+05 -7.4793E+03   2.8608E+05  0.000E+00  0.000E+00  0.000E+00  3.84524E+01  3.274E-01  2.000E+01  2.000E+04 -3.740E-01
   1   14   22     3     1    1.0588E+06 -1.5482E+04   1.0743E+06  0.000E+00  0.000E+00  0.000E+00  3.80523E+01  4.967E-01  2.000E+01  2.000E+04 -7.741E-01
   1   15   23     3     2    1.0743E+06 -2.4066E+04   1.0984E+06  0.000E+00  0.000E+00  0.000E+00  3.71689E+01  5.022E-01  2.000E+01  2.000E+04 -1.203E+00
   1   15   24     3     3    1.0984E+06 -2.0032E+04   1.1184E+06  0.000E+00  0.000E+00  0.000E+00  3.62861E+01  5.083E-01  2.000E+01  2.000E+04 -1.002E+00
   1   15   25     3     4    1.1184E+06 -1.9626E+04   1.1380E+06  0.000E+00  0.000E+00  0.000E+00  3.54026E+01  5.137E-01  2.000E+01  2.000E+04 -9.813E-01
   1   15   26     3     5    1.1380E+06 -2.2430E+04   1.1605E+06  0.000E+00  0.000E+00  0.000E+00  3.45195E+01  5.195E-01  2.000E+01  2.000E+04 -1.122E+00
   1   16   27     3     6    1.1605E+06 -2.9665E+04   1.1901E+06  0.000E+00  0.000E+00  0.000E+00  3.36376E+01  5.265E-01  2.000E+01  2.000E+04 -1.483E+00
   1   17   28     3     7    1.1901E+06 -3.6712E+04   1.2268E+06  0.000E+00  0.000E+00  0.000E+00  3.27576E+01  5.354E-01  2.000E+01  2.000E+04 -1.836E+00
   1   18   29     3     8    1.2268E+06 -4.7645E+04   1.2745E+06  0.000E+00  0.000E+00  0.000E+00  3.18798E+01  5.465E-01  2.000E+01  2.000E+04 -2.382E+00
   1   18   30     3     9    1.2745E+06 -4.4019E+04   1.3185E+06  0.000E+00  0.000E+00  0.000E+00  3.10029E+01  5.584E-01  2.000E+01  2.000E+04 -2.201E+00



1
              HEAD IN LAYER   1 AT END OF TIME STEP   1 IN STRESS PERIOD   10
  ---------------------------------------------------------------------------

          1      2      3      4      5      6      7      8      9     10
         11     12     13     14     15     16     17     18     19     20
         21     22     23     24     25     26     27     28     29     30
 .........................................................................
   1  ****** ****** ****** ****** ****** ****** ****** ****** ****** ******
      ****** ****** ****** ****** ****** ****** ****** ****** ****** ******
      ****** ****** ****** ****** ****** ****** ****** ****** ****** ******
   2  ****** ****** ****** ****** ****** ****** ****** ****** ****** ******
      ****** ****** ****** ****** ****** ****** ****** ****** ****** ******
      ****** ****** ****** ****** ****** ****** ****** ****** ****** ******
   3  ****** ****** ****** ****** ****** ****** ****** ****** ****** ******
      ****** ****** ****** ****** ****** ****** ****** ****** ****** ******
      ****** ****** ****** ****** ****** ****** ****** ****** ****** ******
   4  ****** ****** ****** ****** ****** ****** ****** ****** ****** ******
      ****** ****** ****** ****** ****** ****** ****** ****** ****** ******
      ****** ****** ****** ****** ****** ****** ****** ****** ****** ******
   5  ****** ****** ****** ****** ****** ****** ****** ****** ****** ******
      ****** ****** ****** ****** ****** ****** ****** ****** ****** ******
      ****** ****** ****** ****** ****** ****** ****** ****** ****** ******
   6  ****** ****** ****** ****** ****** ****** ****** ****** ****** ******
      ****** ****** ****** ****** ****** ****** ****** ****** ****** ******
      ****** ****** ****** ****** ****** ****** ****** ****** ****** ******
   7  ****** ****** ****** ****** ****** ****** ****** ****** ****** ******
      ****** ****** ****** ****** ****** ****** ****** ****** ****** ******
      ****** ****** ****** ****** ****** ****** ****** ****** ****** ******
   8  ****** ****** ****** ****** ****** ****** ****** ****** ****** ******
      ****** ****** ****** ****** ****** ****** ****** ****** ****** ******
      ****** ****** ****** ****** ****** ****** ****** ****** ****** ******
   9  ****** ****** ****** ****** ****** ****** ****** ****** ****** ******
      ****** ****** ****** ****** ****** ****** ****** ****** ****** ******
      ****** ****** ****** ****** ****** ****** ****** ****** ****** ******
  10  ****** ****** ****** ****** ****** ****** ****** ****** ****** ******
      ****** ****** ****** ****** ****** ****** ****** ****** ****** ******
      ****** ****** ****** ****** ****** ****** ****** ****** ****** ******
  11  ****** ****** ****** ****** ****** ****** ****** ****** ****** ******
      ****** ****** ****** ****** ****** ****** ****** ****** ****** ******
      ****** ****** ****** ****** ****** ****** ****** ****** ****** ******
  12  ****** ****** ****** ****** ****** ****** ****** ****** ****** ******
      ****** ****** ****** ****** ****** ****** ****** ****** ****** ******
      ****** ****** ****** ****** ****** ****** ****** ****** ****** ******
  13  ****** ****** ****** ****** ****** ****** ****** ****** ****** ******
      ****** ****** ****** ****** ****** ****** ****** ****** ****** ******
      ****** ****** ****** ****** ****** ****** ****** ****** ****** ******
  14  ****** ****** ****** ****** ****** ****** ****** ****** ****** ******
      ****** ****** ****** ****** ****** ****** ****** ****** ****** ******
      ****** ****** ****** ****** ****** ****** ****** ****** ****** ******
  15  ****** ****** ****** ****** ****** ****** ****** ****** ****** ******
      ****** ****** ****** ****** ****** ****** ****** ****** ****** ******
      ****** ****** ****** ****** ****** ****** ****** ****** ****** ******
  16  ****** ****** ****** ****** ****** ****** ****** ****** ****** ******
      ****** ****** ****** ****** ****** ****** ****** ****** ****** ******
      ****** ****** ****** ****** ****** ****** ****** ****** ****** ******
  17  ****** ****** ****** ****** ****** ****** ****** ****** ****** ******
      ****** ****** ****** ****** ****** ****** ****** ****** ****** ******
      ****** ****** ****** ****** ****** ****** ****** ****** ****** ******
  18  ****** ****** ****** ****** ****** ****** ****** ****** ****** ******
      ****** ****** ****** ****** ****** ****** ****** ****** ****** ******
      ****** ****** ****** ****** ****** ****** ****** ****** ****** ******
  19  ****** ****** ****** ****** ****** ****** ****** ****** ****** ******
      ****** ****** ****** ****** ****** ****** ****** ****** ****** ******
      ****** ****** ****** ****** ****** ****** ****** ****** ****** ******
  20  ****** ****** ****** ****** ****** ****** ****** ****** ****** ******
      ****** ****** ****** ****** ****** ****** ****** ****** ****** ******
      ****** ****** ****** ****** ****** ****** ****** ****** ****** ******
  21  ****** ****** ****** ****** ****** ****** ****** ****** ****** ******
      ****** ****** ****** ****** ****** ****** ****** ****** ****** ******
      ****** ****** ****** ****** ****** ****** ****** ****** ****** ******
  22  ****** ****** ****** ****** ****** ****** ****** ****** ****** ******
      ****** ****** ****** ****** ****** ****** ****** ****** ****** ******
      ****** ****** ****** ****** ****** ****** ****** ****** ****** ******
  23  ****** ****** ****** ****** ****** ****** ****** ****** ****** ******
      ****** ****** ****** ****** ****** ****** ****** ****** ****** ******
      ****** ****** ****** ****** ****** ****** ****** ****** ****** ******
  24  ****** ****** ****** ****** ****** ****** ****** ****** ****** ******
      ****** ****** ****** ****** ****** ****** ****** ****** ****** ******
      ****** ****** ****** ****** ****** ****** ****** ****** ****** ******
  25  ****** ****** ****** ****** ****** ****** ****** ****** ****** ******
      ****** ****** ****** ****** ****** ****** ****** ****** ****** ******
      ****** ****** ****** ****** ****** ****** ****** ****** ****** ******

 HEAD WILL BE SAVED ON UNIT   51 AT END OF TIME STEP    1, STRESS PERIOD   10
1
  VOLUMETRIC BUDGET FOR ENTIRE MODEL AT END OF TIME STEP    1, STRESS PERIOD  10
  ------------------------------------------------------------------------------

     CUMULATIVE VOLUMES      L**3       RATES FOR THIS TIME STEP      L**3/T
     ------------------                 ------------------------

           IN:                                      IN:
           ---                                      ---
             STORAGE =    21091405.8466               STORAGE =         400.5683
       CONSTANT HEAD =  1090674545.3691         CONSTANT HEAD =     1200514.6102
               WELLS =           0.0000                 WELLS =           0.0000
            RECHARGE =    23901600.0000              RECHARGE =       55200.0000
      STREAM LEAKAGE =           0.0000        STREAM LEAKAGE =           0.0000

            TOTAL IN =  1135667551.2157              TOTAL IN =     1256115.1784

          OUT:                                     OUT:
          ----                                     ----
             STORAGE =     1024808.3064               STORAGE =        2600.7788
       CONSTANT HEAD =           0.0000         CONSTANT HEAD =           0.0000
               WELLS =    74405136.5000                 WELLS =       85000.5000
            RECHARGE =           0.0000              RECHARGE =           0.0000
      STREAM LEAKAGE =  1060237622.1707        STREAM LEAKAGE =     1168513.8698

           TOTAL OUT =  1135667566.9771             TOTAL OUT =     1256115.1486

            IN - OUT =         -15.7615              IN - OUT =       2.9840E-02

 PERCENT DISCREPANCY =          -0.00     PERCENT DISCREPANCY =           0.00






         TIME SUMMARY AT END OF TIME STEP    1 IN STRESS PERIOD   10
                    SECONDS     MINUTES      HOURS       DAYS        YEARS
                    -----------------------------------------------------------
   TIME STEP LENGTH 7.86240E+06 1.31040E+05  2184.0      91.000     0.24914    
 STRESS PERIOD TIME 7.86240E+06 1.31040E+05  2184.0      91.000     0.24914    
         TOTAL TIME 7.88832E+07 1.31472E+06  21912.      913.00      2.4997    
1
1
                            STRESS PERIOD NO.   11, LENGTH =   91.00000    
                            -----------------------------------------------

                              NUMBER OF TIME STEPS =     1

                               MULTIPLIER FOR DELT =     1.500

                            INITIAL TIME STEP SIZE =   91.00000    

 WELL NO.  LAYER   ROW   COL   STRESS RATE         
 --------------------------------------------------
      1      1      6     12     -0.5000E+05
      2      1     20     28     -0.3000E+05

      2 WELLS

                 RECHARGE =   0.00000    

 REUSING STREAM SEGMENT DATA FROM LAST STRESS PERIOD
 
 SOLVING FOR HEAD 


     6 CALLS TO PCG ROUTINE FOR TIME STEP   1 IN STRESS PERIOD   11
    22 TOTAL ITERATIONS

 OUTPUT CONTROL FOR STRESS PERIOD   11   TIME STEP    1
    SAVE BUDGET
    SAVE HEAD FOR ALL LAYERS
    PRINT HEAD FOR ALL LAYERS
 UBDSV2 SAVING "STREAMFLOW OUT  " ON UNIT  50 AT TIME STEP  1, STRESS PERIOD  11



 STREAM LISTING     PERIOD     11   STEP        1

 LAYER ROW COL. STREAM  RCH.  FLOW INTO     FLOW TO   FLOW OUT OF   OVRLND.     DIRECT     STREAM       STREAM     STREAM     STREAM   STREAMBED  STREAMBED
                SEG.NO.  NO.  STRM. RCH.    AQUIFER    STRM. RCH.    RUNOFF     PRECIP       ET          HEAD       DEPTH      WIDTH   CONDCTNC.   GRADIENT

   1   13    1     1     1    1.0000E+05 -2.6802E+04   1.2680E+05  0.000E+00  0.000E+00  0.000E+00  4.84174E+01  1.560E-01  2.000E+01  2.000E+04 -1.340E+00
   1   13    2     1     2    1.2680E+05 -3.6214E+04   1.6302E+05  0.000E+00  0.000E+00  0.000E+00  4.79648E+01  1.807E-01  2.000E+01  2.000E+04 -1.811E+00
   1   14    3     1     3    1.6302E+05 -3.1885E+04   1.9490E+05  0.000E+00  0.000E+00  0.000E+00  4.75119E+01  2.051E-01  2.000E+01  2.000E+04 -1.594E+00
   1   15    4     1     4    1.9490E+05 -3.1293E+04   2.2619E+05  0.000E+00  0.000E+00  0.000E+00  4.70557E+01  2.261E-01  2.000E+01  2.000E+04 -1.565E+00
   1   16    5     1     5    2.2619E+05 -3.3101E+04   2.5929E+05  0.000E+00  0.000E+00  0.000E+00  4.65985E+01  2.463E-01  2.000E+01  2.000E+04 -1.655E+00
   1   16    6     1     6    2.5929E+05 -2.8805E+04   2.8810E+05  0.000E+00  0.000E+00  0.000E+00  4.61397E+01  2.647E-01  2.000E+01  2.000E+04 -1.440E+00
   1   16    7     1     7    2.8810E+05 -2.8560E+04   3.1666E+05  0.000E+00  0.000E+00  0.000E+00  4.56787E+01  2.810E-01  2.000E+01  2.000E+04 -1.428E+00
   1   16    8     1     8    3.1666E+05 -2.8691E+04   3.4535E+05  0.000E+00  0.000E+00  0.000E+00  4.52171E+01  2.966E-01  2.000E+01  2.000E+04 -1.435E+00
   1   16    9     1     9    3.4535E+05 -2.8747E+04   3.7410E+05  0.000E+00  0.000E+00  0.000E+00  4.47550E+01  3.118E-01  2.000E+01  2.000E+04 -1.437E+00
   1   16   10     1    10    3.7410E+05 -2.8784E+04   4.0288E+05  0.000E+00  0.000E+00  0.000E+00  4.42925E+01  3.266E-01  2.000E+01  2.000E+04 -1.439E+00
   1   16   11     1    11    4.0288E+05 -2.9438E+04   4.3232E+05  0.000E+00  0.000E+00  0.000E+00  4.38297E+01  3.410E-01  2.000E+01  2.000E+04 -1.472E+00
   1   16   12     1    12    4.3232E+05 -3.4995E+04   4.6732E+05  0.000E+00  0.000E+00  0.000E+00  4.33679E+01  3.566E-01  2.000E+01  2.000E+04 -1.750E+00
   1   15   13     1    13    4.6732E+05 -3.3240E+04   5.0055E+05  0.000E+00  0.000E+00  0.000E+00  4.29067E+01  3.726E-01  2.000E+01  2.000E+04 -1.662E+00
   1   14   14     1    14    5.0055E+05 -3.3431E+04   5.3399E+05  0.000E+00  0.000E+00  0.000E+00  4.24446E+01  3.878E-01  2.000E+01  2.000E+04 -1.672E+00
   1   13   15     1    15    5.3399E+05 -3.5295E+04   5.6928E+05  0.000E+00  0.000E+00  0.000E+00  4.19826E+01  4.030E-01  2.000E+01  2.000E+04 -1.765E+00
   1   12   16     1    16    5.6928E+05 -4.0973E+04   6.1025E+05  0.000E+00  0.000E+00  0.000E+00  4.15218E+01  4.195E-01  2.000E+01  2.000E+04 -2.049E+00
   1   12   17     1    17    6.1025E+05 -3.2445E+04   6.4270E+05  0.000E+00  0.000E+00  0.000E+00  4.10600E+01  4.350E-01  2.000E+01  2.000E+04 -1.622E+00
   1   12   18     1    18    6.4270E+05 -3.1179E+04   6.7388E+05  0.000E+00  0.000E+00  0.000E+00  4.05958E+01  4.481E-01  2.000E+01  2.000E+04 -1.559E+00
   1   12   19     1    19    6.7388E+05 -3.5354E+04   7.0923E+05  0.000E+00  0.000E+00  0.000E+00  4.01320E+01  4.616E-01  2.000E+01  2.000E+04 -1.768E+00
   1   13   20     1    20    7.0923E+05 -2.6086E+04   7.3532E+05  0.000E+00  0.000E+00  0.000E+00  3.96669E+01  4.737E-01  2.000E+01  2.000E+04 -1.304E+00
   1   14   21     1    21    7.3532E+05 -1.9193E+04   7.5451E+05  0.000E+00  0.000E+00  0.000E+00  3.91985E+01  4.826E-01  2.000E+01  2.000E+04 -9.596E-01
   1   14   22     1    22    7.5451E+05 -1.5756E+03   7.5609E+05  0.000E+00  0.000E+00  0.000E+00  3.87253E+01  4.866E-01  2.000E+01  2.000E+04 -7.878E-02
   1    9   30     2     1    5.0000E+04 -2.6243E+04   7.6243E+04  0.000E+00  0.000E+00  0.000E+00  4.02583E+01  1.333E-01  2.000E+01  2.000E+04 -1.312E+00
   1    9   29     2     2    7.6243E+04 -2.8704E+04   1.0495E+05  0.000E+00  0.000E+00  0.000E+00  4.00405E+01  1.655E-01  2.000E+01  2.000E+04 -1.435E+00
   1    9   28     2     3    1.0495E+05 -3.2965E+04   1.3791E+05  0.000E+00  0.000E+00  0.000E+00  3.98223E+01  1.973E-01  2.000E+01  2.000E+04 -1.648E+00
   1    9   27     2     4    1.3791E+05 -4.6965E+04   1.8488E+05  0.000E+00  0.000E+00  0.000E+00  3.96090E+01  2.340E-01  2.000E+01  2.000E+04 -2.348E+00
   1   10   26     2     5    1.8488E+05 -3.2879E+04   2.1776E+05  0.000E+00  0.000E+00  0.000E+00  3.93922E+01  2.672E-01  2.000E+01  2.000E+04 -1.644E+00
   1   11   25     2     6    2.1776E+05 -2.4514E+04   2.4227E+05  0.000E+00  0.000E+00  0.000E+00  3.91645E+01  2.895E-01  2.000E+01  2.000E+04 -1.226E+00
   1   12   24     2     7    2.4227E+05 -1.7979E+04   2.6025E+05  0.000E+00  0.000E+00  0.000E+00  3.89302E+01  3.052E-01  2.000E+01  2.000E+04 -8.990E-01
   1   13   23     2     8    2.6025E+05 -1.2717E+04   2.7297E+05  0.000E+00  0.000E+00  0.000E+00  3.86913E+01  3.163E-01  2.000E+01  2.000E+04 -6.359E-01
   1   14   22     2     9    2.7297E+05 -7.1148E+03   2.8008E+05  0.000E+00  0.000E+00  0.000E+00  3.84483E+01  3.233E-01  2.000E+01  2.000E+04 -3.557E-01
   1   14   22     3     1    1.0362E+06 -1.5164E+04   1.0513E+06  0.000E+00  0.000E+00  0.000E+00  3.80459E+01  4.903E-01  2.000E+01  2.000E+04 -7.582E-01
   1   15   23     3     2    1.0513E+06 -2.2991E+04   1.0743E+06  0.000E+00  0.000E+00  0.000E+00  3.71623E+01  4.957E-01  2.000E+01  2.000E+04 -1.150E+00
   1   15   24     3     3    1.0743E+06 -1.9031E+04   1.0934E+06  0.000E+00  0.000E+00  0.000E+00  3.62793E+01  5.015E-01  2.000E+01  2.000E+04 -9.516E-01
   1   15   25     3     4    1.0934E+06 -1.8551E+04   1.1119E+06  0.000E+00  0.000E+00  0.000E+00  3.53956E+01  5.067E-01  2.000E+01  2.000E+04 -9.275E-01
   1   15   26     3     5    1.1119E+06 -2.1185E+04   1.1331E+06  0.000E+00  0.000E+00  0.000E+00  3.45122E+01  5.122E-01  2.000E+01  2.000E+04 -1.059E+00
   1   16   27     3     6    1.1331E+06 -2.7415E+04   1.1605E+06  0.000E+00  0.000E+00  0.000E+00  3.36299E+01  5.188E-01  2.000E+01  2.000E+04 -1.371E+00
   1   17   28     3     7    1.1605E+06 -3.2916E+04   1.1934E+06  0.000E+00  0.000E+00  0.000E+00  3.27492E+01  5.269E-01  2.000E+01  2.000E+04 -1.646E+00
   1   18   29     3     8    1.1934E+06 -4.1807E+04   1.2352E+06  0.000E+00  0.000E+00  0.000E+00  3.18702E+01  5.369E-01  2.000E+01  2.000E+04 -2.090E+00
   1   18   30     3     9    1.2352E+06 -3.9911E+04   1.2751E+06  0.000E+00  0.000E+00  0.000E+00  3.09921E+01  5.477E-01  2.000E+01  2.000E+04 -1.996E+00



1
              HEAD IN LAYER   1 AT END OF TIME STEP   1 IN STRESS PERIOD   11
  ---------------------------------------------------------------------------

          1      2      3      4      5      6      7      8      9     10
         11     12     13     14     15     16     17     18     19     20
         21     22     23     24     25     26     27     28     29     30
 .........................................................................
   1  ****** ****** ****** ****** ****** ****** ****** ****** ****** ******
      ****** ****** ****** ****** ****** ****** ****** ****** ****** ******
      ****** ****** ****** ****** ****** ****** ****** ****** ****** ******
   2  ****** ****** ****** ****** ****** ****** ****** ****** ****** ******
      ****** ****** ****** ****** ****** ****** ****** ****** ****** ******
      ****** ****** ****** ****** ****** ****** ****** ****** ****** ******
   3  ****** ****** ****** ****** ****** ****** ****** ****** ****** ******
      ****** ****** ****** ****** ****** ****** ****** ****** ****** ******
      ****** ****** ****** ****** ****** ****** ****** ****** ****** ******
   4  ****** ****** ****** ****** ****** ****** ****** ****** ****** ******
      ****** ****** ****** ****** ****** ****** ****** ****** ****** ******
      ****** ****** ****** ****** ****** ****** ****** ****** ****** ******
   5  ****** ****** ****** ****** ****** ****** ****** ****** ****** ******
      ****** ****** ****** ****** ****** ****** ****** ****** ****** ******
      ****** ****** ****** ****** ****** ****** ****** ****** ****** ******
   6  ****** ****** ****** ****** ****** ****** ****** ****** ****** ******
      ****** ****** ****** ****** ****** ****** ****** ****** ****** ******
      ****** ****** ****** ****** ****** ****** ****** ****** ****** ******
   7  ****** ****** ****** ****** ****** ****** ****** ****** ****** ******
      ****** ****** ****** ****** ****** ****** ****** ****** ****** ******
      ****** ****** ****** ****** ****** ****** ****** ****** ****** ******
   8  ****** ****** ****** ****** ****** ****** ****** ****** ****** ******
      ****** ****** ****** ****** ****** ****** ****** ****** ****** ******
      ****** ****** ****** ****** ****** ****** ****** ****** ****** ******
   9  ****** ****** ****** ****** ****** ****** ****** ****** ****** ******
      ****** ****** ****** ****** ****** ****** ****** ****** ****** ******
      ****** ****** ****** ****** ****** ****** ****** ****** ****** ******
  10  ****** ****** ****** ****** ****** ****** ****** ****** ****** ******
      ****** ****** ****** ****** ****** ****** ****** ****** ****** ******
      ****** ****** ****** ****** ****** ****** ****** ****** ****** ******
  11  ****** ****** ****** ****** ****** ****** ****** ****** ****** ******
      ****** ****** ****** ****** ****** ****** ****** ****** ****** ******
      ****** ****** ****** ****** ****** ****** ****** ****** ****** ******
  12  ****** ****** ****** ****** ****** ****** ****** ****** ****** ******
      ****** ****** ****** ****** ****** ****** ****** ****** ****** ******
      ****** ****** ****** ****** ****** ****** ****** ****** ****** ******
  13  ****** ****** ****** ****** ****** ****** ****** ****** ****** ******
      ****** ****** ****** ****** ****** ****** ****** ****** ****** ******
      ****** ****** ****** ****** ****** ****** ****** ****** ****** ******
  14  ****** ****** ****** ****** ****** ****** ****** ****** ****** ******
      ****** ****** ****** ****** ****** ****** ****** ****** ****** ******
      ****** ****** ****** ****** ****** ****** ****** ****** ****** ******
  15  ****** ****** ****** ****** ****** ****** ****** ****** ****** ******
      ****** ****** ****** ****** ****** ****** ****** ****** ****** ******
      ****** ****** ****** ****** ****** ****** ****** ****** ****** ******
  16  ****** ****** ****** ****** ****** ****** ****** ****** ****** ******
      ****** ****** ****** ****** ****** ****** ****** ****** ****** ******
      ****** ****** ****** ****** ****** ****** ****** ****** ****** ******
  17  ****** ****** ****** ****** ****** ****** ****** ****** ****** ******
      ****** ****** ****** ****** ****** ****** ****** ****** ****** ******
      ****** ****** ****** ****** ****** ****** ****** ****** ****** ******
  18  ****** ****** ****** ****** ****** ****** ****** ****** ****** ******
      ****** ****** ****** ****** ****** ****** ****** ****** ****** ******
      ****** ****** ****** ****** ****** ****** ****** ****** ****** ******
  19  ****** ****** ****** ****** ****** ****** ****** ****** ****** ******
      ****** ****** ****** ****** ****** ****** ****** ****** ****** ******
      ****** ****** ****** ****** ****** ****** ****** ****** ****** ******
  20  ****** ****** ****** ****** ****** ****** ****** ****** ****** ******
      ****** ****** ****** ****** ****** ****** ****** ****** ****** ******
      ****** ****** ****** ****** ****** ****** ****** ****** ****** ******
  21  ****** ****** ****** ****** ****** ****** ****** ****** ****** ******
      ****** ****** ****** ****** ****** ****** ****** ****** ****** ******
      ****** ****** ****** ****** ****** ****** ****** ****** ****** ******
  22  ****** ****** ****** ****** ****** ****** ****** ****** ****** ******
      ****** ****** ****** ****** ****** ****** ****** ****** ****** ******
      ****** ****** ****** ****** ****** ****** ****** ****** ****** ******
  23  ****** ****** ****** ****** ****** ****** ****** ****** ****** ******
      ****** ****** ****** ****** ****** ****** ****** ****** ****** ******
      ****** ****** ****** ****** ****** ****** ****** ****** ****** ******
  24  ****** ****** ****** ****** ****** ****** ****** ****** ****** ******
      ****** ****** ****** ****** ****** ****** ****** ****** ****** ******
      ****** ****** ****** ****** ****** ****** ****** ****** ****** ******
  25  ****** ****** ****** ****** ****** ****** ****** ****** ****** ******
      ****** ****** ****** ****** ****** ****** ****** ****** ****** ******
      ****** ****** ****** ****** ****** ****** ****** ****** ****** ******

 HEAD WILL BE SAVED ON UNIT   51 AT END OF TIME STEP    1, STRESS PERIOD   11
1
  VOLUMETRIC BUDGET FOR ENTIRE MODEL AT END OF TIME STEP    1, STRESS PERIOD  11
  ------------------------------------------------------------------------------

     CUMULATIVE VOLUMES      L**3       RATES FOR THIS TIME STEP      L**3/T
     ------------------                 ------------------------

           IN:                                      IN:
           ---                                      ---
             STORAGE =    21376652.4944               STORAGE =        3134.5785
       CONSTANT HEAD =  1200088533.6562         CONSTANT HEAD =     1202351.5196
               WELLS =           0.0000                 WELLS =           0.0000
            RECHARGE =    23901600.0000              RECHARGE =           0.0000
      STREAM LEAKAGE =           0.0000        STREAM LEAKAGE =           0.0000

            TOTAL IN =  1245366786.1506              TOTAL IN =     1205486.0982

          OUT:                                     OUT:
          ----                                     ----
             STORAGE =     1056416.8429               STORAGE =         347.3466
       CONSTANT HEAD =           0.0000         CONSTANT HEAD =           0.0000
               WELLS =    81685136.5000                 WELLS =       80000.0000
            RECHARGE =           0.0000              RECHARGE =           0.0000
      STREAM LEAKAGE =  1162625252.2607        STREAM LEAKAGE =     1125138.7922

           TOTAL OUT =  1245366805.6036             TOTAL OUT =     1205486.1388

            IN - OUT =         -19.4530              IN - OUT =      -4.0567E-02

 PERCENT DISCREPANCY =          -0.00     PERCENT DISCREPANCY =          -0.00






         TIME SUMMARY AT END OF TIME STEP    1 IN STRESS PERIOD   11
                    SECONDS     MINUTES      HOURS       DAYS        YEARS
                    -----------------------------------------------------------
   TIME STEP LENGTH 7.86240E+06 1.31040E+05  2184.0      91.000     0.24914    
 STRESS PERIOD TIME 7.86240E+06 1.31040E+05  2184.0      91.000     0.24914    
         TOTAL TIME 8.67456E+07 1.44576E+06  24096.      1004.0      2.7488    
1
1
                            STRESS PERIOD NO.   12, LENGTH =   91.00000    
                            -----------------------------------------------

                              NUMBER OF TIME STEPS =     1

                               MULTIPLIER FOR DELT =     1.500

                            INITIAL TIME STEP SIZE =   91.00000    

 WELL NO.  LAYER   ROW   COL   STRESS RATE         
 --------------------------------------------------
      1      1      6     12     -0.5000E+05
      2      1     20     28       0.000    
      3      1      2      2     -0.3000E+05

      3 WELLS

                 RECHARGE =  1.000000E-03

 REUSING STREAM SEGMENT DATA FROM LAST STRESS PERIOD
 
 SOLVING FOR HEAD 


     6 CALLS TO PCG ROUTINE FOR TIME STEP   1 IN STRESS PERIOD   12
    22 TOTAL ITERATIONS

 OUTPUT CONTROL FOR STRESS PERIOD   12   TIME STEP    1
    SAVE BUDGET
    SAVE HEAD FOR ALL LAYERS
    PRINT HEAD FOR ALL LAYERS
 UBDSV2 SAVING "STREAMFLOW OUT  " ON UNIT  50 AT TIME STEP  1, STRESS PERIOD  12



 STREAM LISTING     PERIOD     12   STEP        1

 LAYER ROW COL. STREAM  RCH.  FLOW INTO     FLOW TO   FLOW OUT OF   OVRLND.     DIRECT     STREAM       STREAM     STREAM     STREAM   STREAMBED  STREAMBED
                SEG.NO.  NO.  STRM. RCH.    AQUIFER    STRM. RCH.    RUNOFF     PRECIP       ET          HEAD       DEPTH      WIDTH   CONDCTNC.   GRADIENT

   1   13    1     1     1    1.0000E+05 -2.6904E+04   1.2690E+05  0.000E+00  0.000E+00  0.000E+00  4.84174E+01  1.560E-01  2.000E+01  2.000E+04 -1.345E+00
   1   13    2     1     2    1.2690E+05 -3.6333E+04   1.6324E+05  0.000E+00  0.000E+00  0.000E+00  4.79649E+01  1.808E-01  2.000E+01  2.000E+04 -1.817E+00
   1   14    3     1     3    1.6324E+05 -3.2140E+04   1.9538E+05  0.000E+00  0.000E+00  0.000E+00  4.75122E+01  2.053E-01  2.000E+01  2.000E+04 -1.607E+00
   1   15    4     1     4    1.9538E+05 -3.1613E+04   2.2699E+05  0.000E+00  0.000E+00  0.000E+00  4.70561E+01  2.265E-01  2.000E+01  2.000E+04 -1.581E+00
   1   16    5     1     5    2.2699E+05 -3.3445E+04   2.6043E+05  0.000E+00  0.000E+00  0.000E+00  4.65991E+01  2.469E-01  2.000E+01  2.000E+04 -1.672E+00
   1   16    6     1     6    2.6043E+05 -2.9096E+04   2.8953E+05  0.000E+00  0.000E+00  0.000E+00  4.61404E+01  2.654E-01  2.000E+01  2.000E+04 -1.455E+00
   1   16    7     1     7    2.8953E+05 -2.8849E+04   3.1838E+05  0.000E+00  0.000E+00  0.000E+00  4.56796E+01  2.818E-01  2.000E+01  2.000E+04 -1.442E+00
   1   16    8     1     8    3.1838E+05 -2.8987E+04   3.4737E+05  0.000E+00  0.000E+00  0.000E+00  4.52181E+01  2.976E-01  2.000E+01  2.000E+04 -1.449E+00
   1   16    9     1     9    3.4737E+05 -2.9052E+04   3.7642E+05  0.000E+00  0.000E+00  0.000E+00  4.47561E+01  3.129E-01  2.000E+01  2.000E+04 -1.453E+00
   1   16   10     1    10    3.7642E+05 -2.9101E+04   4.0552E+05  0.000E+00  0.000E+00  0.000E+00  4.42937E+01  3.278E-01  2.000E+01  2.000E+04 -1.455E+00
   1   16   11     1    11    4.0552E+05 -2.9776E+04   4.3530E+05  0.000E+00  0.000E+00  0.000E+00  4.38310E+01  3.424E-01  2.000E+01  2.000E+04 -1.489E+00
   1   16   12     1    12    4.3530E+05 -3.5422E+04   4.7072E+05  0.000E+00  0.000E+00  0.000E+00  4.33694E+01  3.581E-01  2.000E+01  2.000E+04 -1.771E+00
   1   15   13     1    13    4.7072E+05 -3.3696E+04   5.0441E+05  0.000E+00  0.000E+00  0.000E+00  4.29083E+01  3.742E-01  2.000E+01  2.000E+04 -1.685E+00
   1   14   14     1    14    5.0441E+05 -3.3897E+04   5.3831E+05  0.000E+00  0.000E+00  0.000E+00  4.24464E+01  3.896E-01  2.000E+01  2.000E+04 -1.695E+00
   1   13   15     1    15    5.3831E+05 -3.5751E+04   5.7406E+05  0.000E+00  0.000E+00  0.000E+00  4.19845E+01  4.050E-01  2.000E+01  2.000E+04 -1.788E+00
   1   12   16     1    16    5.7406E+05 -4.1397E+04   6.1546E+05  0.000E+00  0.000E+00  0.000E+00  4.15239E+01  4.216E-01  2.000E+01  2.000E+04 -2.070E+00
   1   12   17     1    17    6.1546E+05 -3.2815E+04   6.4827E+05  0.000E+00  0.000E+00  0.000E+00  4.10622E+01  4.372E-01  2.000E+01  2.000E+04 -1.641E+00
   1   12   18     1    18    6.4827E+05 -3.1548E+04   6.7982E+05  0.000E+00  0.000E+00  0.000E+00  4.05982E+01  4.504E-01  2.000E+01  2.000E+04 -1.577E+00
   1   12   19     1    19    6.7982E+05 -3.5763E+04   7.1559E+05  0.000E+00  0.000E+00  0.000E+00  4.01345E+01  4.640E-01  2.000E+01  2.000E+04 -1.788E+00
   1   13   20     1    20    7.1559E+05 -2.6533E+04   7.4212E+05  0.000E+00  0.000E+00  0.000E+00  3.96695E+01  4.763E-01  2.000E+01  2.000E+04 -1.327E+00
   1   14   21     1    21    7.4212E+05 -1.9681E+04   7.6180E+05  0.000E+00  0.000E+00  0.000E+00  3.92012E+01  4.853E-01  2.000E+01  2.000E+04 -9.841E-01
   1   14   22     1    22    7.6180E+05 -1.7745E+03   7.6357E+05  0.000E+00  0.000E+00  0.000E+00  3.87281E+01  4.895E-01  2.000E+01  2.000E+04 -8.872E-02
   1    9   30     2     1    5.0000E+04 -2.6573E+04   7.6573E+04  0.000E+00  0.000E+00  0.000E+00  4.02585E+01  1.335E-01  2.000E+01  2.000E+04 -1.329E+00
   1    9   29     2     2    7.6573E+04 -2.9031E+04   1.0560E+05  0.000E+00  0.000E+00  0.000E+00  4.00411E+01  1.661E-01  2.000E+01  2.000E+04 -1.452E+00
   1    9   28     2     3    1.0560E+05 -3.3294E+04   1.3890E+05  0.000E+00  0.000E+00  0.000E+00  3.98231E+01  1.981E-01  2.000E+01  2.000E+04 -1.665E+00
   1    9   27     2     4    1.3890E+05 -4.7348E+04   1.8625E+05  0.000E+00  0.000E+00  0.000E+00  3.96101E+01  2.351E-01  2.000E+01  2.000E+04 -2.367E+00
   1   10   26     2     5    1.8625E+05 -3.3298E+04   2.1954E+05  0.000E+00  0.000E+00  0.000E+00  3.93935E+01  2.685E-01  2.000E+01  2.000E+04 -1.665E+00
   1   11   25     2     6    2.1954E+05 -2.4929E+04   2.4447E+05  0.000E+00  0.000E+00  0.000E+00  3.91660E+01  2.910E-01  2.000E+01  2.000E+04 -1.246E+00
   1   12   24     2     7    2.4447E+05 -1.8361E+04   2.6284E+05  0.000E+00  0.000E+00  0.000E+00  3.89320E+01  3.070E-01  2.000E+01  2.000E+04 -9.181E-01
   1   13   23     2     8    2.6284E+05 -1.3048E+04   2.7588E+05  0.000E+00  0.000E+00  0.000E+00  3.86933E+01  3.183E-01  2.000E+01  2.000E+04 -6.524E-01
   1   14   22     2     9    2.7588E+05 -7.3283E+03   2.8321E+05  0.000E+00  0.000E+00  0.000E+00  3.84504E+01  3.254E-01  2.000E+01  2.000E+04 -3.664E-01
   1   14   22     3     1    1.0468E+06 -1.5359E+04   1.0621E+06  0.000E+00  0.000E+00  0.000E+00  3.80489E+01  4.933E-01  2.000E+01  2.000E+04 -7.680E-01
   1   15   23     3     2    1.0621E+06 -2.3749E+04   1.0859E+06  0.000E+00  0.000E+00  0.000E+00  3.71654E+01  4.988E-01  2.000E+01  2.000E+04 -1.187E+00
   1   15   24     3     3    1.0859E+06 -1.9771E+04   1.1057E+06  0.000E+00  0.000E+00  0.000E+00  3.62826E+01  5.048E-01  2.000E+01  2.000E+04 -9.886E-01
   1   15   25     3     4    1.1057E+06 -1.9367E+04   1.1250E+06  0.000E+00  0.000E+00  0.000E+00  3.53991E+01  5.102E-01  2.000E+01  2.000E+04 -9.683E-01
   1   15   26     3     5    1.1250E+06 -2.2130E+04   1.1472E+06  0.000E+00  0.000E+00  0.000E+00  3.45159E+01  5.159E-01  2.000E+01  2.000E+04 -1.106E+00
   1   16   27     3     6    1.1472E+06 -2.9301E+04   1.1765E+06  0.000E+00  0.000E+00  0.000E+00  3.36340E+01  5.229E-01  2.000E+01  2.000E+04 -1.465E+00
   1   17   28     3     7    1.1765E+06 -3.6339E+04   1.2128E+06  0.000E+00  0.000E+00  0.000E+00  3.27539E+01  5.317E-01  2.000E+01  2.000E+04 -1.817E+00
   1   18   29     3     8    1.2128E+06 -4.7295E+04   1.2601E+06  0.000E+00  0.000E+00  0.000E+00  3.18761E+01  5.428E-01  2.000E+01  2.000E+04 -2.365E+00
   1   18   30     3     9    1.2601E+06 -4.3727E+04   1.3038E+06  0.000E+00  0.000E+00  0.000E+00  3.09991E+01  5.547E-01  2.000E+01  2.000E+04 -2.186E+00



1
              HEAD IN LAYER   1 AT END OF TIME STEP   1 IN STRESS PERIOD   12
  ---------------------------------------------------------------------------

          1      2      3      4      5      6      7      8      9     10
         11     12     13     14     15     16     17     18     19     20
         21     22     23     24     25     26     27     28     29     30
 .........................................................................
   1  ****** ****** ****** ****** ****** ****** ****** ****** ****** ******
      ****** ****** ****** ****** ****** ****** ****** ****** ****** ******
      ****** ****** ****** ****** ****** ****** ****** ****** ****** ******
   2  ****** ****** ****** ****** ****** ****** ****** ****** ****** ******
      ****** ****** ****** ****** ****** ****** ****** ****** ****** ******
      ****** ****** ****** ****** ****** ****** ****** ****** ****** ******
   3  ****** ****** ****** ****** ****** ****** ****** ****** ****** ******
      ****** ****** ****** ****** ****** ****** ****** ****** ****** ******
      ****** ****** ****** ****** ****** ****** ****** ****** ****** ******
   4  ****** ****** ****** ****** ****** ****** ****** ****** ****** ******
      ****** ****** ****** ****** ****** ****** ****** ****** ****** ******
      ****** ****** ****** ****** ****** ****** ****** ****** ****** ******
   5  ****** ****** ****** ****** ****** ****** ****** ****** ****** ******
      ****** ****** ****** ****** ****** ****** ****** ****** ****** ******
      ****** ****** ****** ****** ****** ****** ****** ****** ****** ******
   6  ****** ****** ****** ****** ****** ****** ****** ****** ****** ******
      ****** ****** ****** ****** ****** ****** ****** ****** ****** ******
      ****** ****** ****** ****** ****** ****** ****** ****** ****** ******
   7  ****** ****** ****** ****** ****** ****** ****** ****** ****** ******
      ****** ****** ****** ****** ****** ****** ****** ****** ****** ******
      ****** ****** ****** ****** ****** ****** ****** ****** ****** ******
   8  ****** ****** ****** ****** ****** ****** ****** ****** ****** ******
      ****** ****** ****** ****** ****** ****** ****** ****** ****** ******
      ****** ****** ****** ****** ****** ****** ****** ****** ****** ******
   9  ****** ****** ****** ****** ****** ****** ****** ****** ****** ******
      ****** ****** ****** ****** ****** ****** ****** ****** ****** ******
      ****** ****** ****** ****** ****** ****** ****** ****** ****** ******
  10  ****** ****** ****** ****** ****** ****** ****** ****** ****** ******
      ****** ****** ****** ****** ****** ****** ****** ****** ****** ******
      ****** ****** ****** ****** ****** ****** ****** ****** ****** ******
  11  ****** ****** ****** ****** ****** ****** ****** ****** ****** ******
      ****** ****** ****** ****** ****** ****** ****** ****** ****** ******
      ****** ****** ****** ****** ****** ****** ****** ****** ****** ******
  12  ****** ****** ****** ****** ****** ****** ****** ****** ****** ******
      ****** ****** ****** ****** ****** ****** ****** ****** ****** ******
      ****** ****** ****** ****** ****** ****** ****** ****** ****** ******
  13  ****** ****** ****** ****** ****** ****** ****** ****** ****** ******
      ****** ****** ****** ****** ****** ****** ****** ****** ****** ******
      ****** ****** ****** ****** ****** ****** ****** ****** ****** ******
  14  ****** ****** ****** ****** ****** ****** ****** ****** ****** ******
      ****** ****** ****** ****** ****** ****** ****** ****** ****** ******
      ****** ****** ****** ****** ****** ****** ****** ****** ****** ******
  15  ****** ****** ****** ****** ****** ****** ****** ****** ****** ******
      ****** ****** ****** ****** ****** ****** ****** ****** ****** ******
      ****** ****** ****** ****** ****** ****** ****** ****** ****** ******
  16  ****** ****** ****** ****** ****** ****** ****** ****** ****** ******
      ****** ****** ****** ****** ****** ****** ****** ****** ****** ******
      ****** ****** ****** ****** ****** ****** ****** ****** ****** ******
  17  ****** ****** ****** ****** ****** ****** ****** ****** ****** ******
      ****** ****** ****** ****** ****** ****** ****** ****** ****** ******
      ****** ****** ****** ****** ****** ****** ****** ****** ****** ******
  18  ****** ****** ****** ****** ****** ****** ****** ****** ****** ******
      ****** ****** ****** ****** ****** ****** ****** ****** ****** ******
      ****** ****** ****** ****** ****** ****** ****** ****** ****** ******
  19  ****** ****** ****** ****** ****** ****** ****** ****** ****** ******
      ****** ****** ****** ****** ****** ****** ****** ****** ****** ******
      ****** ****** ****** ****** ****** ****** ****** ****** ****** ******
  20  ****** ****** ****** ****** ****** ****** ****** ****** ****** ******
      ****** ****** ****** ****** ****** ****** ****** ****** ****** ******
      ****** ****** ****** ****** ****** ****** ****** ****** ****** ******
  21  ****** ****** ****** ****** ****** ****** ****** ****** ****** ******
      ****** ****** ****** ****** ****** ****** ****** ****** ****** ******
      ****** ****** ****** ****** ****** ****** ****** ****** ****** ******
  22  ****** ****** ****** ****** ****** ****** ****** ****** ****** ******
      ****** ****** ****** ****** ****** ****** ****** ****** ****** ******
      ****** ****** ****** ****** ****** ****** ****** ****** ****** ******
  23  ****** ****** ****** ****** ****** ****** ****** ****** ****** ******
      ****** ****** ****** ****** ****** ****** ****** ****** ****** ******
      ****** ****** ****** ****** ****** ****** ****** ****** ****** ******
  24  ****** ****** ****** ****** ****** ****** ****** ****** ****** ******
      ****** ****** ****** ****** ****** ****** ****** ****** ****** ******
      ****** ****** ****** ****** ****** ****** ****** ****** ****** ******
  25  ****** ****** ****** ****** ****** ****** ****** ****** ****** ******
      ****** ****** ****** ****** ****** ****** ****** ****** ****** ******
      ****** ****** ****** ****** ****** ****** ****** ****** ****** ******

 HEAD WILL BE SAVED ON UNIT   51 AT END OF TIME STEP    1, STRESS PERIOD   12
1
  VOLUMETRIC BUDGET FOR ENTIRE MODEL AT END OF TIME STEP    1, STRESS PERIOD  12
  ------------------------------------------------------------------------------

     CUMULATIVE VOLUMES      L**3       RATES FOR THIS TIME STEP      L**3/T
     ------------------                 ------------------------

           IN:                                      IN:
           ---                                      ---
             STORAGE =    21413198.0915               STORAGE =         401.6000
       CONSTANT HEAD =  1309997604.8413         CONSTANT HEAD =     1207791.9910
               WELLS =           0.0000                 WELLS =           0.0000
            RECHARGE =    26413200.0000              RECHARGE =       27600.0000
      STREAM LEAKAGE =           0.0000        STREAM LEAKAGE =           0.0000

            TOTAL IN =  1357824002.9328              TOTAL IN =     1235793.5910

          OUT:                                     OUT:
          ----                                     ----
             STORAGE =     1235686.1736               STORAGE =        1969.9926
       CONSTANT HEAD =           0.0000         CONSTANT HEAD =           0.0000
               WELLS =    88965136.5000                 WELLS =       80000.0000
            RECHARGE =           0.0000              RECHARGE =           0.0000
      STREAM LEAKAGE =  1267623198.0701        STREAM LEAKAGE =     1153823.5803

           TOTAL OUT =  1357824020.7436             TOTAL OUT =     1235793.5730

            IN - OUT =         -17.8108              IN - OUT =       1.8046E-02

 PERCENT DISCREPANCY =          -0.00     PERCENT DISCREPANCY =           0.00






         TIME SUMMARY AT END OF TIME STEP    1 IN STRESS PERIOD   12
                    SECONDS     MINUTES      HOURS       DAYS        YEARS
                    -----------------------------------------------------------
   TIME STEP LENGTH 7.86240E+06 1.31040E+05  2184.0      91.000     0.24914    
 STRESS PERIOD TIME 7.86240E+06 1.31040E+05  2184.0      91.000     0.24914    
         TOTAL TIME 9.46080E+07 1.57680E+06  26280.      1095.0      2.9979    
1

 Run end date and time (yyyy/mm/dd hh:mm:ss): 2018/09/30 21:00:16
 Elapsed run time:  0.082 Seconds

