                                  MODFLOW-2005     
      U.S. GEOLOGICAL SURVEY MODULAR FINITE-DIFFERENCE GROUND-WATER FLOW MODEL
                            VERSION 1.11.00 8/8/2013

 LIST FILE: supply2.lst
                         UNIT   10

 OPENING ..\data\supply.dis
 FILE TYPE:DIS   UNIT   11   STATUS:OLD    
 FORMAT:FORMATTED              ACCESS:SEQUENTIAL          

 OPENING ..\data\supply.ba6
 FILE TYPE:BAS6   UNIT   12   STATUS:OLD    
 FORMAT:FORMATTED              ACCESS:SEQUENTIAL          

 OPENING ..\data\supply_het.bc6
 FILE TYPE:BCF6   UNIT   13   STATUS:OLD    
 FORMAT:FORMATTED              ACCESS:SEQUENTIAL          

 OPENING ..\data\supply.rch
 FILE TYPE:RCH   UNIT   15   STATUS:OLD    
 FORMAT:FORMATTED              ACCESS:SEQUENTIAL          

 OPENING ..\data\supply2.sfr
 FILE TYPE:SFR   UNIT   16   STATUS:OLD    
 FORMAT:FORMATTED              ACCESS:SEQUENTIAL          

 OPENING ..\data\supply.oc
 FILE TYPE:OC   UNIT   17   STATUS:OLD    
 FORMAT:FORMATTED              ACCESS:SEQUENTIAL          

 OPENING ..\data\supply.pcg
 FILE TYPE:PCG   UNIT   18   STATUS:OLD    
 FORMAT:FORMATTED              ACCESS:SEQUENTIAL          

 OPENING supply2.wel
 FILE TYPE:WEL   UNIT   19   STATUS:OLD    
 FORMAT:FORMATTED              ACCESS:SEQUENTIAL          

 OPENING supply2sf.cbc
 FILE TYPE:DATA(BINARY)   UNIT   50   STATUS:UNKNOWN
 FORMAT:BINARY                 ACCESS:SEQUENTIAL          

 OPENING supply2hd.bhd
 FILE TYPE:DATA(BINARY)   UNIT   51   STATUS:UNKNOWN
 FORMAT:BINARY                 ACCESS:SEQUENTIAL          

 BAS -- BASIC PACKAGE, VERSION 7, 5/2/2005 INPUT READ FROM UNIT   12
 
 MODFLOW was compiled using uniform precision
 Precision of REAL and DOUBLE PRECISION variables:          15

 DISCRETIZATION INPUT DATA READ FROM UNIT   11
    1 LAYERS        25 ROWS        30 COLUMNS
   12 STRESS PERIOD(S) IN SIMULATION
 MODEL TIME UNIT IS DAYS
 MODEL LENGTH UNIT IS UNDEFINED
  Confining bed flag for each layer:
   0

                     DELR =   200.000    

                     DELC =   200.000    

 TOP ELEVATION OF LAYER 1 =  100.0000    

   MODEL LAYER BOTTOM EL. =   0.00000     FOR LAYER   1


 STRESS PERIOD     LENGTH       TIME STEPS     MULTIPLIER FOR DELT    SS FLAG
 ----------------------------------------------------------------------------
        1         92.00000          1                    1.500         TR
        2         91.00000          1                    1.500         TR
        3         91.00000          1                    1.500         TR
        4         91.00000          1                    1.500         TR
        5         92.00000          1                    1.500         TR
        6         91.00000          1                    1.500         TR
        7         91.00000          1                    1.500         TR
        8         91.00000          1                    1.500         TR
        9         92.00000          1                    1.500         TR
       10         91.00000          1                    1.500         TR
       11         91.00000          1                    1.500         TR
       12         91.00000          1                    1.500         TR

 TRANSIENT SIMULATION



 
 #MODOFC transient water supply sample problem                                   
 #                                                                               
 THE FREE FORMAT OPTION HAS BEEN SELECTED



                     BOUNDARY ARRAY FOR LAYER   1
 READING ON UNIT   12 WITH FORMAT: (20I4)              

 AQUIFER HEAD WILL BE SET TO   0.0000     AT ALL NO-FLOW NODES (IBOUND=0).



                       INITIAL HEAD FOR LAYER   1
 READING ON UNIT   12 WITH FORMAT: (10F13.0)           

 OUTPUT CONTROL IS SPECIFIED ONLY AT TIME STEPS FOR WHICH OUTPUT IS DESIRED
 COMPACT CELL-BY-CELL BUDGET FILES WILL BE WRITTEN
 HEAD PRINT FORMAT CODE IS  18    DRAWDOWN PRINT FORMAT CODE IS   0
 HEADS WILL BE SAVED ON UNIT   51    DRAWDOWNS WILL BE SAVED ON UNIT    0

 BCF -- BLOCK-CENTERED FLOW PACKAGE, VERSION 7, 5/2/2005
         INPUT READ FROM UNIT 13
 TRANSIENT SIMULATION
 HEAD AT CELLS THAT CONVERT TO DRY=   0.0000    
 WETTING CAPABILITY IS NOT ACTIVE
      LAYER  LAYER-TYPE CODE     INTERBLOCK T
      --------------------------------------------
         1            0          0 -- HARMONIC    

 COLUMN TO ROW ANISOTROPY =  1.000000    

     PRIMARY STORAGE COEF =  5.000000E-02 FOR LAYER   1



               TRANSMIS. ALONG ROWS FOR LAYER   1
 READING ON UNIT   13 WITH FORMAT: (FREE)              

 WEL -- WELL PACKAGE, VERSION 7, 5/2/2005 INPUT READ FROM UNIT   19
 # Well package input file written by MMProc
 No named parameters
 MAXIMUM OF      4 ACTIVE WELLS AT ONE TIME


     0 Well parameters

 RCH -- RECHARGE PACKAGE, VERSION 7, 5/2/2005 INPUT READ FROM UNIT   15
 No named parameters
 OPTION 1 -- RECHARGE TO TOP LAYER


     0 Recharge parameters

 SFR7 -- STREAMFLOW ROUTING PACKAGE, VERSION 1.0.7, 2013-01-15
         INPUT READ FROM UNIT  16
 #  Supply2 test problem for GWM-VI
 #  The eighth entry in the first data line is ISTCB2 -
 #    Setting this to a negative number indicates that
 #    streamflows out of the reach will be saved to a
 #    binary file.  The absolute value of ISTCB2 is the
 #    unit to which unformatted flows will be written.
 #
 No named parameters
 Segment information will not be 
 read by reach
 No named parameters
 No specifed inflow files


 NUMBER OF STREAM REACHES IS   40

 NUMBER OF STREAM SEGMENTS IS    3

 NUMBER OF STREAM PARAMETERS IS    0

 NUMBER OF STREAM SEGMENTS DEFINED USING PARAMETERS IS              0

 MAXIMUM ERROR FOR STREAM LEAKAGE RATES IS  1.00E-04

 CONSTANT FOR MANNINGS EQUATION IS  1.2839E+05





   STREAM NETWORK DESCRIPTION: 

   LAYER    ROW    COL   SEGMENT   REACH     LENGTH
                          NUMBER   NUMBER    IN CELL        
   --------------------------------------------------
      1     13      1       1        1    2.0000E+02
      1     13      2       1        2    2.0000E+02
      1     14      3       1        3    2.0000E+02
      1     15      4       1        4    2.0000E+02
      1     16      5       1        5    2.0000E+02
      1     16      6       1        6    2.0000E+02
      1     16      7       1        7    2.0000E+02
      1     16      8       1        8    2.0000E+02
      1     16      9       1        9    2.0000E+02
      1     16     10       1       10    2.0000E+02
      1     16     11       1       11    2.0000E+02
      1     16     12       1       12    2.0000E+02
      1     15     13       1       13    2.0000E+02
      1     14     14       1       14    2.0000E+02
      1     13     15       1       15    2.0000E+02
      1     12     16       1       16    2.0000E+02
      1     12     17       1       17    2.0000E+02
      1     12     18       1       18    2.0000E+02
      1     12     19       1       19    2.0000E+02
      1     13     20       1       20    2.0000E+02
      1     14     21       1       21    2.0000E+02
      1     14     22       1       22    2.0000E+02
      1      9     30       2        1    2.0000E+02
      1      9     29       2        2    2.0000E+02
      1      9     28       2        3    2.0000E+02
      1      9     27       2        4    2.0000E+02
      1     10     26       2        5    2.0000E+02
      1     11     25       2        6    2.0000E+02
      1     12     24       2        7    2.0000E+02
      1     13     23       2        8    2.0000E+02
      1     14     22       2        9    2.0000E+02
      1     14     22       3        1    2.0000E+02
      1     15     23       3        2    2.0000E+02
      1     15     24       3        3    2.0000E+02
      1     15     25       3        4    2.0000E+02
      1     15     26       3        5    2.0000E+02
      1     16     27       3        6    2.0000E+02
      1     17     28       3        7    2.0000E+02
      1     18     29       3        8    2.0000E+02
      1     18     30       3        9    2.0000E+02




 PCG -- CONJUGATE-GRADIENT SOLUTION PACKAGE, VERSION 7, 5/2/2005
 MAXIMUM OF    500 CALLS OF SOLUTION ROUTINE
 MAXIMUM OF      5 INTERNAL ITERATIONS PER CALL TO SOLUTION ROUTINE
 MATRIX PRECONDITIONING TYPE :    1



                                    SOLUTION BY THE CONJUGATE-GRADIENT METHOD
                                   -------------------------------------------
                    MAXIMUM NUMBER OF CALLS TO PCG ROUTINE =      500
                        MAXIMUM ITERATIONS PER CALL TO PCG =        5
                               MATRIX PRECONDITIONING TYPE =        1
        RELAXATION FACTOR (ONLY USED WITH PRECOND. TYPE 1) =    0.10000E+01
 PARAMETER OF POLYNOMIAL PRECOND. = 2 (2) OR IS CALCULATED :        0
                         HEAD CHANGE CRITERION FOR CLOSURE =    0.10000E-05
                     RESIDUAL CHANGE CRITERION FOR CLOSURE =    0.10000E+01
            PCG HEAD AND RESIDUAL CHANGE PRINTOUT INTERVAL =        1
     PRINTING FROM SOLVER IS LIMITED(1) OR SUPPRESSED (>1) =        1
                            STEADY-STATE DAMPING PARAMETER =    0.10000E+01
                               TRANSIENT DAMPING PARAMETER =    0.10000E+01
1
                            STRESS PERIOD NO.    1, LENGTH =   92.00000    
                            -----------------------------------------------

                              NUMBER OF TIME STEPS =     1

                               MULTIPLIER FOR DELT =     1.500

                            INITIAL TIME STEP SIZE =   92.00000    

 WELL NO.  LAYER   ROW   COL   STRESS RATE         
 --------------------------------------------------
      1      1     11     21     -0.1135E+05
      2      1     18     20      -9351.    
      3      1     16     28     -0.1048E+05
      4      1     10     28     -0.1294E+05

      4 WELLS

                 RECHARGE =  5.000000E-04



 CLASSIFICATION & COUNT OF STREAM SEGMENTS BASED ON SOURCE OF INFLOW:

                HEADWATER     DIVERSION     RECEIVES TRIBUTARY FLOW
                ---------     ---------     -----------------------
                     2              0               1



                    INPUT DATA FOR EACH STREAM SEGMENT
 ---------------------------------------------------------------------------------------------

 SEGMENT    SEG.     INFLOW   OVERLAND   STREAM    STREAM   ICALC  OUTFLOW  DIVERSION PRIORITY
    NO.    LENGTH     RATE     RUNOFF      ET       PPT.    METH.  TO SEG.  FROM SEG.    NO.

      1  4.400E+03 1.000E+05 0.000E+00 0.000E+00 0.000E+00    1        3        0        0
      2  1.800E+03 5.000E+04 0.000E+00 0.000E+00 0.000E+00    1        3        0        0
      3  1.800E+03 0.000E+00 0.000E+00 0.000E+00 0.000E+00    1        0        0        0


         STREAMBED PROPERTIES AND STREAM DIMENSIONS

 SEGMENT     BED HYD. COND.      BED THICKNESS     ELEV.-TOP OF BED     WIDTH OF STREAM     DEPTH OF STREAM    STREAM ROUGHNESS
    No.     UPPER     LOWER     UPPER     LOWER     UPPER     LOWER     UPPER     LOWER     UPPER     LOWER   CHANNEL      BANK

     1  5.000E+00 5.000E+00 1.000E+00 1.000E+00 4.850E+01 3.800E+01 2.000E+01 2.000E+01                     5.000E-02
     2  5.000E+00 5.000E+00 1.000E+00 1.000E+00 4.025E+01 3.800E+01 2.000E+01 2.000E+01                     5.000E-02
     3  5.000E+00 5.000E+00 1.000E+00 1.000E+00 3.800E+01 3.000E+01 2.000E+01 2.000E+01                     5.000E-02



 
 SOLVING FOR HEAD 


     9 CALLS TO PCG ROUTINE FOR TIME STEP   1 IN STRESS PERIOD    1
    36 TOTAL ITERATIONS

 OUTPUT CONTROL FOR STRESS PERIOD    1   TIME STEP    1
    SAVE BUDGET
    SAVE HEAD FOR ALL LAYERS
    PRINT HEAD FOR ALL LAYERS
 UBDSV2 SAVING "STREAMFLOW OUT  " ON UNIT  50 AT TIME STEP  1, STRESS PERIOD   1



 STREAM LISTING     PERIOD      1   STEP        1

 LAYER ROW COL. STREAM  RCH.  FLOW INTO     FLOW TO   FLOW OUT OF   OVRLND.     DIRECT     STREAM       STREAM     STREAM     STREAM   STREAMBED  STREAMBED
                SEG.NO.  NO.  STRM. RCH.    AQUIFER    STRM. RCH.    RUNOFF     PRECIP       ET          HEAD       DEPTH      WIDTH   CONDCTNC.   GRADIENT

   1   13    1     1     1    1.0000E+05 -6.1225E+03   1.0612E+05  0.000E+00  0.000E+00  0.000E+00  4.84087E+01  1.473E-01  2.000E+01  2.000E+04 -3.061E-01
   1   13    2     1     2    1.0612E+05 -7.5922E+03   1.1371E+05  0.000E+00  0.000E+00  0.000E+00  4.79372E+01  1.531E-01  2.000E+01  2.000E+04 -3.796E-01
   1   14    3     1     3    1.1371E+05 -2.1987E+03   1.1591E+05  0.000E+00  0.000E+00  0.000E+00  4.74640E+01  1.572E-01  2.000E+01  2.000E+04 -1.099E-01
   1   15    4     1     4    1.1591E+05 -2.2696E+03   1.1818E+05  0.000E+00  0.000E+00  0.000E+00  4.69885E+01  1.590E-01  2.000E+01  2.000E+04 -1.135E-01
   1   16    5     1     5    1.1818E+05 -7.1765E+03   1.2536E+05  0.000E+00  0.000E+00  0.000E+00  4.65151E+01  1.628E-01  2.000E+01  2.000E+04 -3.588E-01
   1   16    6     1     6    1.2536E+05 -4.2960E+03   1.2966E+05  0.000E+00  0.000E+00  0.000E+00  4.60424E+01  1.674E-01  2.000E+01  2.000E+04 -2.148E-01
   1   16    7     1     7    1.2966E+05 -4.1280E+03   1.3378E+05  0.000E+00  0.000E+00  0.000E+00  4.55684E+01  1.707E-01  2.000E+01  2.000E+04 -2.064E-01
   1   16    8     1     8    1.3378E+05 -4.0826E+03   1.3787E+05  0.000E+00  0.000E+00  0.000E+00  4.50943E+01  1.738E-01  2.000E+01  2.000E+04 -2.041E-01
   1   16    9     1     9    1.3787E+05 -4.0648E+03   1.4193E+05  0.000E+00  0.000E+00  0.000E+00  4.46201E+01  1.769E-01  2.000E+01  2.000E+04 -2.032E-01
   1   16   10     1    10    1.4193E+05 -4.0506E+03   1.4598E+05  0.000E+00  0.000E+00  0.000E+00  4.41459E+01  1.800E-01  2.000E+01  2.000E+04 -2.025E-01
   1   16   11     1    11    1.4598E+05 -4.0646E+03   1.5005E+05  0.000E+00  0.000E+00  0.000E+00  4.36717E+01  1.830E-01  2.000E+01  2.000E+04 -2.032E-01
   1   16   12     1    12    1.5005E+05 -6.8288E+03   1.5687E+05  0.000E+00  0.000E+00  0.000E+00  4.31984E+01  1.870E-01  2.000E+01  2.000E+04 -3.414E-01
   1   15   13     1    13    1.5687E+05 -7.1340E+03   1.6401E+05  0.000E+00  0.000E+00  0.000E+00  4.27262E+01  1.921E-01  2.000E+01  2.000E+04 -3.567E-01
   1   14   14     1    14    1.6401E+05 -7.6170E+03   1.7163E+05  0.000E+00  0.000E+00  0.000E+00  4.22542E+01  1.973E-01  2.000E+01  2.000E+04 -3.808E-01
   1   13   15     1    15    1.7163E+05 -7.9699E+03   1.7960E+05  0.000E+00  0.000E+00  0.000E+00  4.17823E+01  2.028E-01  2.000E+01  2.000E+04 -3.985E-01
   1   12   16     1    16    1.7960E+05 -8.6440E+03   1.8824E+05  0.000E+00  0.000E+00  0.000E+00  4.13108E+01  2.085E-01  2.000E+01  2.000E+04 -4.322E-01
   1   12   17     1    17    1.8824E+05 -5.9760E+03   1.9422E+05  0.000E+00  0.000E+00  0.000E+00  4.08384E+01  2.134E-01  2.000E+01  2.000E+04 -2.988E-01
   1   12   18     1    18    1.9422E+05 -5.5866E+03   1.9980E+05  0.000E+00  0.000E+00  0.000E+00  4.03650E+01  2.173E-01  2.000E+01  2.000E+04 -2.793E-01
   1   12   19     1    19    1.9980E+05 -5.8625E+03   2.0566E+05  0.000E+00  0.000E+00  0.000E+00  3.98915E+01  2.210E-01  2.000E+01  2.000E+04 -2.931E-01
   1   13   20     1    20    2.0566E+05 -4.8538E+03   2.1052E+05  0.000E+00  0.000E+00  0.000E+00  3.94177E+01  2.245E-01  2.000E+01  2.000E+04 -2.427E-01
   1   14   21     1    21    2.1052E+05 -4.8994E+03   2.1542E+05  0.000E+00  0.000E+00  0.000E+00  3.89436E+01  2.277E-01  2.000E+01  2.000E+04 -2.450E-01
   1   14   22     1    22    2.1542E+05  4.1610E+03   2.1126E+05  0.000E+00  0.000E+00  0.000E+00  3.84665E+01  2.279E-01  2.000E+01  2.000E+04  2.080E-01
   1    9   30     2     1    5.0000E+04 -3.6583E+03   5.3658E+04  0.000E+00  0.000E+00  0.000E+00  4.02434E+01  1.184E-01  2.000E+01  2.000E+04 -1.829E-01
   1    9   29     2     2    5.3658E+04 -3.1839E+03   5.6842E+04  0.000E+00  0.000E+00  0.000E+00  3.99980E+01  1.230E-01  2.000E+01  2.000E+04 -1.592E-01
   1    9   28     2     3    5.6842E+04 -9.8867E+02   5.7831E+04  0.000E+00  0.000E+00  0.000E+00  3.97508E+01  1.258E-01  2.000E+01  2.000E+04 -4.943E-02
   1    9   27     2     4    5.7831E+04 -6.5563E+03   6.4387E+04  0.000E+00  0.000E+00  0.000E+00  3.95057E+01  1.307E-01  2.000E+01  2.000E+04 -3.278E-01
   1   10   26     2     5    6.4387E+04 -5.0855E+03   6.9473E+04  0.000E+00  0.000E+00  0.000E+00  3.92630E+01  1.380E-01  2.000E+01  2.000E+04 -2.543E-01
   1   11   25     2     6    6.9473E+04 -5.4617E+03   7.4934E+04  0.000E+00  0.000E+00  0.000E+00  3.90194E+01  1.444E-01  2.000E+01  2.000E+04 -2.731E-01
   1   12   24     2     7    7.4934E+04 -4.9311E+03   7.9865E+04  0.000E+00  0.000E+00  0.000E+00  3.87756E+01  1.506E-01  2.000E+01  2.000E+04 -2.466E-01
   1   13   23     2     8    7.9865E+04 -1.3877E+03   8.1253E+04  0.000E+00  0.000E+00  0.000E+00  3.85293E+01  1.543E-01  2.000E+01  2.000E+04 -6.938E-02
   1   14   22     2     9    8.1253E+04  4.2618E+02   8.0827E+04  0.000E+00  0.000E+00  0.000E+00  3.82798E+01  1.548E-01  2.000E+01  2.000E+04  2.131E-02
   1   14   22     3     1    2.9208E+05 -9.4476E+03   3.0153E+05  0.000E+00  0.000E+00  0.000E+00  3.77861E+01  2.306E-01  2.000E+01  2.000E+04 -4.724E-01
   1   15   23     3     2    3.0153E+05 -1.8198E+03   3.0335E+05  0.000E+00  0.000E+00  0.000E+00  3.68998E+01  2.332E-01  2.000E+01  2.000E+04 -9.099E-02
   1   15   24     3     3    3.0335E+05 -1.4948E+03   3.0485E+05  0.000E+00  0.000E+00  0.000E+00  3.60117E+01  2.339E-01  2.000E+01  2.000E+04 -7.474E-02
   1   15   25     3     4    3.0485E+05 -1.5472E+03   3.0639E+05  0.000E+00  0.000E+00  0.000E+00  3.51235E+01  2.346E-01  2.000E+01  2.000E+04 -7.736E-02
   1   15   26     3     5    3.0639E+05 -1.6927E+03   3.0809E+05  0.000E+00  0.000E+00  0.000E+00  3.42354E+01  2.354E-01  2.000E+01  2.000E+04 -8.463E-02
   1   16   27     3     6    3.0809E+05 -1.1112E+03   3.0920E+05  0.000E+00  0.000E+00  0.000E+00  3.33471E+01  2.360E-01  2.000E+01  2.000E+04 -5.556E-02
   1   17   28     3     7    3.0920E+05 -1.0061E+03   3.1020E+05  0.000E+00  0.000E+00  0.000E+00  3.24587E+01  2.365E-01  2.000E+01  2.000E+04 -5.030E-02
   1   18   29     3     8    3.1020E+05 -7.0127E+03   3.1722E+05  0.000E+00  0.000E+00  0.000E+00  3.15717E+01  2.384E-01  2.000E+01  2.000E+04 -3.506E-01
   1   18   30     3     9    3.1722E+05 -6.2685E+03   3.2348E+05  0.000E+00  0.000E+00  0.000E+00  3.06858E+01  2.414E-01  2.000E+01  2.000E+04 -3.134E-01



1
              HEAD IN LAYER   1 AT END OF TIME STEP   1 IN STRESS PERIOD    1
  ---------------------------------------------------------------------------

          1      2      3      4      5      6      7      8      9     10
         11     12     13     14     15     16     17     18     19     20
         21     22     23     24     25     26     27     28     29     30
 .........................................................................
   1  ****** ****** ****** ****** ****** ****** ****** ****** ****** ******
      ****** ****** ****** ****** ****** ****** ****** ****** ****** ******
      ****** ****** ****** ****** ****** ****** ****** ****** ****** ******
   2  ****** ****** ****** ****** ****** ****** ****** ****** ****** ******
      ****** ****** ****** ****** ****** ****** ****** ****** ****** ******
      ****** ****** ****** ****** ****** ****** ****** ****** ****** ******
   3  ****** ****** ****** ****** ****** ****** ****** ****** ****** ******
      ****** ****** ****** ****** ****** ****** ****** ****** ****** ******
      ****** ****** ****** ****** ****** ****** ****** ****** ****** ******
   4  ****** ****** ****** ****** ****** ****** ****** ****** ****** ******
      ****** ****** ****** ****** ****** ****** ****** ****** ****** ******
      ****** ****** ****** ****** ****** ****** ****** ****** ****** ******
   5  ****** ****** ****** ****** ****** ****** ****** ****** ****** ******
      ****** ****** ****** ****** ****** ****** ****** ****** ****** ******
      ****** ****** ****** ****** ****** ****** ****** ****** ****** ******
   6  ****** ****** ****** ****** ****** ****** ****** ****** ****** ******
      ****** ****** ****** ****** ****** ****** ****** ****** ****** ******
      ****** ****** ****** ****** ****** ****** ****** ****** ****** ******
   7  ****** ****** ****** ****** ****** ****** ****** ****** ****** ******
      ****** ****** ****** ****** ****** ****** ****** ****** ****** ******
      ****** ****** ****** ****** ****** ****** ****** ****** ****** ******
   8  ****** ****** ****** ****** ****** ****** ****** ****** ****** ******
      ****** ****** ****** ****** ****** ****** ****** ****** ****** ******
      ****** ****** ****** ****** ****** ****** ****** ****** ****** ******
   9  ****** ****** ****** ****** ****** ****** ****** ****** ****** ******
      ****** ****** ****** ****** ****** ****** ****** ****** ****** ******
      ****** ****** ****** ****** ****** ****** ****** ****** ****** ******
  10  ****** ****** ****** ****** ****** ****** ****** ****** ****** ******
      ****** ****** ****** ****** ****** ****** ****** ****** ****** ******
      ****** ****** ****** ****** ****** ****** ****** ****** ****** ******
  11  ****** ****** ****** ****** ****** ****** ****** ****** ****** ******
      ****** ****** ****** ****** ****** ****** ****** ****** ****** ******
      ****** ****** ****** ****** ****** ****** ****** ****** ****** ******
  12  ****** ****** ****** ****** ****** ****** ****** ****** ****** ******
      ****** ****** ****** ****** ****** ****** ****** ****** ****** ******
      ****** ****** ****** ****** ****** ****** ****** ****** ****** ******
  13  ****** ****** ****** ****** ****** ****** ****** ****** ****** ******
      ****** ****** ****** ****** ****** ****** ****** ****** ****** ******
      ****** ****** ****** ****** ****** ****** ****** ****** ****** ******
  14  ****** ****** ****** ****** ****** ****** ****** ****** ****** ******
      ****** ****** ****** ****** ****** ****** ****** ****** ****** ******
      ****** ****** ****** ****** ****** ****** ****** ****** ****** ******
  15  ****** ****** ****** ****** ****** ****** ****** ****** ****** ******
      ****** ****** ****** ****** ****** ****** ****** ****** ****** ******
      ****** ****** ****** ****** ****** ****** ****** ****** ****** ******
  16  ****** ****** ****** ****** ****** ****** ****** ****** ****** ******
      ****** ****** ****** ****** ****** ****** ****** ****** ****** ******
      ****** ****** ****** ****** ****** ****** ****** ****** ****** ******
  17  ****** ****** ****** ****** ****** ****** ****** ****** ****** ******
      ****** ****** ****** ****** ****** ****** ****** ****** ****** ******
      ****** ****** ****** ****** ****** ****** ****** ****** ****** ******
  18  ****** ****** ****** ****** ****** ****** ****** ****** ****** ******
      ****** ****** ****** ****** ****** ****** ****** ****** ****** ******
      ****** ****** ****** ****** ****** ****** ****** ****** ****** ******
  19  ****** ****** ****** ****** ****** ****** ****** ****** ****** ******
      ****** ****** ****** ****** ****** ****** ****** ****** ****** ******
      ****** ****** ****** ****** ****** ****** ****** ****** ****** ******
  20  ****** ****** ****** ****** ****** ****** ****** ****** ****** ******
      ****** ****** ****** ****** ****** ****** ****** ****** ****** ******
      ****** ****** ****** ****** ****** ****** ****** ****** ****** ******
  21  ****** ****** ****** ****** ****** ****** ****** ****** ****** ******
      ****** ****** ****** ****** ****** ****** ****** ****** ****** ******
      ****** ****** ****** ****** ****** ****** ****** ****** ****** ******
  22  ****** ****** ****** ****** ****** ****** ****** ****** ****** ******
      ****** ****** ****** ****** ****** ****** ****** ****** ****** ******
      ****** ****** ****** ****** ****** ****** ****** ****** ****** ******
  23  ****** ****** ****** ****** ****** ****** ****** ****** ****** ******
      ****** ****** ****** ****** ****** ****** ****** ****** ****** ******
      ****** ****** ****** ****** ****** ****** ****** ****** ****** ******
  24  ****** ****** ****** ****** ****** ****** ****** ****** ****** ******
      ****** ****** ****** ****** ****** ****** ****** ****** ****** ******
      ****** ****** ****** ****** ****** ****** ****** ****** ****** ******
  25  ****** ****** ****** ****** ****** ****** ****** ****** ****** ******
      ****** ****** ****** ****** ****** ****** ****** ****** ****** ******
      ****** ****** ****** ****** ****** ****** ****** ****** ****** ******

 HEAD WILL BE SAVED ON UNIT   51 AT END OF TIME STEP    1, STRESS PERIOD    1
1
  VOLUMETRIC BUDGET FOR ENTIRE MODEL AT END OF TIME STEP    1, STRESS PERIOD   1
  ------------------------------------------------------------------------------

     CUMULATIVE VOLUMES      L**3       RATES FOR THIS TIME STEP      L**3/T
     ------------------                 ------------------------

           IN:                                      IN:
           ---                                      ---
             STORAGE =    17625087.9469               STORAGE =      191577.0429
       CONSTANT HEAD =     1124947.4168         CONSTANT HEAD =       12227.6893
               WELLS =           0.0000                 WELLS =           0.0000
            RECHARGE =     1269600.0000              RECHARGE =       13800.0000
      STREAM LEAKAGE =      422017.1386        STREAM LEAKAGE =        4587.1428

            TOTAL IN =    20441652.5023              TOTAL IN =      222191.8750

          OUT:                                     OUT:
          ----                                     ----
             STORAGE =           0.0000               STORAGE =           0.0000
       CONSTANT HEAD =           0.0000         CONSTANT HEAD =           0.0000
               WELLS =     4059053.9922                 WELLS =       44120.1521
            RECHARGE =           0.0000              RECHARGE =           0.0000
      STREAM LEAKAGE =    16382598.8012        STREAM LEAKAGE =      178071.7261

           TOTAL OUT =    20441652.7934             TOTAL OUT =      222191.8782

            IN - OUT =          -0.2911              IN - OUT =      -3.1643E-03

 PERCENT DISCREPANCY =          -0.00     PERCENT DISCREPANCY =          -0.00






         TIME SUMMARY AT END OF TIME STEP    1 IN STRESS PERIOD    1
                    SECONDS     MINUTES      HOURS       DAYS        YEARS
                    -----------------------------------------------------------
   TIME STEP LENGTH 7.94880E+06 1.32480E+05  2208.0      92.000     0.25188    
 STRESS PERIOD TIME 7.94880E+06 1.32480E+05  2208.0      92.000     0.25188    
         TOTAL TIME 7.94880E+06 1.32480E+05  2208.0      92.000     0.25188    
1
1
                            STRESS PERIOD NO.    2, LENGTH =   91.00000    
                            -----------------------------------------------

                              NUMBER OF TIME STEPS =     1

                               MULTIPLIER FOR DELT =     1.500

                            INITIAL TIME STEP SIZE =   91.00000    

 WELL NO.  LAYER   ROW   COL   STRESS RATE         
 --------------------------------------------------
      1      1     11     21     -0.1135E+05
      2      1     18     20      -9351.    
      3      1     16     28     -0.1048E+05
      4      1     10     28     -0.1294E+05

      4 WELLS

                 RECHARGE =  2.000000E-03

 REUSING STREAM SEGMENT DATA FROM LAST STRESS PERIOD
 
 SOLVING FOR HEAD 


     7 CALLS TO PCG ROUTINE FOR TIME STEP   1 IN STRESS PERIOD    2
    27 TOTAL ITERATIONS

 OUTPUT CONTROL FOR STRESS PERIOD    2   TIME STEP    1
    SAVE BUDGET
    SAVE HEAD FOR ALL LAYERS
    PRINT HEAD FOR ALL LAYERS
 UBDSV2 SAVING "STREAMFLOW OUT  " ON UNIT  50 AT TIME STEP  1, STRESS PERIOD   2



 STREAM LISTING     PERIOD      2   STEP        1

 LAYER ROW COL. STREAM  RCH.  FLOW INTO     FLOW TO   FLOW OUT OF   OVRLND.     DIRECT     STREAM       STREAM     STREAM     STREAM   STREAMBED  STREAMBED
                SEG.NO.  NO.  STRM. RCH.    AQUIFER    STRM. RCH.    RUNOFF     PRECIP       ET          HEAD       DEPTH      WIDTH   CONDCTNC.   GRADIENT

   1   13    1     1     1    1.0000E+05 -4.0098E+03   1.0401E+05  0.000E+00  0.000E+00  0.000E+00  4.84077E+01  1.464E-01  2.000E+01  2.000E+04 -2.005E-01
   1   13    2     1     2    1.0401E+05 -5.2724E+03   1.0928E+05  0.000E+00  0.000E+00  0.000E+00  4.79344E+01  1.503E-01  2.000E+01  2.000E+04 -2.636E-01
   1   14    3     1     3    1.0928E+05 -1.1158E+03   1.1040E+05  0.000E+00  0.000E+00  0.000E+00  4.74598E+01  1.530E-01  2.000E+01  2.000E+04 -5.579E-02
   1   15    4     1     4    1.1040E+05 -1.1426E+03   1.1154E+05  0.000E+00  0.000E+00  0.000E+00  4.69835E+01  1.540E-01  2.000E+01  2.000E+04 -5.713E-02
   1   16    5     1     5    1.1154E+05 -4.2341E+03   1.1577E+05  0.000E+00  0.000E+00  0.000E+00  4.65085E+01  1.562E-01  2.000E+01  2.000E+04 -2.117E-01
   1   16    6     1     6    1.1577E+05 -2.4913E+03   1.1827E+05  0.000E+00  0.000E+00  0.000E+00  4.60340E+01  1.590E-01  2.000E+01  2.000E+04 -1.246E-01
   1   16    7     1     7    1.1827E+05 -2.3917E+03   1.2066E+05  0.000E+00  0.000E+00  0.000E+00  4.55587E+01  1.609E-01  2.000E+01  2.000E+04 -1.196E-01
   1   16    8     1     8    1.2066E+05 -2.3540E+03   1.2301E+05  0.000E+00  0.000E+00  0.000E+00  4.50833E+01  1.628E-01  2.000E+01  2.000E+04 -1.177E-01
   1   16    9     1     9    1.2301E+05 -2.3204E+03   1.2533E+05  0.000E+00  0.000E+00  0.000E+00  4.46079E+01  1.647E-01  2.000E+01  2.000E+04 -1.160E-01
   1   16   10     1    10    1.2533E+05 -2.2760E+03   1.2761E+05  0.000E+00  0.000E+00  0.000E+00  4.41324E+01  1.665E-01  2.000E+01  2.000E+04 -1.138E-01
   1   16   11     1    11    1.2761E+05 -2.2459E+03   1.2985E+05  0.000E+00  0.000E+00  0.000E+00  4.36570E+01  1.683E-01  2.000E+01  2.000E+04 -1.123E-01
   1   16   12     1    12    1.2985E+05 -3.8360E+03   1.3369E+05  0.000E+00  0.000E+00  0.000E+00  4.31821E+01  1.707E-01  2.000E+01  2.000E+04 -1.918E-01
   1   15   13     1    13    1.3369E+05 -3.8103E+03   1.3750E+05  0.000E+00  0.000E+00  0.000E+00  4.27077E+01  1.736E-01  2.000E+01  2.000E+04 -1.905E-01
   1   14   14     1    14    1.3750E+05 -4.1858E+03   1.4169E+05  0.000E+00  0.000E+00  0.000E+00  4.22335E+01  1.767E-01  2.000E+01  2.000E+04 -2.093E-01
   1   13   15     1    15    1.4169E+05 -4.5642E+03   1.4625E+05  0.000E+00  0.000E+00  0.000E+00  4.17596E+01  1.800E-01  2.000E+01  2.000E+04 -2.282E-01
   1   12   16     1    16    1.4625E+05 -5.4695E+03   1.5172E+05  0.000E+00  0.000E+00  0.000E+00  4.12860E+01  1.837E-01  2.000E+01  2.000E+04 -2.735E-01
   1   12   17     1    17    1.5172E+05 -3.4088E+03   1.5513E+05  0.000E+00  0.000E+00  0.000E+00  4.08120E+01  1.870E-01  2.000E+01  2.000E+04 -1.704E-01
   1   12   18     1    18    1.5513E+05 -2.9803E+03   1.5811E+05  0.000E+00  0.000E+00  0.000E+00  4.03371E+01  1.893E-01  2.000E+01  2.000E+04 -1.490E-01
   1   12   19     1    19    1.5811E+05 -2.5283E+03   1.6064E+05  0.000E+00  0.000E+00  0.000E+00  3.98618E+01  1.913E-01  2.000E+01  2.000E+04 -1.264E-01
   1   13   20     1    20    1.6064E+05 -1.4638E+03   1.6210E+05  0.000E+00  0.000E+00  0.000E+00  3.93859E+01  1.928E-01  2.000E+01  2.000E+04 -7.319E-02
   1   14   21     1    21    1.6210E+05 -1.8312E+03   1.6393E+05  0.000E+00  0.000E+00  0.000E+00  3.89098E+01  1.939E-01  2.000E+01  2.000E+04 -9.156E-02
   1   14   22     1    22    1.6393E+05  5.0293E+03   1.5890E+05  0.000E+00  0.000E+00  0.000E+00  3.84314E+01  1.928E-01  2.000E+01  2.000E+04  2.515E-01
   1    9   30     2     1    5.0000E+04 -7.2526E+02   5.0725E+04  0.000E+00  0.000E+00  0.000E+00  4.02414E+01  1.164E-01  2.000E+01  2.000E+04 -3.626E-02
   1    9   29     2     2    5.0725E+04 -2.5522E+02   5.0980E+04  0.000E+00  0.000E+00  0.000E+00  3.99920E+01  1.170E-01  2.000E+01  2.000E+04 -1.276E-02
   1    9   28     2     3    5.0980E+04  1.9293E+03   4.9051E+04  0.000E+00  0.000E+00  0.000E+00  3.97409E+01  1.159E-01  2.000E+01  2.000E+04  9.647E-02
   1    9   27     2     4    4.9051E+04 -2.9189E+03   5.1970E+04  0.000E+00  0.000E+00  0.000E+00  3.94916E+01  1.166E-01  2.000E+01  2.000E+04 -1.459E-01
   1   10   26     2     5    5.1970E+04 -1.2036E+03   5.3174E+04  0.000E+00  0.000E+00  0.000E+00  3.92444E+01  1.194E-01  2.000E+01  2.000E+04 -6.018E-02
   1   11   25     2     6    5.3174E+04 -1.7651E+03   5.4939E+04  0.000E+00  0.000E+00  0.000E+00  3.89964E+01  1.214E-01  2.000E+01  2.000E+04 -8.825E-02
   1   12   24     2     7    5.4939E+04 -1.6278E+03   5.6566E+04  0.000E+00  0.000E+00  0.000E+00  3.87487E+01  1.237E-01  2.000E+01  2.000E+04 -8.139E-02
   1   13   23     2     8    5.6566E+04 -3.1011E+02   5.6877E+04  0.000E+00  0.000E+00  0.000E+00  3.85000E+01  1.250E-01  2.000E+01  2.000E+04 -1.551E-02
   1   14   22     2     9    5.6877E+04  1.3860E+03   5.5491E+04  0.000E+00  0.000E+00  0.000E+00  3.82493E+01  1.243E-01  2.000E+01  2.000E+04  6.930E-02
   1   14   22     3     1    2.1439E+05 -8.6488E+03   2.2304E+05  0.000E+00  0.000E+00  0.000E+00  3.77475E+01  1.920E-01  2.000E+01  2.000E+04 -4.324E-01
   1   15   23     3     2    2.2304E+05 -8.1252E+02   2.2385E+05  0.000E+00  0.000E+00  0.000E+00  3.68611E+01  1.944E-01  2.000E+01  2.000E+04 -4.063E-02
   1   15   24     3     3    2.2385E+05 -6.0322E+02   2.2446E+05  0.000E+00  0.000E+00  0.000E+00  3.59726E+01  1.948E-01  2.000E+01  2.000E+04 -3.016E-02
   1   15   25     3     4    2.2446E+05 -6.1380E+02   2.2507E+05  0.000E+00  0.000E+00  0.000E+00  3.50840E+01  1.951E-01  2.000E+01  2.000E+04 -3.069E-02
   1   15   26     3     5    2.2507E+05 -5.1318E+02   2.2559E+05  0.000E+00  0.000E+00  0.000E+00  3.41954E+01  1.954E-01  2.000E+01  2.000E+04 -2.566E-02
   1   16   27     3     6    2.2559E+05  2.6596E+02   2.2532E+05  0.000E+00  0.000E+00  0.000E+00  3.33066E+01  1.955E-01  2.000E+01  2.000E+04  1.330E-02
   1   17   28     3     7    2.2532E+05  2.8155E+03   2.2250E+05  0.000E+00  0.000E+00  0.000E+00  3.24169E+01  1.947E-01  2.000E+01  2.000E+04  1.408E-01
   1   18   29     3     8    2.2250E+05 -3.8241E+03   2.2633E+05  0.000E+00  0.000E+00  0.000E+00  3.15283E+01  1.950E-01  2.000E+01  2.000E+04 -1.912E-01
   1   18   30     3     9    2.2633E+05 -3.5434E+03   2.2987E+05  0.000E+00  0.000E+00  0.000E+00  3.06413E+01  1.969E-01  2.000E+01  2.000E+04 -1.772E-01



1
              HEAD IN LAYER   1 AT END OF TIME STEP   1 IN STRESS PERIOD    2
  ---------------------------------------------------------------------------

          1      2      3      4      5      6      7      8      9     10
         11     12     13     14     15     16     17     18     19     20
         21     22     23     24     25     26     27     28     29     30
 .........................................................................
   1  ****** ****** ****** ****** ****** ****** ****** ****** ****** ******
      ****** ****** ****** ****** ****** ****** ****** ****** ****** ******
      ****** ****** ****** ****** ****** ****** ****** ****** ****** ******
   2  ****** ****** ****** ****** ****** ****** ****** ****** ****** ******
      ****** ****** ****** ****** ****** ****** ****** ****** ****** ******
      ****** ****** ****** ****** ****** ****** ****** ****** ****** ******
   3  ****** ****** ****** ****** ****** ****** ****** ****** ****** ******
      ****** ****** ****** ****** ****** ****** ****** ****** ****** ******
      ****** ****** ****** ****** ****** ****** ****** ****** ****** ******
   4  ****** ****** ****** ****** ****** ****** ****** ****** ****** ******
      ****** ****** ****** ****** ****** ****** ****** ****** ****** ******
      ****** ****** ****** ****** ****** ****** ****** ****** ****** ******
   5  ****** ****** ****** ****** ****** ****** ****** ****** ****** ******
      ****** ****** ****** ****** ****** ****** ****** ****** ****** ******
      ****** ****** ****** ****** ****** ****** ****** ****** ****** ******
   6  ****** ****** ****** ****** ****** ****** ****** ****** ****** ******
      ****** ****** ****** ****** ****** ****** ****** ****** ****** ******
      ****** ****** ****** ****** ****** ****** ****** ****** ****** ******
   7  ****** ****** ****** ****** ****** ****** ****** ****** ****** ******
      ****** ****** ****** ****** ****** ****** ****** ****** ****** ******
      ****** ****** ****** ****** ****** ****** ****** ****** ****** ******
   8  ****** ****** ****** ****** ****** ****** ****** ****** ****** ******
      ****** ****** ****** ****** ****** ****** ****** ****** ****** ******
      ****** ****** ****** ****** ****** ****** ****** ****** ****** ******
   9  ****** ****** ****** ****** ****** ****** ****** ****** ****** ******
      ****** ****** ****** ****** ****** ****** ****** ****** ****** ******
      ****** ****** ****** ****** ****** ****** ****** ****** ****** ******
  10  ****** ****** ****** ****** ****** ****** ****** ****** ****** ******
      ****** ****** ****** ****** ****** ****** ****** ****** ****** ******
      ****** ****** ****** ****** ****** ****** ****** ****** ****** ******
  11  ****** ****** ****** ****** ****** ****** ****** ****** ****** ******
      ****** ****** ****** ****** ****** ****** ****** ****** ****** ******
      ****** ****** ****** ****** ****** ****** ****** ****** ****** ******
  12  ****** ****** ****** ****** ****** ****** ****** ****** ****** ******
      ****** ****** ****** ****** ****** ****** ****** ****** ****** ******
      ****** ****** ****** ****** ****** ****** ****** ****** ****** ******
  13  ****** ****** ****** ****** ****** ****** ****** ****** ****** ******
      ****** ****** ****** ****** ****** ****** ****** ****** ****** ******
      ****** ****** ****** ****** ****** ****** ****** ****** ****** ******
  14  ****** ****** ****** ****** ****** ****** ****** ****** ****** ******
      ****** ****** ****** ****** ****** ****** ****** ****** ****** ******
      ****** ****** ****** ****** ****** ****** ****** ****** ****** ******
  15  ****** ****** ****** ****** ****** ****** ****** ****** ****** ******
      ****** ****** ****** ****** ****** ****** ****** ****** ****** ******
      ****** ****** ****** ****** ****** ****** ****** ****** ****** ******
  16  ****** ****** ****** ****** ****** ****** ****** ****** ****** ******
      ****** ****** ****** ****** ****** ****** ****** ****** ****** ******
      ****** ****** ****** ****** ****** ****** ****** ****** ****** ******
  17  ****** ****** ****** ****** ****** ****** ****** ****** ****** ******
      ****** ****** ****** ****** ****** ****** ****** ****** ****** ******
      ****** ****** ****** ****** ****** ****** ****** ****** ****** ******
  18  ****** ****** ****** ****** ****** ****** ****** ****** ****** ******
      ****** ****** ****** ****** ****** ****** ****** ****** ****** ******
      ****** ****** ****** ****** ****** ****** ****** ****** ****** ******
  19  ****** ****** ****** ****** ****** ****** ****** ****** ****** ******
      ****** ****** ****** ****** ****** ****** ****** ****** ****** ******
      ****** ****** ****** ****** ****** ****** ****** ****** ****** ******
  20  ****** ****** ****** ****** ****** ****** ****** ****** ****** ******
      ****** ****** ****** ****** ****** ****** ****** ****** ****** ******
      ****** ****** ****** ****** ****** ****** ****** ****** ****** ******
  21  ****** ****** ****** ****** ****** ****** ****** ****** ****** ******
      ****** ****** ****** ****** ****** ****** ****** ****** ****** ******
      ****** ****** ****** ****** ****** ****** ****** ****** ****** ******
  22  ****** ****** ****** ****** ****** ****** ****** ****** ****** ******
      ****** ****** ****** ****** ****** ****** ****** ****** ****** ******
      ****** ****** ****** ****** ****** ****** ****** ****** ****** ******
  23  ****** ****** ****** ****** ****** ****** ****** ****** ****** ******
      ****** ****** ****** ****** ****** ****** ****** ****** ****** ******
      ****** ****** ****** ****** ****** ****** ****** ****** ****** ******
  24  ****** ****** ****** ****** ****** ****** ****** ****** ****** ******
      ****** ****** ****** ****** ****** ****** ****** ****** ****** ******
      ****** ****** ****** ****** ****** ****** ****** ****** ****** ******
  25  ****** ****** ****** ****** ****** ****** ****** ****** ****** ******
      ****** ****** ****** ****** ****** ****** ****** ****** ****** ******
      ****** ****** ****** ****** ****** ****** ****** ****** ****** ******

 HEAD WILL BE SAVED ON UNIT   51 AT END OF TIME STEP    1, STRESS PERIOD    2
1
  VOLUMETRIC BUDGET FOR ENTIRE MODEL AT END OF TIME STEP    1, STRESS PERIOD   2
  ------------------------------------------------------------------------------

     CUMULATIVE VOLUMES      L**3       RATES FOR THIS TIME STEP      L**3/T
     ------------------                 ------------------------

           IN:                                      IN:
           ---                                      ---
             STORAGE =    22384746.1079               STORAGE =       52303.9358
       CONSTANT HEAD =     2625290.7163         CONSTANT HEAD =       16487.2890
               WELLS =           0.0000                 WELLS =           0.0000
            RECHARGE =     6292800.0000              RECHARGE =       55200.0000
      STREAM LEAKAGE =     1461798.0437        STREAM LEAKAGE =       11426.1638

            TOTAL IN =    32764634.8679              TOTAL IN =      135417.3886

          OUT:                                     OUT:
          ----                                     ----
             STORAGE =           0.0000               STORAGE =           0.0000
       CONSTANT HEAD =           0.0000         CONSTANT HEAD =           0.0000
               WELLS =     8073987.8323                 WELLS =       44120.1521
            RECHARGE =           0.0000              RECHARGE =           0.0000
      STREAM LEAKAGE =    24690648.2787        STREAM LEAKAGE =       91297.2470

           TOTAL OUT =    32764636.1109             TOTAL OUT =      135417.3991

            IN - OUT =          -1.2431              IN - OUT =      -1.0461E-02

 PERCENT DISCREPANCY =          -0.00     PERCENT DISCREPANCY =          -0.00






         TIME SUMMARY AT END OF TIME STEP    1 IN STRESS PERIOD    2
                    SECONDS     MINUTES      HOURS       DAYS        YEARS
                    -----------------------------------------------------------
   TIME STEP LENGTH 7.86240E+06 1.31040E+05  2184.0      91.000     0.24914    
 STRESS PERIOD TIME 7.86240E+06 1.31040E+05  2184.0      91.000     0.24914    
         TOTAL TIME 1.58112E+07 2.63520E+05  4392.0      183.00     0.50103    
1
1
                            STRESS PERIOD NO.    3, LENGTH =   91.00000    
                            -----------------------------------------------

                              NUMBER OF TIME STEPS =     1

                               MULTIPLIER FOR DELT =     1.500

                            INITIAL TIME STEP SIZE =   91.00000    

 WELL NO.  LAYER   ROW   COL   STRESS RATE         
 --------------------------------------------------
      1      1     11     21     -0.1135E+05
      2      1     18     20      -9351.    
      3      1     16     28     -0.1048E+05
      4      1     10     28     -0.1294E+05

      4 WELLS

                 RECHARGE =   0.00000    

 REUSING STREAM SEGMENT DATA FROM LAST STRESS PERIOD
 
 SOLVING FOR HEAD 


     7 CALLS TO PCG ROUTINE FOR TIME STEP   1 IN STRESS PERIOD    3
    27 TOTAL ITERATIONS

 OUTPUT CONTROL FOR STRESS PERIOD    3   TIME STEP    1
    SAVE BUDGET
    SAVE HEAD FOR ALL LAYERS
    PRINT HEAD FOR ALL LAYERS
 UBDSV2 SAVING "STREAMFLOW OUT  " ON UNIT  50 AT TIME STEP  1, STRESS PERIOD   3



 STREAM LISTING     PERIOD      3   STEP        1

 LAYER ROW COL. STREAM  RCH.  FLOW INTO     FLOW TO   FLOW OUT OF   OVRLND.     DIRECT     STREAM       STREAM     STREAM     STREAM   STREAMBED  STREAMBED
                SEG.NO.  NO.  STRM. RCH.    AQUIFER    STRM. RCH.    RUNOFF     PRECIP       ET          HEAD       DEPTH      WIDTH   CONDCTNC.   GRADIENT

   1   13    1     1     1    1.0000E+05 -2.7673E+03   1.0277E+05  0.000E+00  0.000E+00  0.000E+00  4.84072E+01  1.458E-01  2.000E+01  2.000E+04 -1.384E-01
   1   13    2     1     2    1.0277E+05 -3.8773E+03   1.0664E+05  0.000E+00  0.000E+00  0.000E+00  4.79328E+01  1.487E-01  2.000E+01  2.000E+04 -1.939E-01
   1   14    3     1     3    1.0664E+05 -6.5540E+02   1.0730E+05  0.000E+00  0.000E+00  0.000E+00  4.74574E+01  1.506E-01  2.000E+01  2.000E+04 -3.277E-02
   1   15    4     1     4    1.0730E+05 -6.3738E+02   1.0794E+05  0.000E+00  0.000E+00  0.000E+00  4.69807E+01  1.512E-01  2.000E+01  2.000E+04 -3.187E-02
   1   16    5     1     5    1.0794E+05 -2.4314E+03   1.1037E+05  0.000E+00  0.000E+00  0.000E+00  4.65047E+01  1.525E-01  2.000E+01  2.000E+04 -1.216E-01
   1   16    6     1     6    1.1037E+05 -1.4826E+03   1.1185E+05  0.000E+00  0.000E+00  0.000E+00  4.60291E+01  1.541E-01  2.000E+01  2.000E+04 -7.413E-02
   1   16    7     1     7    1.1185E+05 -1.4396E+03   1.1329E+05  0.000E+00  0.000E+00  0.000E+00  4.55530E+01  1.553E-01  2.000E+01  2.000E+04 -7.198E-02
   1   16    8     1     8    1.1329E+05 -1.4177E+03   1.1471E+05  0.000E+00  0.000E+00  0.000E+00  4.50769E+01  1.565E-01  2.000E+01  2.000E+04 -7.089E-02
   1   16    9     1     9    1.1471E+05 -1.3854E+03   1.1609E+05  0.000E+00  0.000E+00  0.000E+00  4.46008E+01  1.576E-01  2.000E+01  2.000E+04 -6.927E-02
   1   16   10     1    10    1.1609E+05 -1.3367E+03   1.1743E+05  0.000E+00  0.000E+00  0.000E+00  4.41247E+01  1.587E-01  2.000E+01  2.000E+04 -6.684E-02
   1   16   11     1    11    1.1743E+05 -1.2935E+03   1.1872E+05  0.000E+00  0.000E+00  0.000E+00  4.36485E+01  1.598E-01  2.000E+01  2.000E+04 -6.467E-02
   1   16   12     1    12    1.1872E+05 -2.1665E+03   1.2089E+05  0.000E+00  0.000E+00  0.000E+00  4.31726E+01  1.612E-01  2.000E+01  2.000E+04 -1.083E-01
   1   15   13     1    13    1.2089E+05 -2.1152E+03   1.2301E+05  0.000E+00  0.000E+00  0.000E+00  4.26970E+01  1.629E-01  2.000E+01  2.000E+04 -1.058E-01
   1   14   14     1    14    1.2301E+05 -2.4529E+03   1.2546E+05  0.000E+00  0.000E+00  0.000E+00  4.22216E+01  1.648E-01  2.000E+01  2.000E+04 -1.226E-01
   1   13   15     1    15    1.2546E+05 -2.8390E+03   1.2830E+05  0.000E+00  0.000E+00  0.000E+00  4.17464E+01  1.669E-01  2.000E+01  2.000E+04 -1.419E-01
   1   12   16     1    16    1.2830E+05 -3.7057E+03   1.3200E+05  0.000E+00  0.000E+00  0.000E+00  4.12717E+01  1.694E-01  2.000E+01  2.000E+04 -1.853E-01
   1   12   17     1    17    1.3200E+05 -2.1159E+03   1.3412E+05  0.000E+00  0.000E+00  0.000E+00  4.07967E+01  1.717E-01  2.000E+01  2.000E+04 -1.058E-01
   1   12   18     1    18    1.3412E+05 -1.6999E+03   1.3582E+05  0.000E+00  0.000E+00  0.000E+00  4.03209E+01  1.732E-01  2.000E+01  2.000E+04 -8.499E-02
   1   12   19     1    19    1.3582E+05 -9.1883E+02   1.3674E+05  0.000E+00  0.000E+00  0.000E+00  3.98446E+01  1.742E-01  2.000E+01  2.000E+04 -4.594E-02
   1   13   20     1    20    1.3674E+05  4.6389E+01   1.3669E+05  0.000E+00  0.000E+00  0.000E+00  3.93677E+01  1.745E-01  2.000E+01  2.000E+04  2.319E-03
   1   14   21     1    21    1.3669E+05 -2.5565E+02   1.3695E+05  0.000E+00  0.000E+00  0.000E+00  3.88905E+01  1.746E-01  2.000E+01  2.000E+04 -1.278E-02
   1   14   22     1    22    1.3695E+05  5.4191E+03   1.3153E+05  0.000E+00  0.000E+00  0.000E+00  3.84112E+01  1.726E-01  2.000E+01  2.000E+04  2.710E-01
   1    9   30     2     1    5.0000E+04  5.1638E+02   4.9484E+04  0.000E+00  0.000E+00  0.000E+00  4.02405E+01  1.155E-01  2.000E+01  2.000E+04  2.582E-02
   1    9   29     2     2    4.9484E+04  9.8256E+02   4.8501E+04  0.000E+00  0.000E+00  0.000E+00  3.99895E+01  1.145E-01  2.000E+01  2.000E+04  4.913E-02
   1    9   28     2     3    4.8501E+04  3.1752E+03   4.5326E+04  0.000E+00  0.000E+00  0.000E+00  3.97365E+01  1.115E-01  2.000E+01  2.000E+04  1.588E-01
   1    9   27     2     4    4.5326E+04 -1.1474E+03   4.6473E+04  0.000E+00  0.000E+00  0.000E+00  3.94851E+01  1.101E-01  2.000E+01  2.000E+04 -5.737E-02
   1   10   26     2     5    4.6473E+04  4.7160E+02   4.6002E+04  0.000E+00  0.000E+00  0.000E+00  3.92356E+01  1.106E-01  2.000E+01  2.000E+04  2.358E-02
   1   11   25     2     6    4.6002E+04 -2.0395E+02   4.6206E+04  0.000E+00  0.000E+00  0.000E+00  3.89854E+01  1.104E-01  2.000E+01  2.000E+04 -1.020E-02
   1   12   24     2     7    4.6206E+04 -2.4099E+02   4.6447E+04  0.000E+00  0.000E+00  0.000E+00  3.87357E+01  1.107E-01  2.000E+01  2.000E+04 -1.205E-02
   1   13   23     2     8    4.6447E+04  3.0445E+01   4.6416E+04  0.000E+00  0.000E+00  0.000E+00  3.84858E+01  1.108E-01  2.000E+01  2.000E+04  1.522E-03
   1   14   22     2     9    4.6416E+04  1.8834E+03   4.4533E+04  0.000E+00  0.000E+00  0.000E+00  3.82345E+01  1.095E-01  2.000E+01  2.000E+04  9.417E-02
   1   14   22     3     1    1.7606E+05 -8.2765E+03   1.8434E+05  0.000E+00  0.000E+00  0.000E+00  3.77265E+01  1.709E-01  2.000E+01  2.000E+04 -4.138E-01
   1   15   23     3     2    1.8434E+05 -3.9545E+02   1.8473E+05  0.000E+00  0.000E+00  0.000E+00  3.68400E+01  1.734E-01  2.000E+01  2.000E+04 -1.977E-02
   1   15   24     3     3    1.8473E+05 -2.6793E+02   1.8500E+05  0.000E+00  0.000E+00  0.000E+00  3.59513E+01  1.735E-01  2.000E+01  2.000E+04 -1.340E-02
   1   15   25     3     4    1.8500E+05 -2.6249E+02   1.8526E+05  0.000E+00  0.000E+00  0.000E+00  3.50626E+01  1.737E-01  2.000E+01  2.000E+04 -1.312E-02
   1   15   26     3     5    1.8526E+05 -8.7342E+01   1.8535E+05  0.000E+00  0.000E+00  0.000E+00  3.41738E+01  1.738E-01  2.000E+01  2.000E+04 -4.367E-03
   1   16   27     3     6    1.8535E+05  7.5896E+02   1.8459E+05  0.000E+00  0.000E+00  0.000E+00  3.32847E+01  1.736E-01  2.000E+01  2.000E+04  3.795E-02
   1   17   28     3     7    1.8459E+05  4.3360E+03   1.8026E+05  0.000E+00  0.000E+00  0.000E+00  3.23944E+01  1.722E-01  2.000E+01  2.000E+04  2.168E-01
   1   18   29     3     8    1.8026E+05 -2.2155E+03   1.8247E+05  0.000E+00  0.000E+00  0.000E+00  3.15049E+01  1.716E-01  2.000E+01  2.000E+04 -1.108E-01
   1   18   30     3     9    1.8247E+05 -2.3343E+03   1.8481E+05  0.000E+00  0.000E+00  0.000E+00  3.06173E+01  1.729E-01  2.000E+01  2.000E+04 -1.167E-01



1
              HEAD IN LAYER   1 AT END OF TIME STEP   1 IN STRESS PERIOD    3
  ---------------------------------------------------------------------------

          1      2      3      4      5      6      7      8      9     10
         11     12     13     14     15     16     17     18     19     20
         21     22     23     24     25     26     27     28     29     30
 .........................................................................
   1  ****** ****** ****** ****** ****** ****** ****** ****** ****** ******
      ****** ****** ****** ****** ****** ****** ****** ****** ****** ******
      ****** ****** ****** ****** ****** ****** ****** ****** ****** ******
   2  ****** ****** ****** ****** ****** ****** ****** ****** ****** ******
      ****** ****** ****** ****** ****** ****** ****** ****** ****** ******
      ****** ****** ****** ****** ****** ****** ****** ****** ****** ******
   3  ****** ****** ****** ****** ****** ****** ****** ****** ****** ******
      ****** ****** ****** ****** ****** ****** ****** ****** ****** ******
      ****** ****** ****** ****** ****** ****** ****** ****** ****** ******
   4  ****** ****** ****** ****** ****** ****** ****** ****** ****** ******
      ****** ****** ****** ****** ****** ****** ****** ****** ****** ******
      ****** ****** ****** ****** ****** ****** ****** ****** ****** ******
   5  ****** ****** ****** ****** ****** ****** ****** ****** ****** ******
      ****** ****** ****** ****** ****** ****** ****** ****** ****** ******
      ****** ****** ****** ****** ****** ****** ****** ****** ****** ******
   6  ****** ****** ****** ****** ****** ****** ****** ****** ****** ******
      ****** ****** ****** ****** ****** ****** ****** ****** ****** ******
      ****** ****** ****** ****** ****** ****** ****** ****** ****** ******
   7  ****** ****** ****** ****** ****** ****** ****** ****** ****** ******
      ****** ****** ****** ****** ****** ****** ****** ****** ****** ******
      ****** ****** ****** ****** ****** ****** ****** ****** ****** ******
   8  ****** ****** ****** ****** ****** ****** ****** ****** ****** ******
      ****** ****** ****** ****** ****** ****** ****** ****** ****** ******
      ****** ****** ****** ****** ****** ****** ****** ****** ****** ******
   9  ****** ****** ****** ****** ****** ****** ****** ****** ****** ******
      ****** ****** ****** ****** ****** ****** ****** ****** ****** ******
      ****** ****** ****** ****** ****** ****** ****** ****** ****** ******
  10  ****** ****** ****** ****** ****** ****** ****** ****** ****** ******
      ****** ****** ****** ****** ****** ****** ****** ****** ****** ******
      ****** ****** ****** ****** ****** ****** ****** ****** ****** ******
  11  ****** ****** ****** ****** ****** ****** ****** ****** ****** ******
      ****** ****** ****** ****** ****** ****** ****** ****** ****** ******
      ****** ****** ****** ****** ****** ****** ****** ****** ****** ******
  12  ****** ****** ****** ****** ****** ****** ****** ****** ****** ******
      ****** ****** ****** ****** ****** ****** ****** ****** ****** ******
      ****** ****** ****** ****** ****** ****** ****** ****** ****** ******
  13  ****** ****** ****** ****** ****** ****** ****** ****** ****** ******
      ****** ****** ****** ****** ****** ****** ****** ****** ****** ******
      ****** ****** ****** ****** ****** ****** ****** ****** ****** ******
  14  ****** ****** ****** ****** ****** ****** ****** ****** ****** ******
      ****** ****** ****** ****** ****** ****** ****** ****** ****** ******
      ****** ****** ****** ****** ****** ****** ****** ****** ****** ******
  15  ****** ****** ****** ****** ****** ****** ****** ****** ****** ******
      ****** ****** ****** ****** ****** ****** ****** ****** ****** ******
      ****** ****** ****** ****** ****** ****** ****** ****** ****** ******
  16  ****** ****** ****** ****** ****** ****** ****** ****** ****** ******
      ****** ****** ****** ****** ****** ****** ****** ****** ****** ******
      ****** ****** ****** ****** ****** ****** ****** ****** ****** ******
  17  ****** ****** ****** ****** ****** ****** ****** ****** ****** ******
      ****** ****** ****** ****** ****** ****** ****** ****** ****** ******
      ****** ****** ****** ****** ****** ****** ****** ****** ****** ******
  18  ****** ****** ****** ****** ****** ****** ****** ****** ****** ******
      ****** ****** ****** ****** ****** ****** ****** ****** ****** ******
      ****** ****** ****** ****** ****** ****** ****** ****** ****** ******
  19  ****** ****** ****** ****** ****** ****** ****** ****** ****** ******
      ****** ****** ****** ****** ****** ****** ****** ****** ****** ******
      ****** ****** ****** ****** ****** ****** ****** ****** ****** ******
  20  ****** ****** ****** ****** ****** ****** ****** ****** ****** ******
      ****** ****** ****** ****** ****** ****** ****** ****** ****** ******
      ****** ****** ****** ****** ****** ****** ****** ****** ****** ******
  21  ****** ****** ****** ****** ****** ****** ****** ****** ****** ******
      ****** ****** ****** ****** ****** ****** ****** ****** ****** ******
      ****** ****** ****** ****** ****** ****** ****** ****** ****** ******
  22  ****** ****** ****** ****** ****** ****** ****** ****** ****** ******
      ****** ****** ****** ****** ****** ****** ****** ****** ****** ******
      ****** ****** ****** ****** ****** ****** ****** ****** ****** ******
  23  ****** ****** ****** ****** ****** ****** ****** ****** ****** ******
      ****** ****** ****** ****** ****** ****** ****** ****** ****** ******
      ****** ****** ****** ****** ****** ****** ****** ****** ****** ******
  24  ****** ****** ****** ****** ****** ****** ****** ****** ****** ******
      ****** ****** ****** ****** ****** ****** ****** ****** ****** ******
      ****** ****** ****** ****** ****** ****** ****** ****** ****** ******
  25  ****** ****** ****** ****** ****** ****** ****** ****** ****** ******
      ****** ****** ****** ****** ****** ****** ****** ****** ****** ******
      ****** ****** ****** ****** ****** ****** ****** ****** ****** ******

 HEAD WILL BE SAVED ON UNIT   51 AT END OF TIME STEP    1, STRESS PERIOD    3
1
  VOLUMETRIC BUDGET FOR ENTIRE MODEL AT END OF TIME STEP    1, STRESS PERIOD   3
  ------------------------------------------------------------------------------

     CUMULATIVE VOLUMES      L**3       RATES FOR THIS TIME STEP      L**3/T
     ------------------                 ------------------------

           IN:                                      IN:
           ---                                      ---
             STORAGE =    27302417.7063               STORAGE =       54040.3472
       CONSTANT HEAD =     4889884.4525         CONSTANT HEAD =       24885.6455
               WELLS =           0.0000                 WELLS =           0.0000
            RECHARGE =     6292800.0000              RECHARGE =           0.0000
      STREAM LEAKAGE =     3065212.7853        STREAM LEAKAGE =       17619.9422

            TOTAL IN =    41550314.9442              TOTAL IN =       96545.9349

          OUT:                                     OUT:
          ----                                     ----
             STORAGE =           0.0000               STORAGE =           0.0000
       CONSTANT HEAD =           0.0000         CONSTANT HEAD =           0.0000
               WELLS =    12088921.6724                 WELLS =       44120.1521
            RECHARGE =           0.0000              RECHARGE =           0.0000
      STREAM LEAKAGE =    29461395.2112        STREAM LEAKAGE =       52425.7905

           TOTAL OUT =    41550316.8835             TOTAL OUT =       96545.9426

            IN - OUT =          -1.9393              IN - OUT =      -7.6509E-03

 PERCENT DISCREPANCY =          -0.00     PERCENT DISCREPANCY =          -0.00






         TIME SUMMARY AT END OF TIME STEP    1 IN STRESS PERIOD    3
                    SECONDS     MINUTES      HOURS       DAYS        YEARS
                    -----------------------------------------------------------
   TIME STEP LENGTH 7.86240E+06 1.31040E+05  2184.0      91.000     0.24914    
 STRESS PERIOD TIME 7.86240E+06 1.31040E+05  2184.0      91.000     0.24914    
         TOTAL TIME 2.36736E+07 3.94560E+05  6576.0      274.00     0.75017    
1
1
                            STRESS PERIOD NO.    4, LENGTH =   91.00000    
                            -----------------------------------------------

                              NUMBER OF TIME STEPS =     1

                               MULTIPLIER FOR DELT =     1.500

                            INITIAL TIME STEP SIZE =   91.00000    

 WELL NO.  LAYER   ROW   COL   STRESS RATE         
 --------------------------------------------------
      1      1     11     21     -0.1135E+05
      2      1     18     20      -9351.    
      3      1     16     28     -0.1048E+05
      4      1     10     28     -0.1294E+05

      4 WELLS

                 RECHARGE =  1.000000E-03

 REUSING STREAM SEGMENT DATA FROM LAST STRESS PERIOD
 
 SOLVING FOR HEAD 


     6 CALLS TO PCG ROUTINE FOR TIME STEP   1 IN STRESS PERIOD    4
    23 TOTAL ITERATIONS

 OUTPUT CONTROL FOR STRESS PERIOD    4   TIME STEP    1
    SAVE BUDGET
    SAVE HEAD FOR ALL LAYERS
    PRINT HEAD FOR ALL LAYERS
 UBDSV2 SAVING "STREAMFLOW OUT  " ON UNIT  50 AT TIME STEP  1, STRESS PERIOD   4



 STREAM LISTING     PERIOD      4   STEP        1

 LAYER ROW COL. STREAM  RCH.  FLOW INTO     FLOW TO   FLOW OUT OF   OVRLND.     DIRECT     STREAM       STREAM     STREAM     STREAM   STREAMBED  STREAMBED
                SEG.NO.  NO.  STRM. RCH.    AQUIFER    STRM. RCH.    RUNOFF     PRECIP       ET          HEAD       DEPTH      WIDTH   CONDCTNC.   GRADIENT

   1   13    1     1     1    1.0000E+05 -2.5411E+03   1.0254E+05  0.000E+00  0.000E+00  0.000E+00  4.84071E+01  1.458E-01  2.000E+01  2.000E+04 -1.271E-01
   1   13    2     1     2    1.0254E+05 -3.6141E+03   1.0616E+05  0.000E+00  0.000E+00  0.000E+00  4.79325E+01  1.484E-01  2.000E+01  2.000E+04 -1.807E-01
   1   14    3     1     3    1.0616E+05 -6.2785E+02   1.0678E+05  0.000E+00  0.000E+00  0.000E+00  4.74570E+01  1.502E-01  2.000E+01  2.000E+04 -3.139E-02
   1   15    4     1     4    1.0678E+05 -5.9950E+02   1.0738E+05  0.000E+00  0.000E+00  0.000E+00  4.69803E+01  1.507E-01  2.000E+01  2.000E+04 -2.998E-02
   1   16    5     1     5    1.0738E+05 -2.1258E+03   1.0951E+05  0.000E+00  0.000E+00  0.000E+00  4.65041E+01  1.519E-01  2.000E+01  2.000E+04 -1.063E-01
   1   16    6     1     6    1.0951E+05 -1.3318E+03   1.1084E+05  0.000E+00  0.000E+00  0.000E+00  4.60283E+01  1.533E-01  2.000E+01  2.000E+04 -6.659E-02
   1   16    7     1     7    1.1084E+05 -1.2997E+03   1.1214E+05  0.000E+00  0.000E+00  0.000E+00  4.55521E+01  1.544E-01  2.000E+01  2.000E+04 -6.499E-02
   1   16    8     1     8    1.1214E+05 -1.2812E+03   1.1342E+05  0.000E+00  0.000E+00  0.000E+00  4.50759E+01  1.555E-01  2.000E+01  2.000E+04 -6.406E-02
   1   16    9     1     9    1.1342E+05 -1.2504E+03   1.1467E+05  0.000E+00  0.000E+00  0.000E+00  4.45997E+01  1.565E-01  2.000E+01  2.000E+04 -6.252E-02
   1   16   10     1    10    1.1467E+05 -1.2033E+03   1.1587E+05  0.000E+00  0.000E+00  0.000E+00  4.41234E+01  1.575E-01  2.000E+01  2.000E+04 -6.017E-02
   1   16   11     1    11    1.1587E+05 -1.1572E+03   1.1703E+05  0.000E+00  0.000E+00  0.000E+00  4.36471E+01  1.585E-01  2.000E+01  2.000E+04 -5.786E-02
   1   16   12     1    12    1.1703E+05 -1.8793E+03   1.1891E+05  0.000E+00  0.000E+00  0.000E+00  4.31711E+01  1.597E-01  2.000E+01  2.000E+04 -9.396E-02
   1   15   13     1    13    1.1891E+05 -1.8562E+03   1.2077E+05  0.000E+00  0.000E+00  0.000E+00  4.26953E+01  1.612E-01  2.000E+01  2.000E+04 -9.281E-02
   1   14   14     1    14    1.2077E+05 -2.1783E+03   1.2295E+05  0.000E+00  0.000E+00  0.000E+00  4.22197E+01  1.629E-01  2.000E+01  2.000E+04 -1.089E-01
   1   13   15     1    15    1.2295E+05 -2.5468E+03   1.2549E+05  0.000E+00  0.000E+00  0.000E+00  4.17443E+01  1.648E-01  2.000E+01  2.000E+04 -1.273E-01
   1   12   16     1    16    1.2549E+05 -3.3307E+03   1.2882E+05  0.000E+00  0.000E+00  0.000E+00  4.12694E+01  1.671E-01  2.000E+01  2.000E+04 -1.665E-01
   1   12   17     1    17    1.2882E+05 -1.8861E+03   1.3071E+05  0.000E+00  0.000E+00  0.000E+00  4.07941E+01  1.691E-01  2.000E+01  2.000E+04 -9.430E-02
   1   12   18     1    18    1.3071E+05 -1.4844E+03   1.3219E+05  0.000E+00  0.000E+00  0.000E+00  4.03182E+01  1.704E-01  2.000E+01  2.000E+04 -7.422E-02
   1   12   19     1    19    1.3219E+05 -6.5344E+02   1.3285E+05  0.000E+00  0.000E+00  0.000E+00  3.98417E+01  1.713E-01  2.000E+01  2.000E+04 -3.267E-02
   1   13   20     1    20    1.3285E+05  2.3168E+02   1.3262E+05  0.000E+00  0.000E+00  0.000E+00  3.93646E+01  1.714E-01  2.000E+01  2.000E+04  1.158E-02
   1   14   21     1    21    1.3262E+05  8.9511E+00   1.3261E+05  0.000E+00  0.000E+00  0.000E+00  3.88873E+01  1.713E-01  2.000E+01  2.000E+04  4.476E-04
   1   14   22     1    22    1.3261E+05  5.4627E+03   1.2714E+05  0.000E+00  0.000E+00  0.000E+00  3.84079E+01  1.692E-01  2.000E+01  2.000E+04  2.731E-01
   1    9   30     2     1    5.0000E+04  6.1177E+02   4.9388E+04  0.000E+00  0.000E+00  0.000E+00  4.02404E+01  1.154E-01  2.000E+01  2.000E+04  3.059E-02
   1    9   29     2     2    4.9388E+04  1.0843E+03   4.8304E+04  0.000E+00  0.000E+00  0.000E+00  3.99893E+01  1.143E-01  2.000E+01  2.000E+04  5.422E-02
   1    9   28     2     3    4.8304E+04  3.2958E+03   4.5008E+04  0.000E+00  0.000E+00  0.000E+00  3.97362E+01  1.112E-01  2.000E+01  2.000E+04  1.648E-01
   1    9   27     2     4    4.5008E+04 -8.7956E+02   4.5888E+04  0.000E+00  0.000E+00  0.000E+00  3.94844E+01  1.094E-01  2.000E+01  2.000E+04 -4.398E-02
   1   10   26     2     5    4.5888E+04  6.3317E+02   4.5255E+04  0.000E+00  0.000E+00  0.000E+00  3.92346E+01  1.096E-01  2.000E+01  2.000E+04  3.166E-02
   1   11   25     2     6    4.5255E+04 -8.2689E+01   4.5337E+04  0.000E+00  0.000E+00  0.000E+00  3.89842E+01  1.092E-01  2.000E+01  2.000E+04 -4.134E-03
   1   12   24     2     7    4.5337E+04 -1.4001E+02   4.5477E+04  0.000E+00  0.000E+00  0.000E+00  3.87344E+01  1.094E-01  2.000E+01  2.000E+04 -7.001E-03
   1   13   23     2     8    4.5477E+04  5.3611E+00   4.5472E+04  0.000E+00  0.000E+00  0.000E+00  3.84845E+01  1.095E-01  2.000E+01  2.000E+04  2.681E-04
   1   14   22     2     9    4.5472E+04  1.9661E+03   4.3506E+04  0.000E+00  0.000E+00  0.000E+00  3.82330E+01  1.080E-01  2.000E+01  2.000E+04  9.831E-02
   1   14   22     3     1    1.7065E+05 -8.2274E+03   1.7888E+05  0.000E+00  0.000E+00  0.000E+00  3.77233E+01  1.678E-01  2.000E+01  2.000E+04 -4.114E-01
   1   15   23     3     2    1.7888E+05 -3.6204E+02   1.7924E+05  0.000E+00  0.000E+00  0.000E+00  3.68369E+01  1.703E-01  2.000E+01  2.000E+04 -1.810E-02
   1   15   24     3     3    1.7924E+05 -2.6142E+02   1.7950E+05  0.000E+00  0.000E+00  0.000E+00  3.59482E+01  1.704E-01  2.000E+01  2.000E+04 -1.307E-02
   1   15   25     3     4    1.7950E+05 -2.5612E+02   1.7976E+05  0.000E+00  0.000E+00  0.000E+00  3.50595E+01  1.706E-01  2.000E+01  2.000E+04 -1.281E-02
   1   15   26     3     5    1.7976E+05 -8.9289E+01   1.7985E+05  0.000E+00  0.000E+00  0.000E+00  3.41707E+01  1.707E-01  2.000E+01  2.000E+04 -4.464E-03
   1   16   27     3     6    1.7985E+05  7.6753E+02   1.7908E+05  0.000E+00  0.000E+00  0.000E+00  3.32816E+01  1.705E-01  2.000E+01  2.000E+04  3.838E-02
   1   17   28     3     7    1.7908E+05  4.4321E+03   1.7465E+05  0.000E+00  0.000E+00  0.000E+00  3.23912E+01  1.690E-01  2.000E+01  2.000E+04  2.216E-01
   1   18   29     3     8    1.7465E+05 -1.9585E+03   1.7660E+05  0.000E+00  0.000E+00  0.000E+00  3.15016E+01  1.683E-01  2.000E+01  2.000E+04 -9.793E-02
   1   18   30     3     9    1.7660E+05 -2.1989E+03   1.7880E+05  0.000E+00  0.000E+00  0.000E+00  3.06139E+01  1.695E-01  2.000E+01  2.000E+04 -1.099E-01



1
              HEAD IN LAYER   1 AT END OF TIME STEP   1 IN STRESS PERIOD    4
  ---------------------------------------------------------------------------

          1      2      3      4      5      6      7      8      9     10
         11     12     13     14     15     16     17     18     19     20
         21     22     23     24     25     26     27     28     29     30
 .........................................................................
   1  ****** ****** ****** ****** ****** ****** ****** ****** ****** ******
      ****** ****** ****** ****** ****** ****** ****** ****** ****** ******
      ****** ****** ****** ****** ****** ****** ****** ****** ****** ******
   2  ****** ****** ****** ****** ****** ****** ****** ****** ****** ******
      ****** ****** ****** ****** ****** ****** ****** ****** ****** ******
      ****** ****** ****** ****** ****** ****** ****** ****** ****** ******
   3  ****** ****** ****** ****** ****** ****** ****** ****** ****** ******
      ****** ****** ****** ****** ****** ****** ****** ****** ****** ******
      ****** ****** ****** ****** ****** ****** ****** ****** ****** ******
   4  ****** ****** ****** ****** ****** ****** ****** ****** ****** ******
      ****** ****** ****** ****** ****** ****** ****** ****** ****** ******
      ****** ****** ****** ****** ****** ****** ****** ****** ****** ******
   5  ****** ****** ****** ****** ****** ****** ****** ****** ****** ******
      ****** ****** ****** ****** ****** ****** ****** ****** ****** ******
      ****** ****** ****** ****** ****** ****** ****** ****** ****** ******
   6  ****** ****** ****** ****** ****** ****** ****** ****** ****** ******
      ****** ****** ****** ****** ****** ****** ****** ****** ****** ******
      ****** ****** ****** ****** ****** ****** ****** ****** ****** ******
   7  ****** ****** ****** ****** ****** ****** ****** ****** ****** ******
      ****** ****** ****** ****** ****** ****** ****** ****** ****** ******
      ****** ****** ****** ****** ****** ****** ****** ****** ****** ******
   8  ****** ****** ****** ****** ****** ****** ****** ****** ****** ******
      ****** ****** ****** ****** ****** ****** ****** ****** ****** ******
      ****** ****** ****** ****** ****** ****** ****** ****** ****** ******
   9  ****** ****** ****** ****** ****** ****** ****** ****** ****** ******
      ****** ****** ****** ****** ****** ****** ****** ****** ****** ******
      ****** ****** ****** ****** ****** ****** ****** ****** ****** ******
  10  ****** ****** ****** ****** ****** ****** ****** ****** ****** ******
      ****** ****** ****** ****** ****** ****** ****** ****** ****** ******
      ****** ****** ****** ****** ****** ****** ****** ****** ****** ******
  11  ****** ****** ****** ****** ****** ****** ****** ****** ****** ******
      ****** ****** ****** ****** ****** ****** ****** ****** ****** ******
      ****** ****** ****** ****** ****** ****** ****** ****** ****** ******
  12  ****** ****** ****** ****** ****** ****** ****** ****** ****** ******
      ****** ****** ****** ****** ****** ****** ****** ****** ****** ******
      ****** ****** ****** ****** ****** ****** ****** ****** ****** ******
  13  ****** ****** ****** ****** ****** ****** ****** ****** ****** ******
      ****** ****** ****** ****** ****** ****** ****** ****** ****** ******
      ****** ****** ****** ****** ****** ****** ****** ****** ****** ******
  14  ****** ****** ****** ****** ****** ****** ****** ****** ****** ******
      ****** ****** ****** ****** ****** ****** ****** ****** ****** ******
      ****** ****** ****** ****** ****** ****** ****** ****** ****** ******
  15  ****** ****** ****** ****** ****** ****** ****** ****** ****** ******
      ****** ****** ****** ****** ****** ****** ****** ****** ****** ******
      ****** ****** ****** ****** ****** ****** ****** ****** ****** ******
  16  ****** ****** ****** ****** ****** ****** ****** ****** ****** ******
      ****** ****** ****** ****** ****** ****** ****** ****** ****** ******
      ****** ****** ****** ****** ****** ****** ****** ****** ****** ******
  17  ****** ****** ****** ****** ****** ****** ****** ****** ****** ******
      ****** ****** ****** ****** ****** ****** ****** ****** ****** ******
      ****** ****** ****** ****** ****** ****** ****** ****** ****** ******
  18  ****** ****** ****** ****** ****** ****** ****** ****** ****** ******
      ****** ****** ****** ****** ****** ****** ****** ****** ****** ******
      ****** ****** ****** ****** ****** ****** ****** ****** ****** ******
  19  ****** ****** ****** ****** ****** ****** ****** ****** ****** ******
      ****** ****** ****** ****** ****** ****** ****** ****** ****** ******
      ****** ****** ****** ****** ****** ****** ****** ****** ****** ******
  20  ****** ****** ****** ****** ****** ****** ****** ****** ****** ******
      ****** ****** ****** ****** ****** ****** ****** ****** ****** ******
      ****** ****** ****** ****** ****** ****** ****** ****** ****** ******
  21  ****** ****** ****** ****** ****** ****** ****** ****** ****** ******
      ****** ****** ****** ****** ****** ****** ****** ****** ****** ******
      ****** ****** ****** ****** ****** ****** ****** ****** ****** ******
  22  ****** ****** ****** ****** ****** ****** ****** ****** ****** ******
      ****** ****** ****** ****** ****** ****** ****** ****** ****** ******
      ****** ****** ****** ****** ****** ****** ****** ****** ****** ******
  23  ****** ****** ****** ****** ****** ****** ****** ****** ****** ******
      ****** ****** ****** ****** ****** ****** ****** ****** ****** ******
      ****** ****** ****** ****** ****** ****** ****** ****** ****** ******
  24  ****** ****** ****** ****** ****** ****** ****** ****** ****** ******
      ****** ****** ****** ****** ****** ****** ****** ****** ****** ******
      ****** ****** ****** ****** ****** ****** ****** ****** ****** ******
  25  ****** ****** ****** ****** ****** ****** ****** ****** ****** ******
      ****** ****** ****** ****** ****** ****** ****** ****** ****** ******
      ****** ****** ****** ****** ****** ****** ****** ****** ****** ******

 HEAD WILL BE SAVED ON UNIT   51 AT END OF TIME STEP    1, STRESS PERIOD    4
1
  VOLUMETRIC BUDGET FOR ENTIRE MODEL AT END OF TIME STEP    1, STRESS PERIOD   4
  ------------------------------------------------------------------------------

     CUMULATIVE VOLUMES      L**3       RATES FOR THIS TIME STEP      L**3/T
     ------------------                 ------------------------

           IN:                                      IN:
           ---                                      ---
             STORAGE =    28933624.5796               STORAGE =       17925.3503
       CONSTANT HEAD =     7383658.4366         CONSTANT HEAD =       27404.1097
               WELLS =           0.0000                 WELLS =           0.0000
            RECHARGE =     8804400.0000              RECHARGE =       27600.0000
      STREAM LEAKAGE =     4748656.6670        STREAM LEAKAGE =       18499.3833

            TOTAL IN =    49870339.6832              TOTAL IN =       91428.8433

          OUT:                                     OUT:
          ----                                     ----
             STORAGE =         511.6523               STORAGE =           5.6226
       CONSTANT HEAD =           0.0000         CONSTANT HEAD =           0.0000
               WELLS =    16103855.5124                 WELLS =       44120.1521
            RECHARGE =           0.0000              RECHARGE =           0.0000
      STREAM LEAKAGE =    33765974.5273        STREAM LEAKAGE =       47303.0694

           TOTAL OUT =    49870341.6920             TOTAL OUT =       91428.8440

            IN - OUT =          -2.0087              IN - OUT =      -7.6254E-04

 PERCENT DISCREPANCY =          -0.00     PERCENT DISCREPANCY =          -0.00






         TIME SUMMARY AT END OF TIME STEP    1 IN STRESS PERIOD    4
                    SECONDS     MINUTES      HOURS       DAYS        YEARS
                    -----------------------------------------------------------
   TIME STEP LENGTH 7.86240E+06 1.31040E+05  2184.0      91.000     0.24914    
 STRESS PERIOD TIME 7.86240E+06 1.31040E+05  2184.0      91.000     0.24914    
         TOTAL TIME 3.15360E+07 5.25600E+05  8760.0      365.00     0.99932    
1
1
                            STRESS PERIOD NO.    5, LENGTH =   92.00000    
                            -----------------------------------------------

                              NUMBER OF TIME STEPS =     1

                               MULTIPLIER FOR DELT =     1.500

                            INITIAL TIME STEP SIZE =   92.00000    

 WELL NO.  LAYER   ROW   COL   STRESS RATE         
 --------------------------------------------------
      1      1     11     21     -0.1135E+05
      2      1     18     20      -9351.    
      3      1     16     28     -0.1048E+05
      4      1     10     28     -0.1294E+05

      4 WELLS

                 RECHARGE =  5.000000E-04

 REUSING STREAM SEGMENT DATA FROM LAST STRESS PERIOD
 
 SOLVING FOR HEAD 


     7 CALLS TO PCG ROUTINE FOR TIME STEP   1 IN STRESS PERIOD    5
    26 TOTAL ITERATIONS

 OUTPUT CONTROL FOR STRESS PERIOD    5   TIME STEP    1
    SAVE BUDGET
    SAVE HEAD FOR ALL LAYERS
    PRINT HEAD FOR ALL LAYERS
 UBDSV2 SAVING "STREAMFLOW OUT  " ON UNIT  50 AT TIME STEP  1, STRESS PERIOD   5



 STREAM LISTING     PERIOD      5   STEP        1

 LAYER ROW COL. STREAM  RCH.  FLOW INTO     FLOW TO   FLOW OUT OF   OVRLND.     DIRECT     STREAM       STREAM     STREAM     STREAM   STREAMBED  STREAMBED
                SEG.NO.  NO.  STRM. RCH.    AQUIFER    STRM. RCH.    RUNOFF     PRECIP       ET          HEAD       DEPTH      WIDTH   CONDCTNC.   GRADIENT

   1   13    1     1     1    1.0000E+05 -2.1344E+03   1.0213E+05  0.000E+00  0.000E+00  0.000E+00  4.84069E+01  1.456E-01  2.000E+01  2.000E+04 -1.067E-01
   1   13    2     1     2    1.0213E+05 -3.1546E+03   1.0529E+05  0.000E+00  0.000E+00  0.000E+00  4.79319E+01  1.478E-01  2.000E+01  2.000E+04 -1.577E-01
   1   14    3     1     3    1.0529E+05 -5.0667E+02   1.0580E+05  0.000E+00  0.000E+00  0.000E+00  4.74562E+01  1.494E-01  2.000E+01  2.000E+04 -2.533E-02
   1   15    4     1     4    1.0580E+05 -4.7139E+02   1.0627E+05  0.000E+00  0.000E+00  0.000E+00  4.69794E+01  1.498E-01  2.000E+01  2.000E+04 -2.357E-02
   1   16    5     1     5    1.0627E+05 -1.6932E+03   1.0796E+05  0.000E+00  0.000E+00  0.000E+00  4.65030E+01  1.507E-01  2.000E+01  2.000E+04 -8.466E-02
   1   16    6     1     6    1.0796E+05 -1.0788E+03   1.0904E+05  0.000E+00  0.000E+00  0.000E+00  4.60269E+01  1.519E-01  2.000E+01  2.000E+04 -5.394E-02
   1   16    7     1     7    1.0904E+05 -1.0570E+03   1.1010E+05  0.000E+00  0.000E+00  0.000E+00  4.55505E+01  1.528E-01  2.000E+01  2.000E+04 -5.285E-02
   1   16    8     1     8    1.1010E+05 -1.0417E+03   1.1114E+05  0.000E+00  0.000E+00  0.000E+00  4.50741E+01  1.537E-01  2.000E+01  2.000E+04 -5.209E-02
   1   16    9     1     9    1.1114E+05 -1.0133E+03   1.1215E+05  0.000E+00  0.000E+00  0.000E+00  4.45977E+01  1.545E-01  2.000E+01  2.000E+04 -5.066E-02
   1   16   10     1    10    1.1215E+05 -9.6874E+02   1.1312E+05  0.000E+00  0.000E+00  0.000E+00  4.41213E+01  1.554E-01  2.000E+01  2.000E+04 -4.844E-02
   1   16   11     1    11    1.1312E+05 -9.2070E+02   1.1404E+05  0.000E+00  0.000E+00  0.000E+00  4.36448E+01  1.561E-01  2.000E+01  2.000E+04 -4.603E-02
   1   16   12     1    12    1.1404E+05 -1.4547E+03   1.1550E+05  0.000E+00  0.000E+00  0.000E+00  4.31685E+01  1.571E-01  2.000E+01  2.000E+04 -7.273E-02
   1   15   13     1    13    1.1550E+05 -1.4152E+03   1.1691E+05  0.000E+00  0.000E+00  0.000E+00  4.26924E+01  1.583E-01  2.000E+01  2.000E+04 -7.076E-02
   1   14   14     1    14    1.1691E+05 -1.7136E+03   1.1862E+05  0.000E+00  0.000E+00  0.000E+00  4.22164E+01  1.596E-01  2.000E+01  2.000E+04 -8.568E-02
   1   13   15     1    15    1.1862E+05 -2.0689E+03   1.2069E+05  0.000E+00  0.000E+00  0.000E+00  4.17406E+01  1.611E-01  2.000E+01  2.000E+04 -1.034E-01
   1   12   16     1    16    1.2069E+05 -2.8142E+03   1.2351E+05  0.000E+00  0.000E+00  0.000E+00  4.12653E+01  1.631E-01  2.000E+01  2.000E+04 -1.407E-01
   1   12   17     1    17    1.2351E+05 -1.5358E+03   1.2504E+05  0.000E+00  0.000E+00  0.000E+00  4.07898E+01  1.648E-01  2.000E+01  2.000E+04 -7.679E-02
   1   12   18     1    18    1.2504E+05 -1.1500E+03   1.2619E+05  0.000E+00  0.000E+00  0.000E+00  4.03136E+01  1.659E-01  2.000E+01  2.000E+04 -5.750E-02
   1   12   19     1    19    1.2619E+05 -2.4967E+02   1.2644E+05  0.000E+00  0.000E+00  0.000E+00  3.98369E+01  1.664E-01  2.000E+01  2.000E+04 -1.248E-02
   1   13   20     1    20    1.2644E+05  5.9197E+02   1.2585E+05  0.000E+00  0.000E+00  0.000E+00  3.93595E+01  1.663E-01  2.000E+01  2.000E+04  2.960E-02
   1   14   21     1    21    1.2585E+05  4.0316E+02   1.2545E+05  0.000E+00  0.000E+00  0.000E+00  3.88818E+01  1.659E-01  2.000E+01  2.000E+04  2.016E-02
   1   14   22     1    22    1.2545E+05  5.5477E+03   1.1990E+05  0.000E+00  0.000E+00  0.000E+00  3.84022E+01  1.635E-01  2.000E+01  2.000E+04  2.774E-01
   1    9   30     2     1    5.0000E+04  8.4312E+02   4.9157E+04  0.000E+00  0.000E+00  0.000E+00  4.02403E+01  1.153E-01  2.000E+01  2.000E+04  4.216E-02
   1    9   29     2     2    4.9157E+04  1.3190E+03   4.7838E+04  0.000E+00  0.000E+00  0.000E+00  3.99888E+01  1.138E-01  2.000E+01  2.000E+04  6.595E-02
   1    9   28     2     3    4.7838E+04  3.5416E+03   4.4296E+04  0.000E+00  0.000E+00  0.000E+00  3.97353E+01  1.103E-01  2.000E+01  2.000E+04  1.771E-01
   1    9   27     2     4    4.4296E+04 -4.9446E+02   4.4791E+04  0.000E+00  0.000E+00  0.000E+00  3.94831E+01  1.081E-01  2.000E+01  2.000E+04 -2.472E-02
   1   10   26     2     5    4.4791E+04  9.7053E+02   4.3820E+04  0.000E+00  0.000E+00  0.000E+00  3.92328E+01  1.078E-01  2.000E+01  2.000E+04  4.853E-02
   1   11   25     2     6    4.3820E+04  2.2700E+02   4.3593E+04  0.000E+00  0.000E+00  0.000E+00  3.89819E+01  1.069E-01  2.000E+01  2.000E+04  1.135E-02
   1   12   24     2     7    4.3593E+04  1.4214E+02   4.3451E+04  0.000E+00  0.000E+00  0.000E+00  3.87316E+01  1.066E-01  2.000E+01  2.000E+04  7.107E-03
   1   13   23     2     8    4.3451E+04  7.3523E+01   4.3378E+04  0.000E+00  0.000E+00  0.000E+00  3.84815E+01  1.065E-01  2.000E+01  2.000E+04  3.676E-03
   1   14   22     2     9    4.3378E+04  2.1015E+03   4.1276E+04  0.000E+00  0.000E+00  0.000E+00  3.82298E+01  1.048E-01  2.000E+01  2.000E+04  1.051E-01
   1   14   22     3     1    1.6118E+05 -8.1394E+03   1.6931E+05  0.000E+00  0.000E+00  0.000E+00  3.77178E+01  1.622E-01  2.000E+01  2.000E+04 -4.070E-01
   1   15   23     3     2    1.6931E+05 -2.5849E+02   1.6957E+05  0.000E+00  0.000E+00  0.000E+00  3.68314E+01  1.647E-01  2.000E+01  2.000E+04 -1.292E-02
   1   15   24     3     3    1.6957E+05 -1.8617E+02   1.6976E+05  0.000E+00  0.000E+00  0.000E+00  3.59426E+01  1.648E-01  2.000E+01  2.000E+04 -9.308E-03
   1   15   25     3     4    1.6976E+05 -1.8171E+02   1.6994E+05  0.000E+00  0.000E+00  0.000E+00  3.50538E+01  1.649E-01  2.000E+01  2.000E+04 -9.086E-03
   1   15   26     3     5    1.6994E+05 -1.4300E+01   1.6996E+05  0.000E+00  0.000E+00  0.000E+00  3.41650E+01  1.650E-01  2.000E+01  2.000E+04 -7.150E-04
   1   16   27     3     6    1.6996E+05  8.6216E+02   1.6909E+05  0.000E+00  0.000E+00  0.000E+00  3.32759E+01  1.648E-01  2.000E+01  2.000E+04  4.311E-02
   1   17   28     3     7    1.6909E+05  4.7144E+03   1.6438E+05  0.000E+00  0.000E+00  0.000E+00  3.23853E+01  1.631E-01  2.000E+01  2.000E+04  2.357E-01
   1   18   29     3     8    1.6438E+05 -1.5606E+03   1.6594E+05  0.000E+00  0.000E+00  0.000E+00  3.14955E+01  1.622E-01  2.000E+01  2.000E+04 -7.803E-02
   1   18   30     3     9    1.6594E+05 -1.9261E+03   1.6787E+05  0.000E+00  0.000E+00  0.000E+00  3.06077E+01  1.632E-01  2.000E+01  2.000E+04 -9.631E-02



1
              HEAD IN LAYER   1 AT END OF TIME STEP   1 IN STRESS PERIOD    5
  ---------------------------------------------------------------------------

          1      2      3      4      5      6      7      8      9     10
         11     12     13     14     15     16     17     18     19     20
         21     22     23     24     25     26     27     28     29     30
 .........................................................................
   1  ****** ****** ****** ****** ****** ****** ****** ****** ****** ******
      ****** ****** ****** ****** ****** ****** ****** ****** ****** ******
      ****** ****** ****** ****** ****** ****** ****** ****** ****** ******
   2  ****** ****** ****** ****** ****** ****** ****** ****** ****** ******
      ****** ****** ****** ****** ****** ****** ****** ****** ****** ******
      ****** ****** ****** ****** ****** ****** ****** ****** ****** ******
   3  ****** ****** ****** ****** ****** ****** ****** ****** ****** ******
      ****** ****** ****** ****** ****** ****** ****** ****** ****** ******
      ****** ****** ****** ****** ****** ****** ****** ****** ****** ******
   4  ****** ****** ****** ****** ****** ****** ****** ****** ****** ******
      ****** ****** ****** ****** ****** ****** ****** ****** ****** ******
      ****** ****** ****** ****** ****** ****** ****** ****** ****** ******
   5  ****** ****** ****** ****** ****** ****** ****** ****** ****** ******
      ****** ****** ****** ****** ****** ****** ****** ****** ****** ******
      ****** ****** ****** ****** ****** ****** ****** ****** ****** ******
   6  ****** ****** ****** ****** ****** ****** ****** ****** ****** ******
      ****** ****** ****** ****** ****** ****** ****** ****** ****** ******
      ****** ****** ****** ****** ****** ****** ****** ****** ****** ******
   7  ****** ****** ****** ****** ****** ****** ****** ****** ****** ******
      ****** ****** ****** ****** ****** ****** ****** ****** ****** ******
      ****** ****** ****** ****** ****** ****** ****** ****** ****** ******
   8  ****** ****** ****** ****** ****** ****** ****** ****** ****** ******
      ****** ****** ****** ****** ****** ****** ****** ****** ****** ******
      ****** ****** ****** ****** ****** ****** ****** ****** ****** ******
   9  ****** ****** ****** ****** ****** ****** ****** ****** ****** ******
      ****** ****** ****** ****** ****** ****** ****** ****** ****** ******
      ****** ****** ****** ****** ****** ****** ****** ****** ****** ******
  10  ****** ****** ****** ****** ****** ****** ****** ****** ****** ******
      ****** ****** ****** ****** ****** ****** ****** ****** ****** ******
      ****** ****** ****** ****** ****** ****** ****** ****** ****** ******
  11  ****** ****** ****** ****** ****** ****** ****** ****** ****** ******
      ****** ****** ****** ****** ****** ****** ****** ****** ****** ******
      ****** ****** ****** ****** ****** ****** ****** ****** ****** ******
  12  ****** ****** ****** ****** ****** ****** ****** ****** ****** ******
      ****** ****** ****** ****** ****** ****** ****** ****** ****** ******
      ****** ****** ****** ****** ****** ****** ****** ****** ****** ******
  13  ****** ****** ****** ****** ****** ****** ****** ****** ****** ******
      ****** ****** ****** ****** ****** ****** ****** ****** ****** ******
      ****** ****** ****** ****** ****** ****** ****** ****** ****** ******
  14  ****** ****** ****** ****** ****** ****** ****** ****** ****** ******
      ****** ****** ****** ****** ****** ****** ****** ****** ****** ******
      ****** ****** ****** ****** ****** ****** ****** ****** ****** ******
  15  ****** ****** ****** ****** ****** ****** ****** ****** ****** ******
      ****** ****** ****** ****** ****** ****** ****** ****** ****** ******
      ****** ****** ****** ****** ****** ****** ****** ****** ****** ******
  16  ****** ****** ****** ****** ****** ****** ****** ****** ****** ******
      ****** ****** ****** ****** ****** ****** ****** ****** ****** ******
      ****** ****** ****** ****** ****** ****** ****** ****** ****** ******
  17  ****** ****** ****** ****** ****** ****** ****** ****** ****** ******
      ****** ****** ****** ****** ****** ****** ****** ****** ****** ******
      ****** ****** ****** ****** ****** ****** ****** ****** ****** ******
  18  ****** ****** ****** ****** ****** ****** ****** ****** ****** ******
      ****** ****** ****** ****** ****** ****** ****** ****** ****** ******
      ****** ****** ****** ****** ****** ****** ****** ****** ****** ******
  19  ****** ****** ****** ****** ****** ****** ****** ****** ****** ******
      ****** ****** ****** ****** ****** ****** ****** ****** ****** ******
      ****** ****** ****** ****** ****** ****** ****** ****** ****** ******
  20  ****** ****** ****** ****** ****** ****** ****** ****** ****** ******
      ****** ****** ****** ****** ****** ****** ****** ****** ****** ******
      ****** ****** ****** ****** ****** ****** ****** ****** ****** ******
  21  ****** ****** ****** ****** ****** ****** ****** ****** ****** ******
      ****** ****** ****** ****** ****** ****** ****** ****** ****** ******
      ****** ****** ****** ****** ****** ****** ****** ****** ****** ******
  22  ****** ****** ****** ****** ****** ****** ****** ****** ****** ******
      ****** ****** ****** ****** ****** ****** ****** ****** ****** ******
      ****** ****** ****** ****** ****** ****** ****** ****** ****** ******
  23  ****** ****** ****** ****** ****** ****** ****** ****** ****** ******
      ****** ****** ****** ****** ****** ****** ****** ****** ****** ******
      ****** ****** ****** ****** ****** ****** ****** ****** ****** ******
  24  ****** ****** ****** ****** ****** ****** ****** ****** ****** ******
      ****** ****** ****** ****** ****** ****** ****** ****** ****** ******
      ****** ****** ****** ****** ****** ****** ****** ****** ****** ******
  25  ****** ****** ****** ****** ****** ****** ****** ****** ****** ******
      ****** ****** ****** ****** ****** ****** ****** ****** ****** ******
      ****** ****** ****** ****** ****** ****** ****** ****** ****** ******

 HEAD WILL BE SAVED ON UNIT   51 AT END OF TIME STEP    1, STRESS PERIOD    5
1
  VOLUMETRIC BUDGET FOR ENTIRE MODEL AT END OF TIME STEP    1, STRESS PERIOD   5
  ------------------------------------------------------------------------------

     CUMULATIVE VOLUMES      L**3       RATES FOR THIS TIME STEP      L**3/T
     ------------------                 ------------------------

           IN:                                      IN:
           ---                                      ---
             STORAGE =    30581245.4309               STORAGE =       17908.9223
       CONSTANT HEAD =    10169130.5824         CONSTANT HEAD =       30276.8711
               WELLS =           0.0000                 WELLS =           0.0000
            RECHARGE =    10074000.0000              RECHARGE =       13800.0000
      STREAM LEAKAGE =     6711731.7343        STREAM LEAKAGE =       21337.7725

            TOTAL IN =    57536107.7476              TOTAL IN =       83323.5659

          OUT:                                     OUT:
          ----                                     ----
             STORAGE =         511.6523               STORAGE =           0.0000
       CONSTANT HEAD =           0.0000         CONSTANT HEAD =           0.0000
               WELLS =    20162909.5046                 WELLS =       44120.1521
            RECHARGE =           0.0000              RECHARGE =           0.0000
      STREAM LEAKAGE =    37372688.8799        STREAM LEAKAGE =       39203.4169

           TOTAL OUT =    57536110.0368             TOTAL OUT =       83323.5690

            IN - OUT =          -2.2892              IN - OUT =      -3.0486E-03

 PERCENT DISCREPANCY =          -0.00     PERCENT DISCREPANCY =          -0.00






         TIME SUMMARY AT END OF TIME STEP    1 IN STRESS PERIOD    5
                    SECONDS     MINUTES      HOURS       DAYS        YEARS
                    -----------------------------------------------------------
   TIME STEP LENGTH 7.94880E+06 1.32480E+05  2208.0      92.000     0.25188    
 STRESS PERIOD TIME 7.94880E+06 1.32480E+05  2208.0      92.000     0.25188    
         TOTAL TIME 3.94848E+07 6.58080E+05  10968.      457.00      1.2512    
1
1
                            STRESS PERIOD NO.    6, LENGTH =   91.00000    
                            -----------------------------------------------

                              NUMBER OF TIME STEPS =     1

                               MULTIPLIER FOR DELT =     1.500

                            INITIAL TIME STEP SIZE =   91.00000    

 WELL NO.  LAYER   ROW   COL   STRESS RATE         
 --------------------------------------------------
      1      1     11     21     -0.1135E+05
      2      1     18     20      -9351.    
      3      1     16     28     -0.1048E+05
      4      1     10     28     -0.1294E+05

      4 WELLS

                 RECHARGE =  2.000000E-03

 REUSING STREAM SEGMENT DATA FROM LAST STRESS PERIOD
 
 SOLVING FOR HEAD 


     7 CALLS TO PCG ROUTINE FOR TIME STEP   1 IN STRESS PERIOD    6
    26 TOTAL ITERATIONS

 OUTPUT CONTROL FOR STRESS PERIOD    6   TIME STEP    1
    SAVE BUDGET
    SAVE HEAD FOR ALL LAYERS
    PRINT HEAD FOR ALL LAYERS
 UBDSV2 SAVING "STREAMFLOW OUT  " ON UNIT  50 AT TIME STEP  1, STRESS PERIOD   6



 STREAM LISTING     PERIOD      6   STEP        1

 LAYER ROW COL. STREAM  RCH.  FLOW INTO     FLOW TO   FLOW OUT OF   OVRLND.     DIRECT     STREAM       STREAM     STREAM     STREAM   STREAMBED  STREAMBED
                SEG.NO.  NO.  STRM. RCH.    AQUIFER    STRM. RCH.    RUNOFF     PRECIP       ET          HEAD       DEPTH      WIDTH   CONDCTNC.   GRADIENT

   1   13    1     1     1    1.0000E+05 -2.4564E+03   1.0246E+05  0.000E+00  0.000E+00  0.000E+00  4.84071E+01  1.457E-01  2.000E+01  2.000E+04 -1.228E-01
   1   13    2     1     2    1.0246E+05 -3.5076E+03   1.0596E+05  0.000E+00  0.000E+00  0.000E+00  4.79324E+01  1.483E-01  2.000E+01  2.000E+04 -1.754E-01
   1   14    3     1     3    1.0596E+05 -6.6258E+02   1.0663E+05  0.000E+00  0.000E+00  0.000E+00  4.74569E+01  1.500E-01  2.000E+01  2.000E+04 -3.313E-02
   1   15    4     1     4    1.0663E+05 -6.3844E+02   1.0727E+05  0.000E+00  0.000E+00  0.000E+00  4.69801E+01  1.506E-01  2.000E+01  2.000E+04 -3.192E-02
   1   16    5     1     5    1.0727E+05 -2.1888E+03   1.0945E+05  0.000E+00  0.000E+00  0.000E+00  4.65041E+01  1.518E-01  2.000E+01  2.000E+04 -1.094E-01
   1   16    6     1     6    1.0945E+05 -1.3699E+03   1.1082E+05  0.000E+00  0.000E+00  0.000E+00  4.60283E+01  1.533E-01  2.000E+01  2.000E+04 -6.849E-02
   1   16    7     1     7    1.1082E+05 -1.3328E+03   1.1216E+05  0.000E+00  0.000E+00  0.000E+00  4.55521E+01  1.544E-01  2.000E+01  2.000E+04 -6.664E-02
   1   16    8     1     8    1.1216E+05 -1.3128E+03   1.1347E+05  0.000E+00  0.000E+00  0.000E+00  4.50760E+01  1.555E-01  2.000E+01  2.000E+04 -6.564E-02
   1   16    9     1     9    1.1347E+05 -1.2836E+03   1.1475E+05  0.000E+00  0.000E+00  0.000E+00  4.45998E+01  1.566E-01  2.000E+01  2.000E+04 -6.418E-02
   1   16   10     1    10    1.1475E+05 -1.2401E+03   1.1599E+05  0.000E+00  0.000E+00  0.000E+00  4.41235E+01  1.576E-01  2.000E+01  2.000E+04 -6.201E-02
   1   16   11     1    11    1.1599E+05 -1.1946E+03   1.1719E+05  0.000E+00  0.000E+00  0.000E+00  4.36472E+01  1.586E-01  2.000E+01  2.000E+04 -5.973E-02
   1   16   12     1    12    1.1719E+05 -1.8963E+03   1.1908E+05  0.000E+00  0.000E+00  0.000E+00  4.31712E+01  1.599E-01  2.000E+01  2.000E+04 -9.481E-02
   1   15   13     1    13    1.1908E+05 -1.8701E+03   1.2095E+05  0.000E+00  0.000E+00  0.000E+00  4.26955E+01  1.614E-01  2.000E+01  2.000E+04 -9.351E-02
   1   14   14     1    14    1.2095E+05 -2.1660E+03   1.2312E+05  0.000E+00  0.000E+00  0.000E+00  4.22198E+01  1.630E-01  2.000E+01  2.000E+04 -1.083E-01
   1   13   15     1    15    1.2312E+05 -2.5043E+03   1.2562E+05  0.000E+00  0.000E+00  0.000E+00  4.17444E+01  1.649E-01  2.000E+01  2.000E+04 -1.252E-01
   1   12   16     1    16    1.2562E+05 -3.2078E+03   1.2883E+05  0.000E+00  0.000E+00  0.000E+00  4.12694E+01  1.671E-01  2.000E+01  2.000E+04 -1.604E-01
   1   12   17     1    17    1.2883E+05 -1.8533E+03   1.3069E+05  0.000E+00  0.000E+00  0.000E+00  4.07941E+01  1.691E-01  2.000E+01  2.000E+04 -9.267E-02
   1   12   18     1    18    1.3069E+05 -1.4705E+03   1.3216E+05  0.000E+00  0.000E+00  0.000E+00  4.03181E+01  1.704E-01  2.000E+01  2.000E+04 -7.352E-02
   1   12   19     1    19    1.3216E+05 -6.4863E+02   1.3280E+05  0.000E+00  0.000E+00  0.000E+00  3.98417E+01  1.712E-01  2.000E+01  2.000E+04 -3.243E-02
   1   13   20     1    20    1.3280E+05  1.7102E+02   1.3263E+05  0.000E+00  0.000E+00  0.000E+00  3.93646E+01  1.714E-01  2.000E+01  2.000E+04  8.551E-03
   1   14   21     1    21    1.3263E+05 -2.2270E+00   1.3264E+05  0.000E+00  0.000E+00  0.000E+00  3.88873E+01  1.714E-01  2.000E+01  2.000E+04 -1.113E-04
   1   14   22     1    22    1.3264E+05  5.4380E+03   1.2720E+05  0.000E+00  0.000E+00  0.000E+00  3.84079E+01  1.692E-01  2.000E+01  2.000E+04  2.719E-01
   1    9   30     2     1    5.0000E+04  4.7812E+02   4.9522E+04  0.000E+00  0.000E+00  0.000E+00  4.02405E+01  1.155E-01  2.000E+01  2.000E+04  2.391E-02
   1    9   29     2     2    4.9522E+04  9.5820E+02   4.8564E+04  0.000E+00  0.000E+00  0.000E+00  3.99895E+01  1.145E-01  2.000E+01  2.000E+04  4.791E-02
   1    9   28     2     3    4.8564E+04  3.1872E+03   4.5376E+04  0.000E+00  0.000E+00  0.000E+00  3.97366E+01  1.116E-01  2.000E+01  2.000E+04  1.594E-01
   1    9   27     2     4    4.5376E+04 -9.4421E+02   4.6321E+04  0.000E+00  0.000E+00  0.000E+00  3.94850E+01  1.100E-01  2.000E+01  2.000E+04 -4.721E-02
   1   10   26     2     5    4.6321E+04  4.9758E+02   4.5823E+04  0.000E+00  0.000E+00  0.000E+00  3.92353E+01  1.103E-01  2.000E+01  2.000E+04  2.488E-02
   1   11   25     2     6    4.5823E+04 -2.3100E+02   4.6054E+04  0.000E+00  0.000E+00  0.000E+00  3.89851E+01  1.101E-01  2.000E+01  2.000E+04 -1.155E-02
   1   12   24     2     7    4.6054E+04 -2.7099E+02   4.6325E+04  0.000E+00  0.000E+00  0.000E+00  3.87355E+01  1.105E-01  2.000E+01  2.000E+04 -1.355E-02
   1   13   23     2     8    4.6325E+04 -6.4758E+01   4.6390E+04  0.000E+00  0.000E+00  0.000E+00  3.84857E+01  1.107E-01  2.000E+01  2.000E+04 -3.238E-03
   1   14   22     2     9    4.6390E+04  1.9674E+03   4.4422E+04  0.000E+00  0.000E+00  0.000E+00  3.82344E+01  1.094E-01  2.000E+01  2.000E+04  9.837E-02
   1   14   22     3     1    1.7162E+05 -8.2415E+03   1.7986E+05  0.000E+00  0.000E+00  0.000E+00  3.77239E+01  1.684E-01  2.000E+01  2.000E+04 -4.121E-01
   1   15   23     3     2    1.7986E+05 -3.9370E+02   1.8026E+05  0.000E+00  0.000E+00  0.000E+00  3.68375E+01  1.708E-01  2.000E+01  2.000E+04 -1.969E-02
   1   15   24     3     3    1.8026E+05 -3.0682E+02   1.8056E+05  0.000E+00  0.000E+00  0.000E+00  3.59488E+01  1.710E-01  2.000E+01  2.000E+04 -1.534E-02
   1   15   25     3     4    1.8056E+05 -3.0694E+02   1.8087E+05  0.000E+00  0.000E+00  0.000E+00  3.50601E+01  1.712E-01  2.000E+01  2.000E+04 -1.535E-02
   1   15   26     3     5    1.8087E+05 -1.6472E+02   1.8103E+05  0.000E+00  0.000E+00  0.000E+00  3.41713E+01  1.713E-01  2.000E+01  2.000E+04 -8.236E-03
   1   16   27     3     6    1.8103E+05  6.9491E+02   1.8034E+05  0.000E+00  0.000E+00  0.000E+00  3.32823E+01  1.712E-01  2.000E+01  2.000E+04  3.475E-02
   1   17   28     3     7    1.8034E+05  4.2564E+03   1.7608E+05  0.000E+00  0.000E+00  0.000E+00  3.23920E+01  1.698E-01  2.000E+01  2.000E+04  2.128E-01
   1   18   29     3     8    1.7608E+05 -1.9915E+03   1.7807E+05  0.000E+00  0.000E+00  0.000E+00  3.15025E+01  1.691E-01  2.000E+01  2.000E+04 -9.957E-02
   1   18   30     3     9    1.7807E+05 -2.2770E+03   1.8035E+05  0.000E+00  0.000E+00  0.000E+00  3.06148E+01  1.703E-01  2.000E+01  2.000E+04 -1.139E-01



1
              HEAD IN LAYER   1 AT END OF TIME STEP   1 IN STRESS PERIOD    6
  ---------------------------------------------------------------------------

          1      2      3      4      5      6      7      8      9     10
         11     12     13     14     15     16     17     18     19     20
         21     22     23     24     25     26     27     28     29     30
 .........................................................................
   1  ****** ****** ****** ****** ****** ****** ****** ****** ****** ******
      ****** ****** ****** ****** ****** ****** ****** ****** ****** ******
      ****** ****** ****** ****** ****** ****** ****** ****** ****** ******
   2  ****** ****** ****** ****** ****** ****** ****** ****** ****** ******
      ****** ****** ****** ****** ****** ****** ****** ****** ****** ******
      ****** ****** ****** ****** ****** ****** ****** ****** ****** ******
   3  ****** ****** ****** ****** ****** ****** ****** ****** ****** ******
      ****** ****** ****** ****** ****** ****** ****** ****** ****** ******
      ****** ****** ****** ****** ****** ****** ****** ****** ****** ******
   4  ****** ****** ****** ****** ****** ****** ****** ****** ****** ******
      ****** ****** ****** ****** ****** ****** ****** ****** ****** ******
      ****** ****** ****** ****** ****** ****** ****** ****** ****** ******
   5  ****** ****** ****** ****** ****** ****** ****** ****** ****** ******
      ****** ****** ****** ****** ****** ****** ****** ****** ****** ******
      ****** ****** ****** ****** ****** ****** ****** ****** ****** ******
   6  ****** ****** ****** ****** ****** ****** ****** ****** ****** ******
      ****** ****** ****** ****** ****** ****** ****** ****** ****** ******
      ****** ****** ****** ****** ****** ****** ****** ****** ****** ******
   7  ****** ****** ****** ****** ****** ****** ****** ****** ****** ******
      ****** ****** ****** ****** ****** ****** ****** ****** ****** ******
      ****** ****** ****** ****** ****** ****** ****** ****** ****** ******
   8  ****** ****** ****** ****** ****** ****** ****** ****** ****** ******
      ****** ****** ****** ****** ****** ****** ****** ****** ****** ******
      ****** ****** ****** ****** ****** ****** ****** ****** ****** ******
   9  ****** ****** ****** ****** ****** ****** ****** ****** ****** ******
      ****** ****** ****** ****** ****** ****** ****** ****** ****** ******
      ****** ****** ****** ****** ****** ****** ****** ****** ****** ******
  10  ****** ****** ****** ****** ****** ****** ****** ****** ****** ******
      ****** ****** ****** ****** ****** ****** ****** ****** ****** ******
      ****** ****** ****** ****** ****** ****** ****** ****** ****** ******
  11  ****** ****** ****** ****** ****** ****** ****** ****** ****** ******
      ****** ****** ****** ****** ****** ****** ****** ****** ****** ******
      ****** ****** ****** ****** ****** ****** ****** ****** ****** ******
  12  ****** ****** ****** ****** ****** ****** ****** ****** ****** ******
      ****** ****** ****** ****** ****** ****** ****** ****** ****** ******
      ****** ****** ****** ****** ****** ****** ****** ****** ****** ******
  13  ****** ****** ****** ****** ****** ****** ****** ****** ****** ******
      ****** ****** ****** ****** ****** ****** ****** ****** ****** ******
      ****** ****** ****** ****** ****** ****** ****** ****** ****** ******
  14  ****** ****** ****** ****** ****** ****** ****** ****** ****** ******
      ****** ****** ****** ****** ****** ****** ****** ****** ****** ******
      ****** ****** ****** ****** ****** ****** ****** ****** ****** ******
  15  ****** ****** ****** ****** ****** ****** ****** ****** ****** ******
      ****** ****** ****** ****** ****** ****** ****** ****** ****** ******
      ****** ****** ****** ****** ****** ****** ****** ****** ****** ******
  16  ****** ****** ****** ****** ****** ****** ****** ****** ****** ******
      ****** ****** ****** ****** ****** ****** ****** ****** ****** ******
      ****** ****** ****** ****** ****** ****** ****** ****** ****** ******
  17  ****** ****** ****** ****** ****** ****** ****** ****** ****** ******
      ****** ****** ****** ****** ****** ****** ****** ****** ****** ******
      ****** ****** ****** ****** ****** ****** ****** ****** ****** ******
  18  ****** ****** ****** ****** ****** ****** ****** ****** ****** ******
      ****** ****** ****** ****** ****** ****** ****** ****** ****** ******
      ****** ****** ****** ****** ****** ****** ****** ****** ****** ******
  19  ****** ****** ****** ****** ****** ****** ****** ****** ****** ******
      ****** ****** ****** ****** ****** ****** ****** ****** ****** ******
      ****** ****** ****** ****** ****** ****** ****** ****** ****** ******
  20  ****** ****** ****** ****** ****** ****** ****** ****** ****** ******
      ****** ****** ****** ****** ****** ****** ****** ****** ****** ******
      ****** ****** ****** ****** ****** ****** ****** ****** ****** ******
  21  ****** ****** ****** ****** ****** ****** ****** ****** ****** ******
      ****** ****** ****** ****** ****** ****** ****** ****** ****** ******
      ****** ****** ****** ****** ****** ****** ****** ****** ****** ******
  22  ****** ****** ****** ****** ****** ****** ****** ****** ****** ******
      ****** ****** ****** ****** ****** ****** ****** ****** ****** ******
      ****** ****** ****** ****** ****** ****** ****** ****** ****** ******
  23  ****** ****** ****** ****** ****** ****** ****** ****** ****** ******
      ****** ****** ****** ****** ****** ****** ****** ****** ****** ******
      ****** ****** ****** ****** ****** ****** ****** ****** ****** ******
  24  ****** ****** ****** ****** ****** ****** ****** ****** ****** ******
      ****** ****** ****** ****** ****** ****** ****** ****** ****** ******
      ****** ****** ****** ****** ****** ****** ****** ****** ****** ******
  25  ****** ****** ****** ****** ****** ****** ****** ****** ****** ******
      ****** ****** ****** ****** ****** ****** ****** ****** ****** ******
      ****** ****** ****** ****** ****** ****** ****** ****** ****** ******

 HEAD WILL BE SAVED ON UNIT   51 AT END OF TIME STEP    1, STRESS PERIOD    6
1
  VOLUMETRIC BUDGET FOR ENTIRE MODEL AT END OF TIME STEP    1, STRESS PERIOD   6
  ------------------------------------------------------------------------------

     CUMULATIVE VOLUMES      L**3       RATES FOR THIS TIME STEP      L**3/T
     ------------------                 ------------------------

           IN:                                      IN:
           ---                                      ---
             STORAGE =    30581245.4309               STORAGE =           0.0000
       CONSTANT HEAD =    12747835.1556         CONSTANT HEAD =       28337.4129
               WELLS =           0.0000                 WELLS =           0.0000
            RECHARGE =    15097200.0000              RECHARGE =       55200.0000
      STREAM LEAKAGE =     8317781.2919        STREAM LEAKAGE =       17648.8962

            TOTAL IN =    66744061.8784              TOTAL IN =      101186.3091

          OUT:                                     OUT:
          ----                                     ----
             STORAGE =      825543.9058               STORAGE =        9066.2885
       CONSTANT HEAD =           0.0000         CONSTANT HEAD =           0.0000
               WELLS =    24177843.3447                 WELLS =       44120.1521
            RECHARGE =           0.0000              RECHARGE =           0.0000
      STREAM LEAKAGE =    41740676.6510        STREAM LEAKAGE =       47999.8656

           TOTAL OUT =    66744063.9015             TOTAL OUT =      101186.3062

            IN - OUT =          -2.0231              IN - OUT =       2.9246E-03

 PERCENT DISCREPANCY =          -0.00     PERCENT DISCREPANCY =           0.00






         TIME SUMMARY AT END OF TIME STEP    1 IN STRESS PERIOD    6
                    SECONDS     MINUTES      HOURS       DAYS        YEARS
                    -----------------------------------------------------------
   TIME STEP LENGTH 7.86240E+06 1.31040E+05  2184.0      91.000     0.24914    
 STRESS PERIOD TIME 7.86240E+06 1.31040E+05  2184.0      91.000     0.24914    
         TOTAL TIME 4.73472E+07 7.89120E+05  13152.      548.00      1.5003    
1
1
                            STRESS PERIOD NO.    7, LENGTH =   91.00000    
                            -----------------------------------------------

                              NUMBER OF TIME STEPS =     1

                               MULTIPLIER FOR DELT =     1.500

                            INITIAL TIME STEP SIZE =   91.00000    

 WELL NO.  LAYER   ROW   COL   STRESS RATE         
 --------------------------------------------------
      1      1     11     21     -0.1135E+05
      2      1     18     20      -9351.    
      3      1     16     28     -0.1048E+05
      4      1     10     28     -0.1294E+05

      4 WELLS

                 RECHARGE =   0.00000    

 REUSING STREAM SEGMENT DATA FROM LAST STRESS PERIOD
 
 SOLVING FOR HEAD 


     7 CALLS TO PCG ROUTINE FOR TIME STEP   1 IN STRESS PERIOD    7
    26 TOTAL ITERATIONS

 OUTPUT CONTROL FOR STRESS PERIOD    7   TIME STEP    1
    SAVE BUDGET
    SAVE HEAD FOR ALL LAYERS
    PRINT HEAD FOR ALL LAYERS
 UBDSV2 SAVING "STREAMFLOW OUT  " ON UNIT  50 AT TIME STEP  1, STRESS PERIOD   7



 STREAM LISTING     PERIOD      7   STEP        1

 LAYER ROW COL. STREAM  RCH.  FLOW INTO     FLOW TO   FLOW OUT OF   OVRLND.     DIRECT     STREAM       STREAM     STREAM     STREAM   STREAMBED  STREAMBED
                SEG.NO.  NO.  STRM. RCH.    AQUIFER    STRM. RCH.    RUNOFF     PRECIP       ET          HEAD       DEPTH      WIDTH   CONDCTNC.   GRADIENT

   1   13    1     1     1    1.0000E+05 -1.7965E+03   1.0180E+05  0.000E+00  0.000E+00  0.000E+00  4.84068E+01  1.454E-01  2.000E+01  2.000E+04 -8.983E-02
   1   13    2     1     2    1.0180E+05 -2.7695E+03   1.0457E+05  0.000E+00  0.000E+00  0.000E+00  4.79315E+01  1.474E-01  2.000E+01  2.000E+04 -1.385E-01
   1   14    3     1     3    1.0457E+05 -4.1157E+02   1.0498E+05  0.000E+00  0.000E+00  0.000E+00  4.74556E+01  1.488E-01  2.000E+01  2.000E+04 -2.058E-02
   1   15    4     1     4    1.0498E+05 -3.7641E+02   1.0535E+05  0.000E+00  0.000E+00  0.000E+00  4.69786E+01  1.491E-01  2.000E+01  2.000E+04 -1.882E-02
   1   16    5     1     5    1.0535E+05 -1.4351E+03   1.0679E+05  0.000E+00  0.000E+00  0.000E+00  4.65021E+01  1.499E-01  2.000E+01  2.000E+04 -7.176E-02
   1   16    6     1     6    1.0679E+05 -9.1562E+02   1.0770E+05  0.000E+00  0.000E+00  0.000E+00  4.60259E+01  1.509E-01  2.000E+01  2.000E+04 -4.578E-02
   1   16    7     1     7    1.0770E+05 -8.9692E+02   1.0860E+05  0.000E+00  0.000E+00  0.000E+00  4.55493E+01  1.516E-01  2.000E+01  2.000E+04 -4.485E-02
   1   16    8     1     8    1.0860E+05 -8.8278E+02   1.0948E+05  0.000E+00  0.000E+00  0.000E+00  4.50728E+01  1.524E-01  2.000E+01  2.000E+04 -4.414E-02
   1   16    9     1     9    1.0948E+05 -8.5648E+02   1.1034E+05  0.000E+00  0.000E+00  0.000E+00  4.45963E+01  1.531E-01  2.000E+01  2.000E+04 -4.282E-02
   1   16   10     1    10    1.1034E+05 -8.1515E+02   1.1116E+05  0.000E+00  0.000E+00  0.000E+00  4.41197E+01  1.538E-01  2.000E+01  2.000E+04 -4.076E-02
   1   16   11     1    11    1.1116E+05 -7.6790E+02   1.1192E+05  0.000E+00  0.000E+00  0.000E+00  4.36431E+01  1.544E-01  2.000E+01  2.000E+04 -3.840E-02
   1   16   12     1    12    1.1192E+05 -1.1789E+03   1.1310E+05  0.000E+00  0.000E+00  0.000E+00  4.31666E+01  1.553E-01  2.000E+01  2.000E+04 -5.895E-02
   1   15   13     1    13    1.1310E+05 -1.1032E+03   1.1421E+05  0.000E+00  0.000E+00  0.000E+00  4.26903E+01  1.562E-01  2.000E+01  2.000E+04 -5.516E-02
   1   14   14     1    14    1.1421E+05 -1.3729E+03   1.1558E+05  0.000E+00  0.000E+00  0.000E+00  4.22140E+01  1.572E-01  2.000E+01  2.000E+04 -6.865E-02
   1   13   15     1    15    1.1558E+05 -1.7108E+03   1.1729E+05  0.000E+00  0.000E+00  0.000E+00  4.17380E+01  1.585E-01  2.000E+01  2.000E+04 -8.554E-02
   1   12   16     1    16    1.1729E+05 -2.4235E+03   1.1971E+05  0.000E+00  0.000E+00  0.000E+00  4.12624E+01  1.602E-01  2.000E+01  2.000E+04 -1.212E-01
   1   12   17     1    17    1.1971E+05 -1.2809E+03   1.2099E+05  0.000E+00  0.000E+00  0.000E+00  4.07867E+01  1.617E-01  2.000E+01  2.000E+04 -6.404E-02
   1   12   18     1    18    1.2099E+05 -9.1132E+02   1.2191E+05  0.000E+00  0.000E+00  0.000E+00  4.03103E+01  1.625E-01  2.000E+01  2.000E+04 -4.557E-02
   1   12   19     1    19    1.2191E+05  3.4190E+01   1.2187E+05  0.000E+00  0.000E+00  0.000E+00  3.98333E+01  1.629E-01  2.000E+01  2.000E+04  1.709E-03
   1   13   20     1    20    1.2187E+05  8.3995E+02   1.2103E+05  0.000E+00  0.000E+00  0.000E+00  3.93557E+01  1.625E-01  2.000E+01  2.000E+04  4.200E-02
   1   14   21     1    21    1.2103E+05  6.6125E+02   1.2037E+05  0.000E+00  0.000E+00  0.000E+00  3.88778E+01  1.619E-01  2.000E+01  2.000E+04  3.306E-02
   1   14   22     1    22    1.2037E+05  5.6023E+03   1.1477E+05  0.000E+00  0.000E+00  0.000E+00  3.83980E+01  1.594E-01  2.000E+01  2.000E+04  2.801E-01
   1    9   30     2     1    5.0000E+04  9.9066E+02   4.9009E+04  0.000E+00  0.000E+00  0.000E+00  4.02402E+01  1.152E-01  2.000E+01  2.000E+04  4.953E-02
   1    9   29     2     2    4.9009E+04  1.4689E+03   4.7540E+04  0.000E+00  0.000E+00  0.000E+00  3.99885E+01  1.135E-01  2.000E+01  2.000E+04  7.344E-02
   1    9   28     2     3    4.7540E+04  3.6990E+03   4.3841E+04  0.000E+00  0.000E+00  0.000E+00  3.97348E+01  1.098E-01  2.000E+01  2.000E+04  1.850E-01
   1    9   27     2     4    4.3841E+04 -2.5007E+02   4.4092E+04  0.000E+00  0.000E+00  0.000E+00  3.94823E+01  1.073E-01  2.000E+01  2.000E+04 -1.250E-02
   1   10   26     2     5    4.4092E+04  1.1941E+03   4.2897E+04  0.000E+00  0.000E+00  0.000E+00  3.92316E+01  1.066E-01  2.000E+01  2.000E+04  5.971E-02
   1   11   25     2     6    4.2897E+04  4.3697E+02   4.2460E+04  0.000E+00  0.000E+00  0.000E+00  3.89804E+01  1.054E-01  2.000E+01  2.000E+04  2.185E-02
   1   12   24     2     7    4.2460E+04  3.3772E+02   4.2123E+04  0.000E+00  0.000E+00  0.000E+00  3.87298E+01  1.048E-01  2.000E+01  2.000E+04  1.689E-02
   1   13   23     2     8    4.2123E+04  1.2663E+02   4.1996E+04  0.000E+00  0.000E+00  0.000E+00  3.84794E+01  1.044E-01  2.000E+01  2.000E+04  6.331E-03
   1   14   22     2     9    4.1996E+04  2.1956E+03   3.9800E+04  0.000E+00  0.000E+00  0.000E+00  3.82277E+01  1.027E-01  2.000E+01  2.000E+04  1.098E-01
   1   14   22     3     1    1.5457E+05 -8.0813E+03   1.6265E+05  0.000E+00  0.000E+00  0.000E+00  3.77139E+01  1.583E-01  2.000E+01  2.000E+04 -4.041E-01
   1   15   23     3     2    1.6265E+05 -1.8667E+02   1.6284E+05  0.000E+00  0.000E+00  0.000E+00  3.68274E+01  1.608E-01  2.000E+01  2.000E+04 -9.333E-03
   1   15   24     3     3    1.6284E+05 -1.3282E+02   1.6297E+05  0.000E+00  0.000E+00  0.000E+00  3.59386E+01  1.609E-01  2.000E+01  2.000E+04 -6.641E-03
   1   15   25     3     4    1.6297E+05 -1.2990E+02   1.6310E+05  0.000E+00  0.000E+00  0.000E+00  3.50498E+01  1.609E-01  2.000E+01  2.000E+04 -6.495E-03
   1   15   26     3     5    1.6310E+05  3.6723E+01   1.6306E+05  0.000E+00  0.000E+00  0.000E+00  3.41610E+01  1.610E-01  2.000E+01  2.000E+04  1.836E-03
   1   16   27     3     6    1.6306E+05  9.2765E+02   1.6213E+05  0.000E+00  0.000E+00  0.000E+00  3.32718E+01  1.607E-01  2.000E+01  2.000E+04  4.638E-02
   1   17   28     3     7    1.6213E+05  4.8992E+03   1.5724E+05  0.000E+00  0.000E+00  0.000E+00  3.23812E+01  1.589E-01  2.000E+01  2.000E+04  2.450E-01
   1   18   29     3     8    1.5724E+05 -1.3028E+03   1.5854E+05  0.000E+00  0.000E+00  0.000E+00  3.14912E+01  1.579E-01  2.000E+01  2.000E+04 -6.514E-02
   1   18   30     3     9    1.5854E+05 -1.7470E+03   1.6029E+05  0.000E+00  0.000E+00  0.000E+00  3.06032E+01  1.588E-01  2.000E+01  2.000E+04 -8.735E-02



1
              HEAD IN LAYER   1 AT END OF TIME STEP   1 IN STRESS PERIOD    7
  ---------------------------------------------------------------------------

          1      2      3      4      5      6      7      8      9     10
         11     12     13     14     15     16     17     18     19     20
         21     22     23     24     25     26     27     28     29     30
 .........................................................................
   1  ****** ****** ****** ****** ****** ****** ****** ****** ****** ******
      ****** ****** ****** ****** ****** ****** ****** ****** ****** ******
      ****** ****** ****** ****** ****** ****** ****** ****** ****** ******
   2  ****** ****** ****** ****** ****** ****** ****** ****** ****** ******
      ****** ****** ****** ****** ****** ****** ****** ****** ****** ******
      ****** ****** ****** ****** ****** ****** ****** ****** ****** ******
   3  ****** ****** ****** ****** ****** ****** ****** ****** ****** ******
      ****** ****** ****** ****** ****** ****** ****** ****** ****** ******
      ****** ****** ****** ****** ****** ****** ****** ****** ****** ******
   4  ****** ****** ****** ****** ****** ****** ****** ****** ****** ******
      ****** ****** ****** ****** ****** ****** ****** ****** ****** ******
      ****** ****** ****** ****** ****** ****** ****** ****** ****** ******
   5  ****** ****** ****** ****** ****** ****** ****** ****** ****** ******
      ****** ****** ****** ****** ****** ****** ****** ****** ****** ******
      ****** ****** ****** ****** ****** ****** ****** ****** ****** ******
   6  ****** ****** ****** ****** ****** ****** ****** ****** ****** ******
      ****** ****** ****** ****** ****** ****** ****** ****** ****** ******
      ****** ****** ****** ****** ****** ****** ****** ****** ****** ******
   7  ****** ****** ****** ****** ****** ****** ****** ****** ****** ******
      ****** ****** ****** ****** ****** ****** ****** ****** ****** ******
      ****** ****** ****** ****** ****** ****** ****** ****** ****** ******
   8  ****** ****** ****** ****** ****** ****** ****** ****** ****** ******
      ****** ****** ****** ****** ****** ****** ****** ****** ****** ******
      ****** ****** ****** ****** ****** ****** ****** ****** ****** ******
   9  ****** ****** ****** ****** ****** ****** ****** ****** ****** ******
      ****** ****** ****** ****** ****** ****** ****** ****** ****** ******
      ****** ****** ****** ****** ****** ****** ****** ****** ****** ******
  10  ****** ****** ****** ****** ****** ****** ****** ****** ****** ******
      ****** ****** ****** ****** ****** ****** ****** ****** ****** ******
      ****** ****** ****** ****** ****** ****** ****** ****** ****** ******
  11  ****** ****** ****** ****** ****** ****** ****** ****** ****** ******
      ****** ****** ****** ****** ****** ****** ****** ****** ****** ******
      ****** ****** ****** ****** ****** ****** ****** ****** ****** ******
  12  ****** ****** ****** ****** ****** ****** ****** ****** ****** ******
      ****** ****** ****** ****** ****** ****** ****** ****** ****** ******
      ****** ****** ****** ****** ****** ****** ****** ****** ****** ******
  13  ****** ****** ****** ****** ****** ****** ****** ****** ****** ******
      ****** ****** ****** ****** ****** ****** ****** ****** ****** ******
      ****** ****** ****** ****** ****** ****** ****** ****** ****** ******
  14  ****** ****** ****** ****** ****** ****** ****** ****** ****** ******
      ****** ****** ****** ****** ****** ****** ****** ****** ****** ******
      ****** ****** ****** ****** ****** ****** ****** ****** ****** ******
  15  ****** ****** ****** ****** ****** ****** ****** ****** ****** ******
      ****** ****** ****** ****** ****** ****** ****** ****** ****** ******
      ****** ****** ****** ****** ****** ****** ****** ****** ****** ******
  16  ****** ****** ****** ****** ****** ****** ****** ****** ****** ******
      ****** ****** ****** ****** ****** ****** ****** ****** ****** ******
      ****** ****** ****** ****** ****** ****** ****** ****** ****** ******
  17  ****** ****** ****** ****** ****** ****** ****** ****** ****** ******
      ****** ****** ****** ****** ****** ****** ****** ****** ****** ******
      ****** ****** ****** ****** ****** ****** ****** ****** ****** ******
  18  ****** ****** ****** ****** ****** ****** ****** ****** ****** ******
      ****** ****** ****** ****** ****** ****** ****** ****** ****** ******
      ****** ****** ****** ****** ****** ****** ****** ****** ****** ******
  19  ****** ****** ****** ****** ****** ****** ****** ****** ****** ******
      ****** ****** ****** ****** ****** ****** ****** ****** ****** ******
      ****** ****** ****** ****** ****** ****** ****** ****** ****** ******
  20  ****** ****** ****** ****** ****** ****** ****** ****** ****** ******
      ****** ****** ****** ****** ****** ****** ****** ****** ****** ******
      ****** ****** ****** ****** ****** ****** ****** ****** ****** ******
  21  ****** ****** ****** ****** ****** ****** ****** ****** ****** ******
      ****** ****** ****** ****** ****** ****** ****** ****** ****** ******
      ****** ****** ****** ****** ****** ****** ****** ****** ****** ******
  22  ****** ****** ****** ****** ****** ****** ****** ****** ****** ******
      ****** ****** ****** ****** ****** ****** ****** ****** ****** ******
      ****** ****** ****** ****** ****** ****** ****** ****** ****** ******
  23  ****** ****** ****** ****** ****** ****** ****** ****** ****** ******
      ****** ****** ****** ****** ****** ****** ****** ****** ****** ******
      ****** ****** ****** ****** ****** ****** ****** ****** ****** ******
  24  ****** ****** ****** ****** ****** ****** ****** ****** ****** ******
      ****** ****** ****** ****** ****** ****** ****** ****** ****** ******
      ****** ****** ****** ****** ****** ****** ****** ****** ****** ******
  25  ****** ****** ****** ****** ****** ****** ****** ****** ****** ******
      ****** ****** ****** ****** ****** ****** ****** ****** ****** ******
      ****** ****** ****** ****** ****** ****** ****** ****** ****** ******

 HEAD WILL BE SAVED ON UNIT   51 AT END OF TIME STEP    1, STRESS PERIOD    7
1
  VOLUMETRIC BUDGET FOR ENTIRE MODEL AT END OF TIME STEP    1, STRESS PERIOD   7
  ------------------------------------------------------------------------------

     CUMULATIVE VOLUMES      L**3       RATES FOR THIS TIME STEP      L**3/T
     ------------------                 ------------------------

           IN:                                      IN:
           ---                                      ---
             STORAGE =    32598213.1637               STORAGE =       22164.4806
       CONSTANT HEAD =    15681762.4030         CONSTANT HEAD =       32240.9588
               WELLS =           0.0000                 WELLS =           0.0000
            RECHARGE =    15097200.0000              RECHARGE =           0.0000
      STREAM LEAKAGE =    10451808.0362        STREAM LEAKAGE =       23450.8433

            TOTAL IN =    73828983.6029              TOTAL IN =       77856.2827

          OUT:                                     OUT:
          ----                                     ----
             STORAGE =      825543.9058               STORAGE =           0.0000
       CONSTANT HEAD =           0.0000         CONSTANT HEAD =           0.0000
               WELLS =    28192777.1848                 WELLS =       44120.1521
            RECHARGE =           0.0000              RECHARGE =           0.0000
      STREAM LEAKAGE =    44810665.0337        STREAM LEAKAGE =       33736.1361

           TOTAL OUT =    73828986.1243             TOTAL OUT =       77856.2882

            IN - OUT =          -2.5214              IN - OUT =      -5.4766E-03

 PERCENT DISCREPANCY =          -0.00     PERCENT DISCREPANCY =          -0.00






         TIME SUMMARY AT END OF TIME STEP    1 IN STRESS PERIOD    7
                    SECONDS     MINUTES      HOURS       DAYS        YEARS
                    -----------------------------------------------------------
   TIME STEP LENGTH 7.86240E+06 1.31040E+05  2184.0      91.000     0.24914    
 STRESS PERIOD TIME 7.86240E+06 1.31040E+05  2184.0      91.000     0.24914    
         TOTAL TIME 5.52096E+07 9.20160E+05  15336.      639.00      1.7495    
1
1
                            STRESS PERIOD NO.    8, LENGTH =   91.00000    
                            -----------------------------------------------

                              NUMBER OF TIME STEPS =     1

                               MULTIPLIER FOR DELT =     1.500

                            INITIAL TIME STEP SIZE =   91.00000    

 WELL NO.  LAYER   ROW   COL   STRESS RATE         
 --------------------------------------------------
      1      1     11     21     -0.1135E+05
      2      1     18     20      -9351.    
      3      1     16     28     -0.1048E+05
      4      1     10     28     -0.1294E+05

      4 WELLS

                 RECHARGE =  1.000000E-03

 REUSING STREAM SEGMENT DATA FROM LAST STRESS PERIOD
 
 SOLVING FOR HEAD 


     6 CALLS TO PCG ROUTINE FOR TIME STEP   1 IN STRESS PERIOD    8
    22 TOTAL ITERATIONS

 OUTPUT CONTROL FOR STRESS PERIOD    8   TIME STEP    1
    SAVE BUDGET
    SAVE HEAD FOR ALL LAYERS
    PRINT HEAD FOR ALL LAYERS
 UBDSV2 SAVING "STREAMFLOW OUT  " ON UNIT  50 AT TIME STEP  1, STRESS PERIOD   8



 STREAM LISTING     PERIOD      8   STEP        1

 LAYER ROW COL. STREAM  RCH.  FLOW INTO     FLOW TO   FLOW OUT OF   OVRLND.     DIRECT     STREAM       STREAM     STREAM     STREAM   STREAMBED  STREAMBED
                SEG.NO.  NO.  STRM. RCH.    AQUIFER    STRM. RCH.    RUNOFF     PRECIP       ET          HEAD       DEPTH      WIDTH   CONDCTNC.   GRADIENT

   1   13    1     1     1    1.0000E+05 -1.8748E+03   1.0187E+05  0.000E+00  0.000E+00  0.000E+00  4.84068E+01  1.455E-01  2.000E+01  2.000E+04 -9.374E-02
   1   13    2     1     2    1.0187E+05 -2.8482E+03   1.0472E+05  0.000E+00  0.000E+00  0.000E+00  4.79316E+01  1.475E-01  2.000E+01  2.000E+04 -1.424E-01
   1   14    3     1     3    1.0472E+05 -4.7636E+02   1.0520E+05  0.000E+00  0.000E+00  0.000E+00  4.74557E+01  1.489E-01  2.000E+01  2.000E+04 -2.382E-02
   1   15    4     1     4    1.0520E+05 -4.4565E+02   1.0565E+05  0.000E+00  0.000E+00  0.000E+00  4.69789E+01  1.493E-01  2.000E+01  2.000E+04 -2.228E-02
   1   16    5     1     5    1.0565E+05 -1.6089E+03   1.0725E+05  0.000E+00  0.000E+00  0.000E+00  4.65025E+01  1.502E-01  2.000E+01  2.000E+04 -8.045E-02
   1   16    6     1     6    1.0725E+05 -1.0228E+03   1.0828E+05  0.000E+00  0.000E+00  0.000E+00  4.60263E+01  1.513E-01  2.000E+01  2.000E+04 -5.114E-02
   1   16    7     1     7    1.0828E+05 -9.9914E+02   1.0928E+05  0.000E+00  0.000E+00  0.000E+00  4.55499E+01  1.521E-01  2.000E+01  2.000E+04 -4.996E-02
   1   16    8     1     8    1.0928E+05 -9.8411E+02   1.1026E+05  0.000E+00  0.000E+00  0.000E+00  4.50734E+01  1.530E-01  2.000E+01  2.000E+04 -4.921E-02
   1   16    9     1     9    1.1026E+05 -9.5885E+02   1.1122E+05  0.000E+00  0.000E+00  0.000E+00  4.45970E+01  1.538E-01  2.000E+01  2.000E+04 -4.794E-02
   1   16   10     1    10    1.1122E+05 -9.1985E+02   1.1214E+05  0.000E+00  0.000E+00  0.000E+00  4.41205E+01  1.546E-01  2.000E+01  2.000E+04 -4.599E-02
   1   16   11     1    11    1.1214E+05 -8.7539E+02   1.1301E+05  0.000E+00  0.000E+00  0.000E+00  4.36439E+01  1.553E-01  2.000E+01  2.000E+04 -4.377E-02
   1   16   12     1    12    1.1301E+05 -1.3396E+03   1.1435E+05  0.000E+00  0.000E+00  0.000E+00  4.31676E+01  1.562E-01  2.000E+01  2.000E+04 -6.698E-02
   1   15   13     1    13    1.1435E+05 -1.2721E+03   1.1563E+05  0.000E+00  0.000E+00  0.000E+00  4.26914E+01  1.573E-01  2.000E+01  2.000E+04 -6.360E-02
   1   14   14     1    14    1.1563E+05 -1.5357E+03   1.1716E+05  0.000E+00  0.000E+00  0.000E+00  4.22153E+01  1.584E-01  2.000E+01  2.000E+04 -7.678E-02
   1   13   15     1    15    1.1716E+05 -1.8614E+03   1.1902E+05  0.000E+00  0.000E+00  0.000E+00  4.17394E+01  1.598E-01  2.000E+01  2.000E+04 -9.307E-02
   1   12   16     1    16    1.1902E+05 -2.5374E+03   1.2156E+05  0.000E+00  0.000E+00  0.000E+00  4.12639E+01  1.616E-01  2.000E+01  2.000E+04 -1.269E-01
   1   12   17     1    17    1.2156E+05 -1.3932E+03   1.2295E+05  0.000E+00  0.000E+00  0.000E+00  4.07882E+01  1.632E-01  2.000E+01  2.000E+04 -6.966E-02
   1   12   18     1    18    1.2295E+05 -1.0302E+03   1.2398E+05  0.000E+00  0.000E+00  0.000E+00  4.03119E+01  1.642E-01  2.000E+01  2.000E+04 -5.151E-02
   1   12   19     1    19    1.2398E+05 -1.1581E+02   1.2410E+05  0.000E+00  0.000E+00  0.000E+00  3.98351E+01  1.646E-01  2.000E+01  2.000E+04 -5.791E-03
   1   13   20     1    20    1.2410E+05  6.6208E+02   1.2344E+05  0.000E+00  0.000E+00  0.000E+00  3.93576E+01  1.644E-01  2.000E+01  2.000E+04  3.310E-02
   1   14   21     1    21    1.2344E+05  5.0419E+02   1.2293E+05  0.000E+00  0.000E+00  0.000E+00  3.88798E+01  1.639E-01  2.000E+01  2.000E+04  2.521E-02
   1   14   22     1    22    1.2293E+05  5.5531E+03   1.1738E+05  0.000E+00  0.000E+00  0.000E+00  3.84001E+01  1.615E-01  2.000E+01  2.000E+04  2.777E-01
   1    9   30     2     1    5.0000E+04  8.2715E+02   4.9173E+04  0.000E+00  0.000E+00  0.000E+00  4.02403E+01  1.153E-01  2.000E+01  2.000E+04  4.136E-02
   1    9   29     2     2    4.9173E+04  1.3081E+03   4.7865E+04  0.000E+00  0.000E+00  0.000E+00  3.99888E+01  1.138E-01  2.000E+01  2.000E+04  6.541E-02
   1    9   28     2     3    4.7865E+04  3.5438E+03   4.4321E+04  0.000E+00  0.000E+00  0.000E+00  3.97353E+01  1.103E-01  2.000E+01  2.000E+04  1.772E-01
   1    9   27     2     4    4.4321E+04 -4.2891E+02   4.4750E+04  0.000E+00  0.000E+00  0.000E+00  3.94831E+01  1.081E-01  2.000E+01  2.000E+04 -2.145E-02
   1   10   26     2     5    4.4750E+04  9.8833E+02   4.3762E+04  0.000E+00  0.000E+00  0.000E+00  3.92327E+01  1.077E-01  2.000E+01  2.000E+04  4.942E-02
   1   11   25     2     6    4.3762E+04  2.3278E+02   4.3529E+04  0.000E+00  0.000E+00  0.000E+00  3.89818E+01  1.068E-01  2.000E+01  2.000E+04  1.164E-02
   1   12   24     2     7    4.3529E+04  1.5237E+02   4.3376E+04  0.000E+00  0.000E+00  0.000E+00  3.87315E+01  1.065E-01  2.000E+01  2.000E+04  7.619E-03
   1   13   23     2     8    4.3376E+04  5.2325E+01   4.3324E+04  0.000E+00  0.000E+00  0.000E+00  3.84814E+01  1.064E-01  2.000E+01  2.000E+04  2.616E-03
   1   14   22     2     9    4.3324E+04  2.1450E+03   4.1179E+04  0.000E+00  0.000E+00  0.000E+00  3.82297E+01  1.047E-01  2.000E+01  2.000E+04  1.072E-01
   1   14   22     3     1    1.5856E+05 -8.1246E+03   1.6668E+05  0.000E+00  0.000E+00  0.000E+00  3.77163E+01  1.607E-01  2.000E+01  2.000E+04 -4.062E-01
   1   15   23     3     2    1.6668E+05 -2.5038E+02   1.6693E+05  0.000E+00  0.000E+00  0.000E+00  3.68298E+01  1.632E-01  2.000E+01  2.000E+04 -1.252E-02
   1   15   24     3     3    1.6693E+05 -1.9302E+02   1.6713E+05  0.000E+00  0.000E+00  0.000E+00  3.59411E+01  1.633E-01  2.000E+01  2.000E+04 -9.651E-03
   1   15   25     3     4    1.6713E+05 -1.9185E+02   1.6732E+05  0.000E+00  0.000E+00  0.000E+00  3.50523E+01  1.634E-01  2.000E+01  2.000E+04 -9.592E-03
   1   15   26     3     5    1.6732E+05 -3.7732E+01   1.6736E+05  0.000E+00  0.000E+00  0.000E+00  3.41635E+01  1.635E-01  2.000E+01  2.000E+04 -1.887E-03
   1   16   27     3     6    1.6736E+05  8.4617E+02   1.6651E+05  0.000E+00  0.000E+00  0.000E+00  3.32744E+01  1.632E-01  2.000E+01  2.000E+04  4.231E-02
   1   17   28     3     7    1.6651E+05  4.6966E+03   1.6181E+05  0.000E+00  0.000E+00  0.000E+00  3.23838E+01  1.616E-01  2.000E+01  2.000E+04  2.348E-01
   1   18   29     3     8    1.6181E+05 -1.4659E+03   1.6328E+05  0.000E+00  0.000E+00  0.000E+00  3.14940E+01  1.607E-01  2.000E+01  2.000E+04 -7.330E-02
   1   18   30     3     9    1.6328E+05 -1.8922E+03   1.6517E+05  0.000E+00  0.000E+00  0.000E+00  3.06061E+01  1.616E-01  2.000E+01  2.000E+04 -9.461E-02



1
              HEAD IN LAYER   1 AT END OF TIME STEP   1 IN STRESS PERIOD    8
  ---------------------------------------------------------------------------

          1      2      3      4      5      6      7      8      9     10
         11     12     13     14     15     16     17     18     19     20
         21     22     23     24     25     26     27     28     29     30
 .........................................................................
   1  ****** ****** ****** ****** ****** ****** ****** ****** ****** ******
      ****** ****** ****** ****** ****** ****** ****** ****** ****** ******
      ****** ****** ****** ****** ****** ****** ****** ****** ****** ******
   2  ****** ****** ****** ****** ****** ****** ****** ****** ****** ******
      ****** ****** ****** ****** ****** ****** ****** ****** ****** ******
      ****** ****** ****** ****** ****** ****** ****** ****** ****** ******
   3  ****** ****** ****** ****** ****** ****** ****** ****** ****** ******
      ****** ****** ****** ****** ****** ****** ****** ****** ****** ******
      ****** ****** ****** ****** ****** ****** ****** ****** ****** ******
   4  ****** ****** ****** ****** ****** ****** ****** ****** ****** ******
      ****** ****** ****** ****** ****** ****** ****** ****** ****** ******
      ****** ****** ****** ****** ****** ****** ****** ****** ****** ******
   5  ****** ****** ****** ****** ****** ****** ****** ****** ****** ******
      ****** ****** ****** ****** ****** ****** ****** ****** ****** ******
      ****** ****** ****** ****** ****** ****** ****** ****** ****** ******
   6  ****** ****** ****** ****** ****** ****** ****** ****** ****** ******
      ****** ****** ****** ****** ****** ****** ****** ****** ****** ******
      ****** ****** ****** ****** ****** ****** ****** ****** ****** ******
   7  ****** ****** ****** ****** ****** ****** ****** ****** ****** ******
      ****** ****** ****** ****** ****** ****** ****** ****** ****** ******
      ****** ****** ****** ****** ****** ****** ****** ****** ****** ******
   8  ****** ****** ****** ****** ****** ****** ****** ****** ****** ******
      ****** ****** ****** ****** ****** ****** ****** ****** ****** ******
      ****** ****** ****** ****** ****** ****** ****** ****** ****** ******
   9  ****** ****** ****** ****** ****** ****** ****** ****** ****** ******
      ****** ****** ****** ****** ****** ****** ****** ****** ****** ******
      ****** ****** ****** ****** ****** ****** ****** ****** ****** ******
  10  ****** ****** ****** ****** ****** ****** ****** ****** ****** ******
      ****** ****** ****** ****** ****** ****** ****** ****** ****** ******
      ****** ****** ****** ****** ****** ****** ****** ****** ****** ******
  11  ****** ****** ****** ****** ****** ****** ****** ****** ****** ******
      ****** ****** ****** ****** ****** ****** ****** ****** ****** ******
      ****** ****** ****** ****** ****** ****** ****** ****** ****** ******
  12  ****** ****** ****** ****** ****** ****** ****** ****** ****** ******
      ****** ****** ****** ****** ****** ****** ****** ****** ****** ******
      ****** ****** ****** ****** ****** ****** ****** ****** ****** ******
  13  ****** ****** ****** ****** ****** ****** ****** ****** ****** ******
      ****** ****** ****** ****** ****** ****** ****** ****** ****** ******
      ****** ****** ****** ****** ****** ****** ****** ****** ****** ******
  14  ****** ****** ****** ****** ****** ****** ****** ****** ****** ******
      ****** ****** ****** ****** ****** ****** ****** ****** ****** ******
      ****** ****** ****** ****** ****** ****** ****** ****** ****** ******
  15  ****** ****** ****** ****** ****** ****** ****** ****** ****** ******
      ****** ****** ****** ****** ****** ****** ****** ****** ****** ******
      ****** ****** ****** ****** ****** ****** ****** ****** ****** ******
  16  ****** ****** ****** ****** ****** ****** ****** ****** ****** ******
      ****** ****** ****** ****** ****** ****** ****** ****** ****** ******
      ****** ****** ****** ****** ****** ****** ****** ****** ****** ******
  17  ****** ****** ****** ****** ****** ****** ****** ****** ****** ******
      ****** ****** ****** ****** ****** ****** ****** ****** ****** ******
      ****** ****** ****** ****** ****** ****** ****** ****** ****** ******
  18  ****** ****** ****** ****** ****** ****** ****** ****** ****** ******
      ****** ****** ****** ****** ****** ****** ****** ****** ****** ******
      ****** ****** ****** ****** ****** ****** ****** ****** ****** ******
  19  ****** ****** ****** ****** ****** ****** ****** ****** ****** ******
      ****** ****** ****** ****** ****** ****** ****** ****** ****** ******
      ****** ****** ****** ****** ****** ****** ****** ****** ****** ******
  20  ****** ****** ****** ****** ****** ****** ****** ****** ****** ******
      ****** ****** ****** ****** ****** ****** ****** ****** ****** ******
      ****** ****** ****** ****** ****** ****** ****** ****** ****** ******
  21  ****** ****** ****** ****** ****** ****** ****** ****** ****** ******
      ****** ****** ****** ****** ****** ****** ****** ****** ****** ******
      ****** ****** ****** ****** ****** ****** ****** ****** ****** ******
  22  ****** ****** ****** ****** ****** ****** ****** ****** ****** ******
      ****** ****** ****** ****** ****** ****** ****** ****** ****** ******
      ****** ****** ****** ****** ****** ****** ****** ****** ****** ******
  23  ****** ****** ****** ****** ****** ****** ****** ****** ****** ******
      ****** ****** ****** ****** ****** ****** ****** ****** ****** ******
      ****** ****** ****** ****** ****** ****** ****** ****** ****** ******
  24  ****** ****** ****** ****** ****** ****** ****** ****** ****** ******
      ****** ****** ****** ****** ****** ****** ****** ****** ****** ******
      ****** ****** ****** ****** ****** ****** ****** ****** ****** ******
  25  ****** ****** ****** ****** ****** ****** ****** ****** ****** ******
      ****** ****** ****** ****** ****** ****** ****** ****** ****** ******
      ****** ****** ****** ****** ****** ****** ****** ****** ****** ******

 HEAD WILL BE SAVED ON UNIT   51 AT END OF TIME STEP    1, STRESS PERIOD    8
1
  VOLUMETRIC BUDGET FOR ENTIRE MODEL AT END OF TIME STEP    1, STRESS PERIOD   8
  ------------------------------------------------------------------------------

     CUMULATIVE VOLUMES      L**3       RATES FOR THIS TIME STEP      L**3/T
     ------------------                 ------------------------

           IN:                                      IN:
           ---                                      ---
             STORAGE =    32719222.6964               STORAGE =        1329.7751
       CONSTANT HEAD =    18587356.0817         CONSTANT HEAD =       31929.6009
               WELLS =           0.0000                 WELLS =           0.0000
            RECHARGE =    17608800.0000              RECHARGE =       27600.0000
      STREAM LEAKAGE =    12409398.5128        STREAM LEAKAGE =       21511.9833

            TOTAL IN =    81324777.2909              TOTAL IN =       82371.3592

          OUT:                                     OUT:
          ----                                     ----
             STORAGE =      968146.5007               STORAGE =        1567.0615
       CONSTANT HEAD =           0.0000         CONSTANT HEAD =           0.0000
               WELLS =    32207711.0249                 WELLS =       44120.1521
            RECHARGE =           0.0000              RECHARGE =           0.0000
      STREAM LEAKAGE =    48148921.5134        STREAM LEAKAGE =       36684.1371

           TOTAL OUT =    81324779.0389             TOTAL OUT =       82371.3507

            IN - OUT =          -1.7481              IN - OUT =       8.4983E-03

 PERCENT DISCREPANCY =          -0.00     PERCENT DISCREPANCY =           0.00






         TIME SUMMARY AT END OF TIME STEP    1 IN STRESS PERIOD    8
                    SECONDS     MINUTES      HOURS       DAYS        YEARS
                    -----------------------------------------------------------
   TIME STEP LENGTH 7.86240E+06 1.31040E+05  2184.0      91.000     0.24914    
 STRESS PERIOD TIME 7.86240E+06 1.31040E+05  2184.0      91.000     0.24914    
         TOTAL TIME 6.30720E+07 1.05120E+06  17520.      730.00      1.9986    
1
1
                            STRESS PERIOD NO.    9, LENGTH =   92.00000    
                            -----------------------------------------------

                              NUMBER OF TIME STEPS =     1

                               MULTIPLIER FOR DELT =     1.500

                            INITIAL TIME STEP SIZE =   92.00000    

 WELL NO.  LAYER   ROW   COL   STRESS RATE         
 --------------------------------------------------
      1      1     11     21     -0.1135E+05
      2      1     18     20      -9351.    
      3      1     16     28     -0.1048E+05
      4      1     10     28     -0.1294E+05

      4 WELLS

                 RECHARGE =  5.000000E-04

 REUSING STREAM SEGMENT DATA FROM LAST STRESS PERIOD
 
 SOLVING FOR HEAD 


     6 CALLS TO PCG ROUTINE FOR TIME STEP   1 IN STRESS PERIOD    9
    23 TOTAL ITERATIONS

 OUTPUT CONTROL FOR STRESS PERIOD    9   TIME STEP    1
    SAVE BUDGET
    SAVE HEAD FOR ALL LAYERS
    PRINT HEAD FOR ALL LAYERS
 UBDSV2 SAVING "STREAMFLOW OUT  " ON UNIT  50 AT TIME STEP  1, STRESS PERIOD   9



 STREAM LISTING     PERIOD      9   STEP        1

 LAYER ROW COL. STREAM  RCH.  FLOW INTO     FLOW TO   FLOW OUT OF   OVRLND.     DIRECT     STREAM       STREAM     STREAM     STREAM   STREAMBED  STREAMBED
                SEG.NO.  NO.  STRM. RCH.    AQUIFER    STRM. RCH.    RUNOFF     PRECIP       ET          HEAD       DEPTH      WIDTH   CONDCTNC.   GRADIENT

   1   13    1     1     1    1.0000E+05 -1.6641E+03   1.0166E+05  0.000E+00  0.000E+00  0.000E+00  4.84067E+01  1.454E-01  2.000E+01  2.000E+04 -8.320E-02
   1   13    2     1     2    1.0166E+05 -2.6097E+03   1.0427E+05  0.000E+00  0.000E+00  0.000E+00  4.79313E+01  1.472E-01  2.000E+01  2.000E+04 -1.305E-01
   1   14    3     1     3    1.0427E+05 -4.0615E+02   1.0468E+05  0.000E+00  0.000E+00  0.000E+00  4.74553E+01  1.485E-01  2.000E+01  2.000E+04 -2.031E-02
   1   15    4     1     4    1.0468E+05 -3.7428E+02   1.0505E+05  0.000E+00  0.000E+00  0.000E+00  4.69784E+01  1.488E-01  2.000E+01  2.000E+04 -1.871E-02
   1   16    5     1     5    1.0505E+05 -1.4166E+03   1.0647E+05  0.000E+00  0.000E+00  0.000E+00  4.65019E+01  1.496E-01  2.000E+01  2.000E+04 -7.083E-02
   1   16    6     1     6    1.0647E+05 -9.0315E+02   1.0737E+05  0.000E+00  0.000E+00  0.000E+00  4.60256E+01  1.506E-01  2.000E+01  2.000E+04 -4.516E-02
   1   16    7     1     7    1.0737E+05 -8.8324E+02   1.0826E+05  0.000E+00  0.000E+00  0.000E+00  4.55491E+01  1.513E-01  2.000E+01  2.000E+04 -4.416E-02
   1   16    8     1     8    1.0826E+05 -8.6972E+02   1.0913E+05  0.000E+00  0.000E+00  0.000E+00  4.50725E+01  1.521E-01  2.000E+01  2.000E+04 -4.349E-02
   1   16    9     1     9    1.0913E+05 -8.4599E+02   1.0997E+05  0.000E+00  0.000E+00  0.000E+00  4.45960E+01  1.528E-01  2.000E+01  2.000E+04 -4.230E-02
   1   16   10     1    10    1.0997E+05 -8.0887E+02   1.1078E+05  0.000E+00  0.000E+00  0.000E+00  4.41194E+01  1.535E-01  2.000E+01  2.000E+04 -4.044E-02
   1   16   11     1    11    1.1078E+05 -7.6524E+02   1.1155E+05  0.000E+00  0.000E+00  0.000E+00  4.36428E+01  1.541E-01  2.000E+01  2.000E+04 -3.826E-02
   1   16   12     1    12    1.1155E+05 -1.1512E+03   1.1270E+05  0.000E+00  0.000E+00  0.000E+00  4.31663E+01  1.549E-01  2.000E+01  2.000E+04 -5.756E-02
   1   15   13     1    13    1.1270E+05 -1.0634E+03   1.1376E+05  0.000E+00  0.000E+00  0.000E+00  4.26899E+01  1.558E-01  2.000E+01  2.000E+04 -5.317E-02
   1   14   14     1    14    1.1376E+05 -1.3142E+03   1.1508E+05  0.000E+00  0.000E+00  0.000E+00  4.22136E+01  1.568E-01  2.000E+01  2.000E+04 -6.571E-02
   1   13   15     1    15    1.1508E+05 -1.6348E+03   1.1671E+05  0.000E+00  0.000E+00  0.000E+00  4.17376E+01  1.580E-01  2.000E+01  2.000E+04 -8.174E-02
   1   12   16     1    16    1.1671E+05 -2.3036E+03   1.1901E+05  0.000E+00  0.000E+00  0.000E+00  4.12619E+01  1.596E-01  2.000E+01  2.000E+04 -1.152E-01
   1   12   17     1    17    1.1901E+05 -1.2320E+03   1.2025E+05  0.000E+00  0.000E+00  0.000E+00  4.07861E+01  1.611E-01  2.000E+01  2.000E+04 -6.160E-02
   1   12   18     1    18    1.2025E+05 -8.7613E+02   1.2112E+05  0.000E+00  0.000E+00  0.000E+00  4.03097E+01  1.619E-01  2.000E+01  2.000E+04 -4.381E-02
   1   12   19     1    19    1.2112E+05  6.9553E+01   1.2105E+05  0.000E+00  0.000E+00  0.000E+00  3.98327E+01  1.622E-01  2.000E+01  2.000E+04  3.478E-03
   1   13   20     1    20    1.2105E+05  8.3528E+02   1.2022E+05  0.000E+00  0.000E+00  0.000E+00  3.93551E+01  1.619E-01  2.000E+01  2.000E+04  4.176E-02
   1   14   21     1    21    1.2022E+05  6.7632E+02   1.1954E+05  0.000E+00  0.000E+00  0.000E+00  3.88772E+01  1.613E-01  2.000E+01  2.000E+04  3.382E-02
   1   14   22     1    22    1.1954E+05  5.5931E+03   1.1395E+05  0.000E+00  0.000E+00  0.000E+00  3.83974E+01  1.587E-01  2.000E+01  2.000E+04  2.797E-01
   1    9   30     2     1    5.0000E+04  9.5010E+02   4.9050E+04  0.000E+00  0.000E+00  0.000E+00  4.02402E+01  1.152E-01  2.000E+01  2.000E+04  4.750E-02
   1    9   29     2     2    4.9050E+04  1.4313E+03   4.7619E+04  0.000E+00  0.000E+00  0.000E+00  3.99885E+01  1.135E-01  2.000E+01  2.000E+04  7.156E-02
   1    9   28     2     3    4.7619E+04  3.6687E+03   4.3950E+04  0.000E+00  0.000E+00  0.000E+00  3.97349E+01  1.099E-01  2.000E+01  2.000E+04  1.834E-01
   1    9   27     2     4    4.3950E+04 -2.5345E+02   4.4203E+04  0.000E+00  0.000E+00  0.000E+00  3.94824E+01  1.074E-01  2.000E+01  2.000E+04 -1.267E-02
   1   10   26     2     5    4.4203E+04  1.1611E+03   4.3042E+04  0.000E+00  0.000E+00  0.000E+00  3.92318E+01  1.068E-01  2.000E+01  2.000E+04  5.805E-02
   1   11   25     2     6    4.3042E+04  3.9807E+02   4.2644E+04  0.000E+00  0.000E+00  0.000E+00  3.89806E+01  1.056E-01  2.000E+01  2.000E+04  1.990E-02
   1   12   24     2     7    4.2644E+04  3.0426E+02   4.2340E+04  0.000E+00  0.000E+00  0.000E+00  3.87301E+01  1.051E-01  2.000E+01  2.000E+04  1.521E-02
   1   13   23     2     8    4.2340E+04  9.9274E+01   4.2241E+04  0.000E+00  0.000E+00  0.000E+00  3.84798E+01  1.048E-01  2.000E+01  2.000E+04  4.964E-03
   1   14   22     2     9    4.2241E+04  2.2070E+03   4.0034E+04  0.000E+00  0.000E+00  0.000E+00  3.82281E+01  1.031E-01  2.000E+01  2.000E+04  1.104E-01
   1   14   22     3     1    1.5398E+05 -8.0841E+03   1.6207E+05  0.000E+00  0.000E+00  0.000E+00  3.77135E+01  1.580E-01  2.000E+01  2.000E+04 -4.042E-01
   1   15   23     3     2    1.6207E+05 -1.9763E+02   1.6226E+05  0.000E+00  0.000E+00  0.000E+00  3.68271E+01  1.604E-01  2.000E+01  2.000E+04 -9.882E-03
   1   15   24     3     3    1.6226E+05 -1.4990E+02   1.6241E+05  0.000E+00  0.000E+00  0.000E+00  3.59383E+01  1.605E-01  2.000E+01  2.000E+04 -7.495E-03
   1   15   25     3     4    1.6241E+05 -1.4848E+02   1.6256E+05  0.000E+00  0.000E+00  0.000E+00  3.50495E+01  1.606E-01  2.000E+01  2.000E+04 -7.424E-03
   1   15   26     3     5    1.6256E+05  9.9186E+00   1.6255E+05  0.000E+00  0.000E+00  0.000E+00  3.41607E+01  1.607E-01  2.000E+01  2.000E+04  4.959E-04
   1   16   27     3     6    1.6255E+05  9.0228E+02   1.6165E+05  0.000E+00  0.000E+00  0.000E+00  3.32715E+01  1.604E-01  2.000E+01  2.000E+04  4.511E-02
   1   17   28     3     7    1.6165E+05  4.8505E+03   1.5680E+05  0.000E+00  0.000E+00  0.000E+00  3.23809E+01  1.587E-01  2.000E+01  2.000E+04  2.425E-01
   1   18   29     3     8    1.5680E+05 -1.2892E+03   1.5809E+05  0.000E+00  0.000E+00  0.000E+00  3.14909E+01  1.576E-01  2.000E+01  2.000E+04 -6.446E-02
   1   18   30     3     9    1.5809E+05 -1.7595E+03   1.5985E+05  0.000E+00  0.000E+00  0.000E+00  3.06030E+01  1.585E-01  2.000E+01  2.000E+04 -8.798E-02



1
              HEAD IN LAYER   1 AT END OF TIME STEP   1 IN STRESS PERIOD    9
  ---------------------------------------------------------------------------

          1      2      3      4      5      6      7      8      9     10
         11     12     13     14     15     16     17     18     19     20
         21     22     23     24     25     26     27     28     29     30
 .........................................................................
   1  ****** ****** ****** ****** ****** ****** ****** ****** ****** ******
      ****** ****** ****** ****** ****** ****** ****** ****** ****** ******
      ****** ****** ****** ****** ****** ****** ****** ****** ****** ******
   2  ****** ****** ****** ****** ****** ****** ****** ****** ****** ******
      ****** ****** ****** ****** ****** ****** ****** ****** ****** ******
      ****** ****** ****** ****** ****** ****** ****** ****** ****** ******
   3  ****** ****** ****** ****** ****** ****** ****** ****** ****** ******
      ****** ****** ****** ****** ****** ****** ****** ****** ****** ******
      ****** ****** ****** ****** ****** ****** ****** ****** ****** ******
   4  ****** ****** ****** ****** ****** ****** ****** ****** ****** ******
      ****** ****** ****** ****** ****** ****** ****** ****** ****** ******
      ****** ****** ****** ****** ****** ****** ****** ****** ****** ******
   5  ****** ****** ****** ****** ****** ****** ****** ****** ****** ******
      ****** ****** ****** ****** ****** ****** ****** ****** ****** ******
      ****** ****** ****** ****** ****** ****** ****** ****** ****** ******
   6  ****** ****** ****** ****** ****** ****** ****** ****** ****** ******
      ****** ****** ****** ****** ****** ****** ****** ****** ****** ******
      ****** ****** ****** ****** ****** ****** ****** ****** ****** ******
   7  ****** ****** ****** ****** ****** ****** ****** ****** ****** ******
      ****** ****** ****** ****** ****** ****** ****** ****** ****** ******
      ****** ****** ****** ****** ****** ****** ****** ****** ****** ******
   8  ****** ****** ****** ****** ****** ****** ****** ****** ****** ******
      ****** ****** ****** ****** ****** ****** ****** ****** ****** ******
      ****** ****** ****** ****** ****** ****** ****** ****** ****** ******
   9  ****** ****** ****** ****** ****** ****** ****** ****** ****** ******
      ****** ****** ****** ****** ****** ****** ****** ****** ****** ******
      ****** ****** ****** ****** ****** ****** ****** ****** ****** ******
  10  ****** ****** ****** ****** ****** ****** ****** ****** ****** ******
      ****** ****** ****** ****** ****** ****** ****** ****** ****** ******
      ****** ****** ****** ****** ****** ****** ****** ****** ****** ******
  11  ****** ****** ****** ****** ****** ****** ****** ****** ****** ******
      ****** ****** ****** ****** ****** ****** ****** ****** ****** ******
      ****** ****** ****** ****** ****** ****** ****** ****** ****** ******
  12  ****** ****** ****** ****** ****** ****** ****** ****** ****** ******
      ****** ****** ****** ****** ****** ****** ****** ****** ****** ******
      ****** ****** ****** ****** ****** ****** ****** ****** ****** ******
  13  ****** ****** ****** ****** ****** ****** ****** ****** ****** ******
      ****** ****** ****** ****** ****** ****** ****** ****** ****** ******
      ****** ****** ****** ****** ****** ****** ****** ****** ****** ******
  14  ****** ****** ****** ****** ****** ****** ****** ****** ****** ******
      ****** ****** ****** ****** ****** ****** ****** ****** ****** ******
      ****** ****** ****** ****** ****** ****** ****** ****** ****** ******
  15  ****** ****** ****** ****** ****** ****** ****** ****** ****** ******
      ****** ****** ****** ****** ****** ****** ****** ****** ****** ******
      ****** ****** ****** ****** ****** ****** ****** ****** ****** ******
  16  ****** ****** ****** ****** ****** ****** ****** ****** ****** ******
      ****** ****** ****** ****** ****** ****** ****** ****** ****** ******
      ****** ****** ****** ****** ****** ****** ****** ****** ****** ******
  17  ****** ****** ****** ****** ****** ****** ****** ****** ****** ******
      ****** ****** ****** ****** ****** ****** ****** ****** ****** ******
      ****** ****** ****** ****** ****** ****** ****** ****** ****** ******
  18  ****** ****** ****** ****** ****** ****** ****** ****** ****** ******
      ****** ****** ****** ****** ****** ****** ****** ****** ****** ******
      ****** ****** ****** ****** ****** ****** ****** ****** ****** ******
  19  ****** ****** ****** ****** ****** ****** ****** ****** ****** ******
      ****** ****** ****** ****** ****** ****** ****** ****** ****** ******
      ****** ****** ****** ****** ****** ****** ****** ****** ****** ******
  20  ****** ****** ****** ****** ****** ****** ****** ****** ****** ******
      ****** ****** ****** ****** ****** ****** ****** ****** ****** ******
      ****** ****** ****** ****** ****** ****** ****** ****** ****** ******
  21  ****** ****** ****** ****** ****** ****** ****** ****** ****** ******
      ****** ****** ****** ****** ****** ****** ****** ****** ****** ******
      ****** ****** ****** ****** ****** ****** ****** ****** ****** ******
  22  ****** ****** ****** ****** ****** ****** ****** ****** ****** ******
      ****** ****** ****** ****** ****** ****** ****** ****** ****** ******
      ****** ****** ****** ****** ****** ****** ****** ****** ****** ******
  23  ****** ****** ****** ****** ****** ****** ****** ****** ****** ******
      ****** ****** ****** ****** ****** ****** ****** ****** ****** ******
      ****** ****** ****** ****** ****** ****** ****** ****** ****** ******
  24  ****** ****** ****** ****** ****** ****** ****** ****** ****** ******
      ****** ****** ****** ****** ****** ****** ****** ****** ****** ******
      ****** ****** ****** ****** ****** ****** ****** ****** ****** ******
  25  ****** ****** ****** ****** ****** ****** ****** ****** ****** ******
      ****** ****** ****** ****** ****** ****** ****** ****** ****** ******
      ****** ****** ****** ****** ****** ****** ****** ****** ****** ******

 HEAD WILL BE SAVED ON UNIT   51 AT END OF TIME STEP    1, STRESS PERIOD    9
1
  VOLUMETRIC BUDGET FOR ENTIRE MODEL AT END OF TIME STEP    1, STRESS PERIOD   9
  ------------------------------------------------------------------------------

     CUMULATIVE VOLUMES      L**3       RATES FOR THIS TIME STEP      L**3/T
     ------------------                 ------------------------

           IN:                                      IN:
           ---                                      ---
             STORAGE =    33371037.8415               STORAGE =        7084.9472
       CONSTANT HEAD =    21631006.0386         CONSTANT HEAD =       33083.1517
               WELLS =           0.0000                 WELLS =           0.0000
            RECHARGE =    18878400.0000              RECHARGE =       13800.0000
      STREAM LEAKAGE =    14539816.0524        STREAM LEAKAGE =       23156.7124

            TOTAL IN =    88420259.9326              TOTAL IN =       77124.8113

          OUT:                                     OUT:
          ----                                     ----
             STORAGE =      968146.5007               STORAGE =           0.0000
       CONSTANT HEAD =           0.0000         CONSTANT HEAD =           0.0000
               WELLS =    36266765.0171                 WELLS =       44120.1521
            RECHARGE =           0.0000              RECHARGE =           0.0000
      STREAM LEAKAGE =    51185350.2321        STREAM LEAKAGE =       33004.6600

           TOTAL OUT =    88420261.7499             TOTAL OUT =       77124.8121

            IN - OUT =          -1.8173              IN - OUT =      -7.5218E-04

 PERCENT DISCREPANCY =          -0.00     PERCENT DISCREPANCY =          -0.00






         TIME SUMMARY AT END OF TIME STEP    1 IN STRESS PERIOD    9
                    SECONDS     MINUTES      HOURS       DAYS        YEARS
                    -----------------------------------------------------------
   TIME STEP LENGTH 7.94880E+06 1.32480E+05  2208.0      92.000     0.25188    
 STRESS PERIOD TIME 7.94880E+06 1.32480E+05  2208.0      92.000     0.25188    
         TOTAL TIME 7.10208E+07 1.18368E+06  19728.      822.00      2.2505    
1
1
                            STRESS PERIOD NO.   10, LENGTH =   91.00000    
                            -----------------------------------------------

                              NUMBER OF TIME STEPS =     1

                               MULTIPLIER FOR DELT =     1.500

                            INITIAL TIME STEP SIZE =   91.00000    

 WELL NO.  LAYER   ROW   COL   STRESS RATE         
 --------------------------------------------------
      1      1     11     21     -0.1135E+05
      2      1     18     20      -9351.    
      3      1     16     28     -0.1048E+05
      4      1     10     28     -0.1294E+05

      4 WELLS

                 RECHARGE =  2.000000E-03

 REUSING STREAM SEGMENT DATA FROM LAST STRESS PERIOD
 
 SOLVING FOR HEAD 


     7 CALLS TO PCG ROUTINE FOR TIME STEP   1 IN STRESS PERIOD   10
    26 TOTAL ITERATIONS

 OUTPUT CONTROL FOR STRESS PERIOD   10   TIME STEP    1
    SAVE BUDGET
    SAVE HEAD FOR ALL LAYERS
    PRINT HEAD FOR ALL LAYERS
 UBDSV2 SAVING "STREAMFLOW OUT  " ON UNIT  50 AT TIME STEP  1, STRESS PERIOD  10



 STREAM LISTING     PERIOD     10   STEP        1

 LAYER ROW COL. STREAM  RCH.  FLOW INTO     FLOW TO   FLOW OUT OF   OVRLND.     DIRECT     STREAM       STREAM     STREAM     STREAM   STREAMBED  STREAMBED
                SEG.NO.  NO.  STRM. RCH.    AQUIFER    STRM. RCH.    RUNOFF     PRECIP       ET          HEAD       DEPTH      WIDTH   CONDCTNC.   GRADIENT

   1   13    1     1     1    1.0000E+05 -2.1192E+03   1.0212E+05  0.000E+00  0.000E+00  0.000E+00  4.84069E+01  1.456E-01  2.000E+01  2.000E+04 -1.060E-01
   1   13    2     1     2    1.0212E+05 -3.1143E+03   1.0523E+05  0.000E+00  0.000E+00  0.000E+00  4.79319E+01  1.478E-01  2.000E+01  2.000E+04 -1.557E-01
   1   14    3     1     3    1.0523E+05 -5.9314E+02   1.0583E+05  0.000E+00  0.000E+00  0.000E+00  4.74562E+01  1.494E-01  2.000E+01  2.000E+04 -2.966E-02
   1   15    4     1     4    1.0583E+05 -5.7407E+02   1.0640E+05  0.000E+00  0.000E+00  0.000E+00  4.69794E+01  1.499E-01  2.000E+01  2.000E+04 -2.870E-02
   1   16    5     1     5    1.0640E+05 -2.0358E+03   1.0844E+05  0.000E+00  0.000E+00  0.000E+00  4.65033E+01  1.510E-01  2.000E+01  2.000E+04 -1.018E-01
   1   16    6     1     6    1.0844E+05 -1.2657E+03   1.0970E+05  0.000E+00  0.000E+00  0.000E+00  4.60274E+01  1.524E-01  2.000E+01  2.000E+04 -6.328E-02
   1   16    7     1     7    1.0970E+05 -1.2280E+03   1.1093E+05  0.000E+00  0.000E+00  0.000E+00  4.55512E+01  1.534E-01  2.000E+01  2.000E+04 -6.140E-02
   1   16    8     1     8    1.1093E+05 -1.2090E+03   1.1214E+05  0.000E+00  0.000E+00  0.000E+00  4.50749E+01  1.544E-01  2.000E+01  2.000E+04 -6.045E-02
   1   16    9     1     9    1.1214E+05 -1.1837E+03   1.1332E+05  0.000E+00  0.000E+00  0.000E+00  4.45986E+01  1.554E-01  2.000E+01  2.000E+04 -5.918E-02
   1   16   10     1    10    1.1332E+05 -1.1466E+03   1.1447E+05  0.000E+00  0.000E+00  0.000E+00  4.41223E+01  1.564E-01  2.000E+01  2.000E+04 -5.733E-02
   1   16   11     1    11    1.1447E+05 -1.1063E+03   1.1558E+05  0.000E+00  0.000E+00  0.000E+00  4.36460E+01  1.573E-01  2.000E+01  2.000E+04 -5.532E-02
   1   16   12     1    12    1.1558E+05 -1.7207E+03   1.1730E+05  0.000E+00  0.000E+00  0.000E+00  4.31698E+01  1.585E-01  2.000E+01  2.000E+04 -8.604E-02
   1   15   13     1    13    1.1730E+05 -1.6506E+03   1.1895E+05  0.000E+00  0.000E+00  0.000E+00  4.26939E+01  1.599E-01  2.000E+01  2.000E+04 -8.253E-02
   1   14   14     1    14    1.1895E+05 -1.9092E+03   1.2086E+05  0.000E+00  0.000E+00  0.000E+00  4.22181E+01  1.613E-01  2.000E+01  2.000E+04 -9.546E-02
   1   13   15     1    15    1.2086E+05 -2.2201E+03   1.2308E+05  0.000E+00  0.000E+00  0.000E+00  4.17425E+01  1.630E-01  2.000E+01  2.000E+04 -1.110E-01
   1   12   16     1    16    1.2308E+05 -2.8683E+03   1.2594E+05  0.000E+00  0.000E+00  0.000E+00  4.12673E+01  1.650E-01  2.000E+01  2.000E+04 -1.434E-01
   1   12   17     1    17    1.2594E+05 -1.6589E+03   1.2760E+05  0.000E+00  0.000E+00  0.000E+00  4.07918E+01  1.668E-01  2.000E+01  2.000E+04 -8.295E-02
   1   12   18     1    18    1.2760E+05 -1.2986E+03   1.2890E+05  0.000E+00  0.000E+00  0.000E+00  4.03157E+01  1.679E-01  2.000E+01  2.000E+04 -6.493E-02
   1   12   19     1    19    1.2890E+05 -4.5041E+02   1.2935E+05  0.000E+00  0.000E+00  0.000E+00  3.98391E+01  1.686E-01  2.000E+01  2.000E+04 -2.252E-02
   1   13   20     1    20    1.2935E+05  3.1353E+02   1.2904E+05  0.000E+00  0.000E+00  0.000E+00  3.93619E+01  1.687E-01  2.000E+01  2.000E+04  1.568E-02
   1   14   21     1    21    1.2904E+05  1.5130E+02   1.2889E+05  0.000E+00  0.000E+00  0.000E+00  3.88844E+01  1.685E-01  2.000E+01  2.000E+04  7.565E-03
   1   14   22     1    22    1.2889E+05  5.4614E+03   1.2343E+05  0.000E+00  0.000E+00  0.000E+00  3.84049E+01  1.663E-01  2.000E+01  2.000E+04  2.731E-01
   1    9   30     2     1    5.0000E+04  5.3553E+02   4.9464E+04  0.000E+00  0.000E+00  0.000E+00  4.02405E+01  1.155E-01  2.000E+01  2.000E+04  2.678E-02
   1    9   29     2     2    4.9464E+04  1.0190E+03   4.8446E+04  0.000E+00  0.000E+00  0.000E+00  3.99894E+01  1.144E-01  2.000E+01  2.000E+04  5.095E-02
   1    9   28     2     3    4.8446E+04  3.2572E+03   4.5188E+04  0.000E+00  0.000E+00  0.000E+00  3.97364E+01  1.114E-01  2.000E+01  2.000E+04  1.629E-01
   1    9   27     2     4    4.5188E+04 -8.0716E+02   4.5995E+04  0.000E+00  0.000E+00  0.000E+00  3.94846E+01  1.096E-01  2.000E+01  2.000E+04 -4.036E-02
   1   10   26     2     5    4.5995E+04  6.0750E+02   4.5388E+04  0.000E+00  0.000E+00  0.000E+00  3.92348E+01  1.098E-01  2.000E+01  2.000E+04  3.038E-02
   1   11   25     2     6    4.5388E+04 -1.3089E+02   4.5519E+04  0.000E+00  0.000E+00  0.000E+00  3.89844E+01  1.094E-01  2.000E+01  2.000E+04 -6.544E-03
   1   12   24     2     7    4.5519E+04 -1.7445E+02   4.5693E+04  0.000E+00  0.000E+00  0.000E+00  3.87346E+01  1.096E-01  2.000E+01  2.000E+04 -8.722E-03
   1   13   23     2     8    4.5693E+04 -4.9449E+01   4.5743E+04  0.000E+00  0.000E+00  0.000E+00  3.84848E+01  1.098E-01  2.000E+01  2.000E+04 -2.472E-03
   1   14   22     2     9    4.5743E+04  2.0303E+03   4.3712E+04  0.000E+00  0.000E+00  0.000E+00  3.82334E+01  1.084E-01  2.000E+01  2.000E+04  1.015E-01
   1   14   22     3     1    1.6714E+05 -8.2109E+03   1.7535E+05  0.000E+00  0.000E+00  0.000E+00  3.77213E+01  1.658E-01  2.000E+01  2.000E+04 -4.105E-01
   1   15   23     3     2    1.7535E+05 -3.6006E+02   1.7571E+05  0.000E+00  0.000E+00  0.000E+00  3.68349E+01  1.682E-01  2.000E+01  2.000E+04 -1.800E-02
   1   15   24     3     3    1.7571E+05 -2.8701E+02   1.7600E+05  0.000E+00  0.000E+00  0.000E+00  3.59462E+01  1.684E-01  2.000E+01  2.000E+04 -1.435E-02
   1   15   25     3     4    1.7600E+05 -2.8901E+02   1.7629E+05  0.000E+00  0.000E+00  0.000E+00  3.50575E+01  1.686E-01  2.000E+01  2.000E+04 -1.445E-02
   1   15   26     3     5    1.7629E+05 -1.5228E+02   1.7644E+05  0.000E+00  0.000E+00  0.000E+00  3.41687E+01  1.687E-01  2.000E+01  2.000E+04 -7.614E-03
   1   16   27     3     6    1.7644E+05  7.1649E+02   1.7572E+05  0.000E+00  0.000E+00  0.000E+00  3.32797E+01  1.685E-01  2.000E+01  2.000E+04  3.582E-02
   1   17   28     3     7    1.7572E+05  4.3301E+03   1.7139E+05  0.000E+00  0.000E+00  0.000E+00  3.23893E+01  1.671E-01  2.000E+01  2.000E+04  2.165E-01
   1   18   29     3     8    1.7139E+05 -1.8400E+03   1.7323E+05  0.000E+00  0.000E+00  0.000E+00  3.14997E+01  1.664E-01  2.000E+01  2.000E+04 -9.200E-02
   1   18   30     3     9    1.7323E+05 -2.1845E+03   1.7542E+05  0.000E+00  0.000E+00  0.000E+00  3.06120E+01  1.675E-01  2.000E+01  2.000E+04 -1.092E-01



1
              HEAD IN LAYER   1 AT END OF TIME STEP   1 IN STRESS PERIOD   10
  ---------------------------------------------------------------------------

          1      2      3      4      5      6      7      8      9     10
         11     12     13     14     15     16     17     18     19     20
         21     22     23     24     25     26     27     28     29     30
 .........................................................................
   1  ****** ****** ****** ****** ****** ****** ****** ****** ****** ******
      ****** ****** ****** ****** ****** ****** ****** ****** ****** ******
      ****** ****** ****** ****** ****** ****** ****** ****** ****** ******
   2  ****** ****** ****** ****** ****** ****** ****** ****** ****** ******
      ****** ****** ****** ****** ****** ****** ****** ****** ****** ******
      ****** ****** ****** ****** ****** ****** ****** ****** ****** ******
   3  ****** ****** ****** ****** ****** ****** ****** ****** ****** ******
      ****** ****** ****** ****** ****** ****** ****** ****** ****** ******
      ****** ****** ****** ****** ****** ****** ****** ****** ****** ******
   4  ****** ****** ****** ****** ****** ****** ****** ****** ****** ******
      ****** ****** ****** ****** ****** ****** ****** ****** ****** ******
      ****** ****** ****** ****** ****** ****** ****** ****** ****** ******
   5  ****** ****** ****** ****** ****** ****** ****** ****** ****** ******
      ****** ****** ****** ****** ****** ****** ****** ****** ****** ******
      ****** ****** ****** ****** ****** ****** ****** ****** ****** ******
   6  ****** ****** ****** ****** ****** ****** ****** ****** ****** ******
      ****** ****** ****** ****** ****** ****** ****** ****** ****** ******
      ****** ****** ****** ****** ****** ****** ****** ****** ****** ******
   7  ****** ****** ****** ****** ****** ****** ****** ****** ****** ******
      ****** ****** ****** ****** ****** ****** ****** ****** ****** ******
      ****** ****** ****** ****** ****** ****** ****** ****** ****** ******
   8  ****** ****** ****** ****** ****** ****** ****** ****** ****** ******
      ****** ****** ****** ****** ****** ****** ****** ****** ****** ******
      ****** ****** ****** ****** ****** ****** ****** ****** ****** ******
   9  ****** ****** ****** ****** ****** ****** ****** ****** ****** ******
      ****** ****** ****** ****** ****** ****** ****** ****** ****** ******
      ****** ****** ****** ****** ****** ****** ****** ****** ****** ******
  10  ****** ****** ****** ****** ****** ****** ****** ****** ****** ******
      ****** ****** ****** ****** ****** ****** ****** ****** ****** ******
      ****** ****** ****** ****** ****** ****** ****** ****** ****** ******
  11  ****** ****** ****** ****** ****** ****** ****** ****** ****** ******
      ****** ****** ****** ****** ****** ****** ****** ****** ****** ******
      ****** ****** ****** ****** ****** ****** ****** ****** ****** ******
  12  ****** ****** ****** ****** ****** ****** ****** ****** ****** ******
      ****** ****** ****** ****** ****** ****** ****** ****** ****** ******
      ****** ****** ****** ****** ****** ****** ****** ****** ****** ******
  13  ****** ****** ****** ****** ****** ****** ****** ****** ****** ******
      ****** ****** ****** ****** ****** ****** ****** ****** ****** ******
      ****** ****** ****** ****** ****** ****** ****** ****** ****** ******
  14  ****** ****** ****** ****** ****** ****** ****** ****** ****** ******
      ****** ****** ****** ****** ****** ****** ****** ****** ****** ******
      ****** ****** ****** ****** ****** ****** ****** ****** ****** ******
  15  ****** ****** ****** ****** ****** ****** ****** ****** ****** ******
      ****** ****** ****** ****** ****** ****** ****** ****** ****** ******
      ****** ****** ****** ****** ****** ****** ****** ****** ****** ******
  16  ****** ****** ****** ****** ****** ****** ****** ****** ****** ******
      ****** ****** ****** ****** ****** ****** ****** ****** ****** ******
      ****** ****** ****** ****** ****** ****** ****** ****** ****** ******
  17  ****** ****** ****** ****** ****** ****** ****** ****** ****** ******
      ****** ****** ****** ****** ****** ****** ****** ****** ****** ******
      ****** ****** ****** ****** ****** ****** ****** ****** ****** ******
  18  ****** ****** ****** ****** ****** ****** ****** ****** ****** ******
      ****** ****** ****** ****** ****** ****** ****** ****** ****** ******
      ****** ****** ****** ****** ****** ****** ****** ****** ****** ******
  19  ****** ****** ****** ****** ****** ****** ****** ****** ****** ******
      ****** ****** ****** ****** ****** ****** ****** ****** ****** ******
      ****** ****** ****** ****** ****** ****** ****** ****** ****** ******
  20  ****** ****** ****** ****** ****** ****** ****** ****** ****** ******
      ****** ****** ****** ****** ****** ****** ****** ****** ****** ******
      ****** ****** ****** ****** ****** ****** ****** ****** ****** ******
  21  ****** ****** ****** ****** ****** ****** ****** ****** ****** ******
      ****** ****** ****** ****** ****** ****** ****** ****** ****** ******
      ****** ****** ****** ****** ****** ****** ****** ****** ****** ******
  22  ****** ****** ****** ****** ****** ****** ****** ****** ****** ******
      ****** ****** ****** ****** ****** ****** ****** ****** ****** ******
      ****** ****** ****** ****** ****** ****** ****** ****** ****** ******
  23  ****** ****** ****** ****** ****** ****** ****** ****** ****** ******
      ****** ****** ****** ****** ****** ****** ****** ****** ****** ******
      ****** ****** ****** ****** ****** ****** ****** ****** ****** ******
  24  ****** ****** ****** ****** ****** ****** ****** ****** ****** ******
      ****** ****** ****** ****** ****** ****** ****** ****** ****** ******
      ****** ****** ****** ****** ****** ****** ****** ****** ****** ******
  25  ****** ****** ****** ****** ****** ****** ****** ****** ****** ******
      ****** ****** ****** ****** ****** ****** ****** ****** ****** ******
      ****** ****** ****** ****** ****** ****** ****** ****** ****** ******

 HEAD WILL BE SAVED ON UNIT   51 AT END OF TIME STEP    1, STRESS PERIOD   10
1
  VOLUMETRIC BUDGET FOR ENTIRE MODEL AT END OF TIME STEP    1, STRESS PERIOD  10
  ------------------------------------------------------------------------------

     CUMULATIVE VOLUMES      L**3       RATES FOR THIS TIME STEP      L**3/T
     ------------------                 ------------------------

           IN:                                      IN:
           ---                                      ---
             STORAGE =    33371037.8415               STORAGE =           0.0000
       CONSTANT HEAD =    24371932.2865         CONSTANT HEAD =       30120.0687
               WELLS =           0.0000                 WELLS =           0.0000
            RECHARGE =    23901600.0000              RECHARGE =       55200.0000
      STREAM LEAKAGE =    16216249.4981        STREAM LEAKAGE =       18422.3456

            TOTAL IN =    97860819.6261              TOTAL IN =      103742.4142

          OUT:                                     OUT:
          ----                                     ----
             STORAGE =     2404469.5404               STORAGE =       15783.7697
       CONSTANT HEAD =           0.0000         CONSTANT HEAD =           0.0000
               WELLS =    40281698.8571                 WELLS =       44120.1521
            RECHARGE =           0.0000              RECHARGE =           0.0000
      STREAM LEAKAGE =    55174652.7689        STREAM LEAKAGE =       43838.4894

           TOTAL OUT =    97860821.1664             TOTAL OUT =      103742.4112

            IN - OUT =          -1.5404              IN - OUT =       3.0429E-03

 PERCENT DISCREPANCY =          -0.00     PERCENT DISCREPANCY =           0.00






         TIME SUMMARY AT END OF TIME STEP    1 IN STRESS PERIOD   10
                    SECONDS     MINUTES      HOURS       DAYS        YEARS
                    -----------------------------------------------------------
   TIME STEP LENGTH 7.86240E+06 1.31040E+05  2184.0      91.000     0.24914    
 STRESS PERIOD TIME 7.86240E+06 1.31040E+05  2184.0      91.000     0.24914    
         TOTAL TIME 7.88832E+07 1.31472E+06  21912.      913.00      2.4997    
1
1
                            STRESS PERIOD NO.   11, LENGTH =   91.00000    
                            -----------------------------------------------

                              NUMBER OF TIME STEPS =     1

                               MULTIPLIER FOR DELT =     1.500

                            INITIAL TIME STEP SIZE =   91.00000    

 WELL NO.  LAYER   ROW   COL   STRESS RATE         
 --------------------------------------------------
      1      1     11     21     -0.1135E+05
      2      1     18     20      -9351.    
      3      1     16     28     -0.1048E+05
      4      1     10     28     -0.1294E+05

      4 WELLS

                 RECHARGE =   0.00000    

 REUSING STREAM SEGMENT DATA FROM LAST STRESS PERIOD
 
 SOLVING FOR HEAD 


     7 CALLS TO PCG ROUTINE FOR TIME STEP   1 IN STRESS PERIOD   11
    26 TOTAL ITERATIONS

 OUTPUT CONTROL FOR STRESS PERIOD   11   TIME STEP    1
    SAVE BUDGET
    SAVE HEAD FOR ALL LAYERS
    PRINT HEAD FOR ALL LAYERS
 UBDSV2 SAVING "STREAMFLOW OUT  " ON UNIT  50 AT TIME STEP  1, STRESS PERIOD  11



 STREAM LISTING     PERIOD     11   STEP        1

 LAYER ROW COL. STREAM  RCH.  FLOW INTO     FLOW TO   FLOW OUT OF   OVRLND.     DIRECT     STREAM       STREAM     STREAM     STREAM   STREAMBED  STREAMBED
                SEG.NO.  NO.  STRM. RCH.    AQUIFER    STRM. RCH.    RUNOFF     PRECIP       ET          HEAD       DEPTH      WIDTH   CONDCTNC.   GRADIENT

   1   13    1     1     1    1.0000E+05 -1.5535E+03   1.0155E+05  0.000E+00  0.000E+00  0.000E+00  4.84067E+01  1.453E-01  2.000E+01  2.000E+04 -7.767E-02
   1   13    2     1     2    1.0155E+05 -2.4845E+03   1.0404E+05  0.000E+00  0.000E+00  0.000E+00  4.79312E+01  1.471E-01  2.000E+01  2.000E+04 -1.242E-01
   1   14    3     1     3    1.0404E+05 -3.6260E+02   1.0440E+05  0.000E+00  0.000E+00  0.000E+00  4.74551E+01  1.483E-01  2.000E+01  2.000E+04 -1.813E-02
   1   15    4     1     4    1.0440E+05 -3.3245E+02   1.0473E+05  0.000E+00  0.000E+00  0.000E+00  4.69781E+01  1.486E-01  2.000E+01  2.000E+04 -1.662E-02
   1   16    5     1     5    1.0473E+05 -1.3481E+03   1.0608E+05  0.000E+00  0.000E+00  0.000E+00  4.65016E+01  1.493E-01  2.000E+01  2.000E+04 -6.741E-02
   1   16    6     1     6    1.0608E+05 -8.5160E+02   1.0693E+05  0.000E+00  0.000E+00  0.000E+00  4.60252E+01  1.502E-01  2.000E+01  2.000E+04 -4.258E-02
   1   16    7     1     7    1.0693E+05 -8.3155E+02   1.0776E+05  0.000E+00  0.000E+00  0.000E+00  4.55487E+01  1.509E-01  2.000E+01  2.000E+04 -4.158E-02
   1   16    8     1     8    1.0776E+05 -8.1807E+02   1.0858E+05  0.000E+00  0.000E+00  0.000E+00  4.50721E+01  1.516E-01  2.000E+01  2.000E+04 -4.090E-02
   1   16    9     1     9    1.0858E+05 -7.9494E+02   1.0938E+05  0.000E+00  0.000E+00  0.000E+00  4.45955E+01  1.523E-01  2.000E+01  2.000E+04 -3.975E-02
   1   16   10     1    10    1.0938E+05 -7.5891E+02   1.1014E+05  0.000E+00  0.000E+00  0.000E+00  4.41189E+01  1.530E-01  2.000E+01  2.000E+04 -3.795E-02
   1   16   11     1    11    1.1014E+05 -7.1672E+02   1.1085E+05  0.000E+00  0.000E+00  0.000E+00  4.36422E+01  1.536E-01  2.000E+01  2.000E+04 -3.584E-02
   1   16   12     1    12    1.1085E+05 -1.0752E+03   1.1193E+05  0.000E+00  0.000E+00  0.000E+00  4.31657E+01  1.543E-01  2.000E+01  2.000E+04 -5.376E-02
   1   15   13     1    13    1.1193E+05 -9.6275E+02   1.1289E+05  0.000E+00  0.000E+00  0.000E+00  4.26893E+01  1.552E-01  2.000E+01  2.000E+04 -4.814E-02
   1   14   14     1    14    1.1289E+05 -1.2039E+03   1.1409E+05  0.000E+00  0.000E+00  0.000E+00  4.22129E+01  1.561E-01  2.000E+01  2.000E+04 -6.020E-02
   1   13   15     1    15    1.1409E+05 -1.5207E+03   1.1562E+05  0.000E+00  0.000E+00  0.000E+00  4.17367E+01  1.572E-01  2.000E+01  2.000E+04 -7.604E-02
   1   12   16     1    16    1.1562E+05 -2.1929E+03   1.1781E+05  0.000E+00  0.000E+00  0.000E+00  4.12610E+01  1.587E-01  2.000E+01  2.000E+04 -1.096E-01
   1   12   17     1    17    1.1781E+05 -1.1531E+03   1.1896E+05  0.000E+00  0.000E+00  0.000E+00  4.07851E+01  1.601E-01  2.000E+01  2.000E+04 -5.765E-02
   1   12   18     1    18    1.1896E+05 -8.0032E+02   1.1976E+05  0.000E+00  0.000E+00  0.000E+00  4.03086E+01  1.609E-01  2.000E+01  2.000E+04 -4.002E-02
   1   12   19     1    19    1.1976E+05  1.6137E+02   1.1960E+05  0.000E+00  0.000E+00  0.000E+00  3.98316E+01  1.611E-01  2.000E+01  2.000E+04  8.069E-03
   1   13   20     1    20    1.1960E+05  9.2559E+02   1.1867E+05  0.000E+00  0.000E+00  0.000E+00  3.93539E+01  1.607E-01  2.000E+01  2.000E+04  4.628E-02
   1   14   21     1    21    1.1867E+05  7.4841E+02   1.1793E+05  0.000E+00  0.000E+00  0.000E+00  3.88759E+01  1.600E-01  2.000E+01  2.000E+04  3.742E-02
   1   14   22     1    22    1.1793E+05  5.6137E+03   1.1231E+05  0.000E+00  0.000E+00  0.000E+00  3.83960E+01  1.574E-01  2.000E+01  2.000E+04  2.807E-01
   1    9   30     2     1    5.0000E+04  1.0234E+03   4.8977E+04  0.000E+00  0.000E+00  0.000E+00  4.02402E+01  1.152E-01  2.000E+01  2.000E+04  5.117E-02
   1    9   29     2     2    4.8977E+04  1.5038E+03   4.7473E+04  0.000E+00  0.000E+00  0.000E+00  3.99884E+01  1.134E-01  2.000E+01  2.000E+04  7.519E-02
   1    9   28     2     3    4.7473E+04  3.7397E+03   4.3733E+04  0.000E+00  0.000E+00  0.000E+00  3.97346E+01  1.096E-01  2.000E+01  2.000E+04  1.870E-01
   1    9   27     2     4    4.3733E+04 -1.6813E+02   4.3901E+04  0.000E+00  0.000E+00  0.000E+00  3.94820E+01  1.070E-01  2.000E+01  2.000E+04 -8.407E-03
   1   10   26     2     5    4.3901E+04  1.2610E+03   4.2640E+04  0.000E+00  0.000E+00  0.000E+00  3.92312E+01  1.062E-01  2.000E+01  2.000E+04  6.305E-02
   1   11   25     2     6    4.2640E+04  4.9877E+02   4.2141E+04  0.000E+00  0.000E+00  0.000E+00  3.89799E+01  1.049E-01  2.000E+01  2.000E+04  2.494E-02
   1   12   24     2     7    4.2141E+04  3.9812E+02   4.1743E+04  0.000E+00  0.000E+00  0.000E+00  3.87293E+01  1.043E-01  2.000E+01  2.000E+04  1.991E-02
   1   13   23     2     8    4.1743E+04  1.3623E+02   4.1607E+04  0.000E+00  0.000E+00  0.000E+00  3.84789E+01  1.039E-01  2.000E+01  2.000E+04  6.811E-03
   1   14   22     2     9    4.1607E+04  2.2347E+03   3.9372E+04  0.000E+00  0.000E+00  0.000E+00  3.82271E+01  1.021E-01  2.000E+01  2.000E+04  1.117E-01
   1   14   22     3     1    1.5169E+05 -8.0646E+03   1.5975E+05  0.000E+00  0.000E+00  0.000E+00  3.77121E+01  1.566E-01  2.000E+01  2.000E+04 -4.032E-01
   1   15   23     3     2    1.5975E+05 -1.6800E+02   1.5992E+05  0.000E+00  0.000E+00  0.000E+00  3.68257E+01  1.590E-01  2.000E+01  2.000E+04 -8.400E-03
   1   15   24     3     3    1.5992E+05 -1.2188E+02   1.6004E+05  0.000E+00  0.000E+00  0.000E+00  3.59369E+01  1.591E-01  2.000E+01  2.000E+04 -6.094E-03
   1   15   25     3     4    1.6004E+05 -1.2005E+02   1.6016E+05  0.000E+00  0.000E+00  0.000E+00  3.50481E+01  1.592E-01  2.000E+01  2.000E+04 -6.002E-03
   1   15   26     3     5    1.6016E+05  4.3402E+01   1.6012E+05  0.000E+00  0.000E+00  0.000E+00  3.41592E+01  1.592E-01  2.000E+01  2.000E+04  2.170E-03
   1   16   27     3     6    1.6012E+05  9.3950E+02   1.5918E+05  0.000E+00  0.000E+00  0.000E+00  3.32700E+01  1.589E-01  2.000E+01  2.000E+04  4.698E-02
   1   17   28     3     7    1.5918E+05  4.9398E+03   1.5424E+05  0.000E+00  0.000E+00  0.000E+00  3.23794E+01  1.572E-01  2.000E+01  2.000E+04  2.470E-01
   1   18   29     3     8    1.5424E+05 -1.2181E+03   1.5546E+05  0.000E+00  0.000E+00  0.000E+00  3.14894E+01  1.560E-01  2.000E+01  2.000E+04 -6.091E-02
   1   18   30     3     9    1.5546E+05 -1.6954E+03   1.5715E+05  0.000E+00  0.000E+00  0.000E+00  3.06014E+01  1.569E-01  2.000E+01  2.000E+04 -8.477E-02



1
              HEAD IN LAYER   1 AT END OF TIME STEP   1 IN STRESS PERIOD   11
  ---------------------------------------------------------------------------

          1      2      3      4      5      6      7      8      9     10
         11     12     13     14     15     16     17     18     19     20
         21     22     23     24     25     26     27     28     29     30
 .........................................................................
   1  ****** ****** ****** ****** ****** ****** ****** ****** ****** ******
      ****** ****** ****** ****** ****** ****** ****** ****** ****** ******
      ****** ****** ****** ****** ****** ****** ****** ****** ****** ******
   2  ****** ****** ****** ****** ****** ****** ****** ****** ****** ******
      ****** ****** ****** ****** ****** ****** ****** ****** ****** ******
      ****** ****** ****** ****** ****** ****** ****** ****** ****** ******
   3  ****** ****** ****** ****** ****** ****** ****** ****** ****** ******
      ****** ****** ****** ****** ****** ****** ****** ****** ****** ******
      ****** ****** ****** ****** ****** ****** ****** ****** ****** ******
   4  ****** ****** ****** ****** ****** ****** ****** ****** ****** ******
      ****** ****** ****** ****** ****** ****** ****** ****** ****** ******
      ****** ****** ****** ****** ****** ****** ****** ****** ****** ******
   5  ****** ****** ****** ****** ****** ****** ****** ****** ****** ******
      ****** ****** ****** ****** ****** ****** ****** ****** ****** ******
      ****** ****** ****** ****** ****** ****** ****** ****** ****** ******
   6  ****** ****** ****** ****** ****** ****** ****** ****** ****** ******
      ****** ****** ****** ****** ****** ****** ****** ****** ****** ******
      ****** ****** ****** ****** ****** ****** ****** ****** ****** ******
   7  ****** ****** ****** ****** ****** ****** ****** ****** ****** ******
      ****** ****** ****** ****** ****** ****** ****** ****** ****** ******
      ****** ****** ****** ****** ****** ****** ****** ****** ****** ******
   8  ****** ****** ****** ****** ****** ****** ****** ****** ****** ******
      ****** ****** ****** ****** ****** ****** ****** ****** ****** ******
      ****** ****** ****** ****** ****** ****** ****** ****** ****** ******
   9  ****** ****** ****** ****** ****** ****** ****** ****** ****** ******
      ****** ****** ****** ****** ****** ****** ****** ****** ****** ******
      ****** ****** ****** ****** ****** ****** ****** ****** ****** ******
  10  ****** ****** ****** ****** ****** ****** ****** ****** ****** ******
      ****** ****** ****** ****** ****** ****** ****** ****** ****** ******
      ****** ****** ****** ****** ****** ****** ****** ****** ****** ******
  11  ****** ****** ****** ****** ****** ****** ****** ****** ****** ******
      ****** ****** ****** ****** ****** ****** ****** ****** ****** ******
      ****** ****** ****** ****** ****** ****** ****** ****** ****** ******
  12  ****** ****** ****** ****** ****** ****** ****** ****** ****** ******
      ****** ****** ****** ****** ****** ****** ****** ****** ****** ******
      ****** ****** ****** ****** ****** ****** ****** ****** ****** ******
  13  ****** ****** ****** ****** ****** ****** ****** ****** ****** ******
      ****** ****** ****** ****** ****** ****** ****** ****** ****** ******
      ****** ****** ****** ****** ****** ****** ****** ****** ****** ******
  14  ****** ****** ****** ****** ****** ****** ****** ****** ****** ******
      ****** ****** ****** ****** ****** ****** ****** ****** ****** ******
      ****** ****** ****** ****** ****** ****** ****** ****** ****** ******
  15  ****** ****** ****** ****** ****** ****** ****** ****** ****** ******
      ****** ****** ****** ****** ****** ****** ****** ****** ****** ******
      ****** ****** ****** ****** ****** ****** ****** ****** ****** ******
  16  ****** ****** ****** ****** ****** ****** ****** ****** ****** ******
      ****** ****** ****** ****** ****** ****** ****** ****** ****** ******
      ****** ****** ****** ****** ****** ****** ****** ****** ****** ******
  17  ****** ****** ****** ****** ****** ****** ****** ****** ****** ******
      ****** ****** ****** ****** ****** ****** ****** ****** ****** ******
      ****** ****** ****** ****** ****** ****** ****** ****** ****** ******
  18  ****** ****** ****** ****** ****** ****** ****** ****** ****** ******
      ****** ****** ****** ****** ****** ****** ****** ****** ****** ******
      ****** ****** ****** ****** ****** ****** ****** ****** ****** ******
  19  ****** ****** ****** ****** ****** ****** ****** ****** ****** ******
      ****** ****** ****** ****** ****** ****** ****** ****** ****** ******
      ****** ****** ****** ****** ****** ****** ****** ****** ****** ******
  20  ****** ****** ****** ****** ****** ****** ****** ****** ****** ******
      ****** ****** ****** ****** ****** ****** ****** ****** ****** ******
      ****** ****** ****** ****** ****** ****** ****** ****** ****** ******
  21  ****** ****** ****** ****** ****** ****** ****** ****** ****** ******
      ****** ****** ****** ****** ****** ****** ****** ****** ****** ******
      ****** ****** ****** ****** ****** ****** ****** ****** ****** ******
  22  ****** ****** ****** ****** ****** ****** ****** ****** ****** ******
      ****** ****** ****** ****** ****** ****** ****** ****** ****** ******
      ****** ****** ****** ****** ****** ****** ****** ****** ****** ******
  23  ****** ****** ****** ****** ****** ****** ****** ****** ****** ******
      ****** ****** ****** ****** ****** ****** ****** ****** ****** ******
      ****** ****** ****** ****** ****** ****** ****** ****** ****** ******
  24  ****** ****** ****** ****** ****** ****** ****** ****** ****** ******
      ****** ****** ****** ****** ****** ****** ****** ****** ****** ******
      ****** ****** ****** ****** ****** ****** ****** ****** ****** ******
  25  ****** ****** ****** ****** ****** ****** ****** ****** ****** ******
      ****** ****** ****** ****** ****** ****** ****** ****** ****** ******
      ****** ****** ****** ****** ****** ****** ****** ****** ****** ******

 HEAD WILL BE SAVED ON UNIT   51 AT END OF TIME STEP    1, STRESS PERIOD   11
1
  VOLUMETRIC BUDGET FOR ENTIRE MODEL AT END OF TIME STEP    1, STRESS PERIOD  11
  ------------------------------------------------------------------------------

     CUMULATIVE VOLUMES      L**3       RATES FOR THIS TIME STEP      L**3/T
     ------------------                 ------------------------

           IN:                                      IN:
           ---                                      ---
             STORAGE =    34997399.8964               STORAGE =       17872.1105
       CONSTANT HEAD =    27411191.3199         CONSTANT HEAD =       33398.4509
               WELLS =           0.0000                 WELLS =           0.0000
            RECHARGE =    23901600.0000              RECHARGE =           0.0000
      STREAM LEAKAGE =    18415498.8060        STREAM LEAKAGE =       24167.5748

            TOTAL IN =   104725690.0223              TOTAL IN =       75438.1362

          OUT:                                     OUT:
          ----                                     ----
             STORAGE =     2404469.5404               STORAGE =           0.0000
       CONSTANT HEAD =           0.0000         CONSTANT HEAD =           0.0000
               WELLS =    44296632.6972                 WELLS =       44120.1521
            RECHARGE =           0.0000              RECHARGE =           0.0000
      STREAM LEAKAGE =    58024589.7623        STREAM LEAKAGE =       31317.9889

           TOTAL OUT =   104725691.9999             TOTAL OUT =       75438.1410

            IN - OUT =          -1.9776              IN - OUT =      -4.8049E-03

 PERCENT DISCREPANCY =          -0.00     PERCENT DISCREPANCY =          -0.00






         TIME SUMMARY AT END OF TIME STEP    1 IN STRESS PERIOD   11
                    SECONDS     MINUTES      HOURS       DAYS        YEARS
                    -----------------------------------------------------------
   TIME STEP LENGTH 7.86240E+06 1.31040E+05  2184.0      91.000     0.24914    
 STRESS PERIOD TIME 7.86240E+06 1.31040E+05  2184.0      91.000     0.24914    
         TOTAL TIME 8.67456E+07 1.44576E+06  24096.      1004.0      2.7488    
1
1
                            STRESS PERIOD NO.   12, LENGTH =   91.00000    
                            -----------------------------------------------

                              NUMBER OF TIME STEPS =     1

                               MULTIPLIER FOR DELT =     1.500

                            INITIAL TIME STEP SIZE =   91.00000    

 WELL NO.  LAYER   ROW   COL   STRESS RATE         
 --------------------------------------------------
      1      1     11     21     -0.1135E+05
      2      1     18     20      -9351.    
      3      1     16     28     -0.1048E+05
      4      1     10     28     -0.1294E+05

      4 WELLS

                 RECHARGE =  1.000000E-03

 REUSING STREAM SEGMENT DATA FROM LAST STRESS PERIOD
 
 SOLVING FOR HEAD 


     6 CALLS TO PCG ROUTINE FOR TIME STEP   1 IN STRESS PERIOD   12
    23 TOTAL ITERATIONS

 OUTPUT CONTROL FOR STRESS PERIOD   12   TIME STEP    1
    SAVE BUDGET
    SAVE HEAD FOR ALL LAYERS
    PRINT HEAD FOR ALL LAYERS
 UBDSV2 SAVING "STREAMFLOW OUT  " ON UNIT  50 AT TIME STEP  1, STRESS PERIOD  12



 STREAM LISTING     PERIOD     12   STEP        1

 LAYER ROW COL. STREAM  RCH.  FLOW INTO     FLOW TO   FLOW OUT OF   OVRLND.     DIRECT     STREAM       STREAM     STREAM     STREAM   STREAMBED  STREAMBED
                SEG.NO.  NO.  STRM. RCH.    AQUIFER    STRM. RCH.    RUNOFF     PRECIP       ET          HEAD       DEPTH      WIDTH   CONDCTNC.   GRADIENT

   1   13    1     1     1    1.0000E+05 -1.6992E+03   1.0170E+05  0.000E+00  0.000E+00  0.000E+00  4.84068E+01  1.454E-01  2.000E+01  2.000E+04 -8.496E-02
   1   13    2     1     2    1.0170E+05 -2.6413E+03   1.0434E+05  0.000E+00  0.000E+00  0.000E+00  4.79313E+01  1.473E-01  2.000E+01  2.000E+04 -1.321E-01
   1   14    3     1     3    1.0434E+05 -4.4142E+02   1.0478E+05  0.000E+00  0.000E+00  0.000E+00  4.74554E+01  1.486E-01  2.000E+01  2.000E+04 -2.207E-02
   1   15    4     1     4    1.0478E+05 -4.1503E+02   1.0520E+05  0.000E+00  0.000E+00  0.000E+00  4.69785E+01  1.489E-01  2.000E+01  2.000E+04 -2.075E-02
   1   16    5     1     5    1.0520E+05 -1.5580E+03   1.0675E+05  0.000E+00  0.000E+00  0.000E+00  4.65021E+01  1.498E-01  2.000E+01  2.000E+04 -7.790E-02
   1   16    6     1     6    1.0675E+05 -9.8224E+02   1.0774E+05  0.000E+00  0.000E+00  0.000E+00  4.60259E+01  1.509E-01  2.000E+01  2.000E+04 -4.911E-02
   1   16    7     1     7    1.0774E+05 -9.5713E+02   1.0869E+05  0.000E+00  0.000E+00  0.000E+00  4.55494E+01  1.517E-01  2.000E+01  2.000E+04 -4.786E-02
   1   16    8     1     8    1.0869E+05 -9.4259E+02   1.0964E+05  0.000E+00  0.000E+00  0.000E+00  4.50729E+01  1.525E-01  2.000E+01  2.000E+04 -4.713E-02
   1   16    9     1     9    1.0964E+05 -9.1986E+02   1.1056E+05  0.000E+00  0.000E+00  0.000E+00  4.45964E+01  1.532E-01  2.000E+01  2.000E+04 -4.599E-02
   1   16   10     1    10    1.1056E+05 -8.8511E+02   1.1144E+05  0.000E+00  0.000E+00  0.000E+00  4.41199E+01  1.540E-01  2.000E+01  2.000E+04 -4.426E-02
   1   16   11     1    11    1.1144E+05 -8.4507E+02   1.1229E+05  0.000E+00  0.000E+00  0.000E+00  4.36434E+01  1.547E-01  2.000E+01  2.000E+04 -4.225E-02
   1   16   12     1    12    1.1229E+05 -1.2770E+03   1.1356E+05  0.000E+00  0.000E+00  0.000E+00  4.31670E+01  1.556E-01  2.000E+01  2.000E+04 -6.385E-02
   1   15   13     1    13    1.1356E+05 -1.1802E+03   1.1474E+05  0.000E+00  0.000E+00  0.000E+00  4.26907E+01  1.566E-01  2.000E+01  2.000E+04 -5.901E-02
   1   14   14     1    14    1.1474E+05 -1.4222E+03   1.1617E+05  0.000E+00  0.000E+00  0.000E+00  4.22145E+01  1.577E-01  2.000E+01  2.000E+04 -7.111E-02
   1   13   15     1    15    1.1617E+05 -1.7319E+03   1.1790E+05  0.000E+00  0.000E+00  0.000E+00  4.17385E+01  1.590E-01  2.000E+01  2.000E+04 -8.660E-02
   1   12   16     1    16    1.1790E+05 -2.3781E+03   1.2028E+05  0.000E+00  0.000E+00  0.000E+00  4.12629E+01  1.606E-01  2.000E+01  2.000E+04 -1.189E-01
   1   12   17     1    17    1.2028E+05 -1.3074E+03   1.2158E+05  0.000E+00  0.000E+00  0.000E+00  4.07871E+01  1.621E-01  2.000E+01  2.000E+04 -6.537E-02
   1   12   18     1    18    1.2158E+05 -9.5666E+02   1.2254E+05  0.000E+00  0.000E+00  0.000E+00  4.03108E+01  1.630E-01  2.000E+01  2.000E+04 -4.783E-02
   1   12   19     1    19    1.2254E+05 -3.1908E+01   1.2257E+05  0.000E+00  0.000E+00  0.000E+00  3.98339E+01  1.634E-01  2.000E+01  2.000E+04 -1.595E-03
   1   13   20     1    20    1.2257E+05  7.1488E+02   1.2186E+05  0.000E+00  0.000E+00  0.000E+00  3.93563E+01  1.632E-01  2.000E+01  2.000E+04  3.574E-02
   1   14   21     1    21    1.2186E+05  5.5423E+02   1.2130E+05  0.000E+00  0.000E+00  0.000E+00  3.88786E+01  1.626E-01  2.000E+01  2.000E+04  2.771E-02
   1   14   22     1    22    1.2130E+05  5.5587E+03   1.1574E+05  0.000E+00  0.000E+00  0.000E+00  3.83988E+01  1.602E-01  2.000E+01  2.000E+04  2.779E-01
   1    9   30     2     1    5.0000E+04  8.4679E+02   4.9153E+04  0.000E+00  0.000E+00  0.000E+00  4.02403E+01  1.153E-01  2.000E+01  2.000E+04  4.234E-02
   1    9   29     2     2    4.9153E+04  1.3292E+03   4.7824E+04  0.000E+00  0.000E+00  0.000E+00  3.99888E+01  1.138E-01  2.000E+01  2.000E+04  6.646E-02
   1    9   28     2     3    4.7824E+04  3.5686E+03   4.4255E+04  0.000E+00  0.000E+00  0.000E+00  3.97353E+01  1.103E-01  2.000E+01  2.000E+04  1.784E-01
   1    9   27     2     4    4.4255E+04 -3.7771E+02   4.4633E+04  0.000E+00  0.000E+00  0.000E+00  3.94830E+01  1.080E-01  2.000E+01  2.000E+04 -1.889E-02
   1   10   26     2     5    4.4633E+04  1.0309E+03   4.3602E+04  0.000E+00  0.000E+00  0.000E+00  3.92325E+01  1.075E-01  2.000E+01  2.000E+04  5.154E-02
   1   11   25     2     6    4.3602E+04  2.7255E+02   4.3330E+04  0.000E+00  0.000E+00  0.000E+00  3.89815E+01  1.065E-01  2.000E+01  2.000E+04  1.363E-02
   1   12   24     2     7    4.3330E+04  1.9166E+02   4.3138E+04  0.000E+00  0.000E+00  0.000E+00  3.87312E+01  1.062E-01  2.000E+01  2.000E+04  9.583E-03
   1   13   23     2     8    4.3138E+04  5.8581E+01   4.3079E+04  0.000E+00  0.000E+00  0.000E+00  3.84810E+01  1.060E-01  2.000E+01  2.000E+04  2.929E-03
   1   14   22     2     9    4.3079E+04  2.1694E+03   4.0910E+04  0.000E+00  0.000E+00  0.000E+00  3.82293E+01  1.043E-01  2.000E+01  2.000E+04  1.085E-01
   1   14   22     3     1    1.5665E+05 -8.1153E+03   1.6477E+05  0.000E+00  0.000E+00  0.000E+00  3.77151E+01  1.596E-01  2.000E+01  2.000E+04 -4.058E-01
   1   15   23     3     2    1.6477E+05 -2.4000E+02   1.6501E+05  0.000E+00  0.000E+00  0.000E+00  3.68287E+01  1.620E-01  2.000E+01  2.000E+04 -1.200E-02
   1   15   24     3     3    1.6501E+05 -1.8694E+02   1.6520E+05  0.000E+00  0.000E+00  0.000E+00  3.59399E+01  1.622E-01  2.000E+01  2.000E+04 -9.347E-03
   1   15   25     3     4    1.6520E+05 -1.8638E+02   1.6538E+05  0.000E+00  0.000E+00  0.000E+00  3.50512E+01  1.623E-01  2.000E+01  2.000E+04 -9.319E-03
   1   15   26     3     5    1.6538E+05 -3.4062E+01   1.6542E+05  0.000E+00  0.000E+00  0.000E+00  3.41623E+01  1.623E-01  2.000E+01  2.000E+04 -1.703E-03
   1   16   27     3     6    1.6542E+05  8.5274E+02   1.6456E+05  0.000E+00  0.000E+00  0.000E+00  3.32732E+01  1.621E-01  2.000E+01  2.000E+04  4.264E-02
   1   17   28     3     7    1.6456E+05  4.7192E+03   1.5985E+05  0.000E+00  0.000E+00  0.000E+00  3.23827E+01  1.604E-01  2.000E+01  2.000E+04  2.360E-01
   1   18   29     3     8    1.5985E+05 -1.4186E+03   1.6126E+05  0.000E+00  0.000E+00  0.000E+00  3.14928E+01  1.595E-01  2.000E+01  2.000E+04 -7.093E-02
   1   18   30     3     9    1.6126E+05 -1.8634E+03   1.6313E+05  0.000E+00  0.000E+00  0.000E+00  3.06049E+01  1.604E-01  2.000E+01  2.000E+04 -9.317E-02



1
              HEAD IN LAYER   1 AT END OF TIME STEP   1 IN STRESS PERIOD   12
  ---------------------------------------------------------------------------

          1      2      3      4      5      6      7      8      9     10
         11     12     13     14     15     16     17     18     19     20
         21     22     23     24     25     26     27     28     29     30
 .........................................................................
   1  ****** ****** ****** ****** ****** ****** ****** ****** ****** ******
      ****** ****** ****** ****** ****** ****** ****** ****** ****** ******
      ****** ****** ****** ****** ****** ****** ****** ****** ****** ******
   2  ****** ****** ****** ****** ****** ****** ****** ****** ****** ******
      ****** ****** ****** ****** ****** ****** ****** ****** ****** ******
      ****** ****** ****** ****** ****** ****** ****** ****** ****** ******
   3  ****** ****** ****** ****** ****** ****** ****** ****** ****** ******
      ****** ****** ****** ****** ****** ****** ****** ****** ****** ******
      ****** ****** ****** ****** ****** ****** ****** ****** ****** ******
   4  ****** ****** ****** ****** ****** ****** ****** ****** ****** ******
      ****** ****** ****** ****** ****** ****** ****** ****** ****** ******
      ****** ****** ****** ****** ****** ****** ****** ****** ****** ******
   5  ****** ****** ****** ****** ****** ****** ****** ****** ****** ******
      ****** ****** ****** ****** ****** ****** ****** ****** ****** ******
      ****** ****** ****** ****** ****** ****** ****** ****** ****** ******
   6  ****** ****** ****** ****** ****** ****** ****** ****** ****** ******
      ****** ****** ****** ****** ****** ****** ****** ****** ****** ******
      ****** ****** ****** ****** ****** ****** ****** ****** ****** ******
   7  ****** ****** ****** ****** ****** ****** ****** ****** ****** ******
      ****** ****** ****** ****** ****** ****** ****** ****** ****** ******
      ****** ****** ****** ****** ****** ****** ****** ****** ****** ******
   8  ****** ****** ****** ****** ****** ****** ****** ****** ****** ******
      ****** ****** ****** ****** ****** ****** ****** ****** ****** ******
      ****** ****** ****** ****** ****** ****** ****** ****** ****** ******
   9  ****** ****** ****** ****** ****** ****** ****** ****** ****** ******
      ****** ****** ****** ****** ****** ****** ****** ****** ****** ******
      ****** ****** ****** ****** ****** ****** ****** ****** ****** ******
  10  ****** ****** ****** ****** ****** ****** ****** ****** ****** ******
      ****** ****** ****** ****** ****** ****** ****** ****** ****** ******
      ****** ****** ****** ****** ****** ****** ****** ****** ****** ******
  11  ****** ****** ****** ****** ****** ****** ****** ****** ****** ******
      ****** ****** ****** ****** ****** ****** ****** ****** ****** ******
      ****** ****** ****** ****** ****** ****** ****** ****** ****** ******
  12  ****** ****** ****** ****** ****** ****** ****** ****** ****** ******
      ****** ****** ****** ****** ****** ****** ****** ****** ****** ******
      ****** ****** ****** ****** ****** ****** ****** ****** ****** ******
  13  ****** ****** ****** ****** ****** ****** ****** ****** ****** ******
      ****** ****** ****** ****** ****** ****** ****** ****** ****** ******
      ****** ****** ****** ****** ****** ****** ****** ****** ****** ******
  14  ****** ****** ****** ****** ****** ****** ****** ****** ****** ******
      ****** ****** ****** ****** ****** ****** ****** ****** ****** ******
      ****** ****** ****** ****** ****** ****** ****** ****** ****** ******
  15  ****** ****** ****** ****** ****** ****** ****** ****** ****** ******
      ****** ****** ****** ****** ****** ****** ****** ****** ****** ******
      ****** ****** ****** ****** ****** ****** ****** ****** ****** ******
  16  ****** ****** ****** ****** ****** ****** ****** ****** ****** ******
      ****** ****** ****** ****** ****** ****** ****** ****** ****** ******
      ****** ****** ****** ****** ****** ****** ****** ****** ****** ******
  17  ****** ****** ****** ****** ****** ****** ****** ****** ****** ******
      ****** ****** ****** ****** ****** ****** ****** ****** ****** ******
      ****** ****** ****** ****** ****** ****** ****** ****** ****** ******
  18  ****** ****** ****** ****** ****** ****** ****** ****** ****** ******
      ****** ****** ****** ****** ****** ****** ****** ****** ****** ******
      ****** ****** ****** ****** ****** ****** ****** ****** ****** ******
  19  ****** ****** ****** ****** ****** ****** ****** ****** ****** ******
      ****** ****** ****** ****** ****** ****** ****** ****** ****** ******
      ****** ****** ****** ****** ****** ****** ****** ****** ****** ******
  20  ****** ****** ****** ****** ****** ****** ****** ****** ****** ******
      ****** ****** ****** ****** ****** ****** ****** ****** ****** ******
      ****** ****** ****** ****** ****** ****** ****** ****** ****** ******
  21  ****** ****** ****** ****** ****** ****** ****** ****** ****** ******
      ****** ****** ****** ****** ****** ****** ****** ****** ****** ******
      ****** ****** ****** ****** ****** ****** ****** ****** ****** ******
  22  ****** ****** ****** ****** ****** ****** ****** ****** ****** ******
      ****** ****** ****** ****** ****** ****** ****** ****** ****** ******
      ****** ****** ****** ****** ****** ****** ****** ****** ****** ******
  23  ****** ****** ****** ****** ****** ****** ****** ****** ****** ******
      ****** ****** ****** ****** ****** ****** ****** ****** ****** ******
      ****** ****** ****** ****** ****** ****** ****** ****** ****** ******
  24  ****** ****** ****** ****** ****** ****** ****** ****** ****** ******
      ****** ****** ****** ****** ****** ****** ****** ****** ****** ******
      ****** ****** ****** ****** ****** ****** ****** ****** ****** ******
  25  ****** ****** ****** ****** ****** ****** ****** ****** ****** ******
      ****** ****** ****** ****** ****** ****** ****** ****** ****** ******
      ****** ****** ****** ****** ****** ****** ****** ****** ****** ******

 HEAD WILL BE SAVED ON UNIT   51 AT END OF TIME STEP    1, STRESS PERIOD   12
1
  VOLUMETRIC BUDGET FOR ENTIRE MODEL AT END OF TIME STEP    1, STRESS PERIOD  12
  ------------------------------------------------------------------------------

     CUMULATIVE VOLUMES      L**3       RATES FOR THIS TIME STEP      L**3/T
     ------------------                 ------------------------

           IN:                                      IN:
           ---                                      ---
             STORAGE =    34997974.5351               STORAGE =           6.3147
       CONSTANT HEAD =    30386616.7808         CONSTANT HEAD =       32696.9831
               WELLS =           0.0000                 WELLS =           0.0000
            RECHARGE =    26413200.0000              RECHARGE =       27600.0000
      STREAM LEAKAGE =    20405432.9875        STREAM LEAKAGE =       21867.4086

            TOTAL IN =   112203224.3034              TOTAL IN =       82170.7064

          OUT:                                     OUT:
          ----                                     ----
             STORAGE =     2682549.0324               STORAGE =        3055.8186
       CONSTANT HEAD =           0.0000         CONSTANT HEAD =           0.0000
               WELLS =    48311566.5373                 WELLS =       44120.1521
            RECHARGE =           0.0000              RECHARGE =           0.0000
      STREAM LEAKAGE =    61209110.6528        STREAM LEAKAGE =       34994.7351

           TOTAL OUT =   112203226.2225             TOTAL OUT =       82170.7057

            IN - OUT =          -1.9190              IN - OUT =       6.4375E-04

 PERCENT DISCREPANCY =          -0.00     PERCENT DISCREPANCY =           0.00






         TIME SUMMARY AT END OF TIME STEP    1 IN STRESS PERIOD   12
                    SECONDS     MINUTES      HOURS       DAYS        YEARS
                    -----------------------------------------------------------
   TIME STEP LENGTH 7.86240E+06 1.31040E+05  2184.0      91.000     0.24914    
 STRESS PERIOD TIME 7.86240E+06 1.31040E+05  2184.0      91.000     0.24914    
         TOTAL TIME 9.46080E+07 1.57680E+06  26280.      1095.0      2.9979    
1

 Run end date and time (yyyy/mm/dd hh:mm:ss): 2018/10/14 15:31:49
 Elapsed run time:  0.100 Seconds

