                                  MODFLOW-2005     
      U.S. GEOLOGICAL SURVEY MODULAR FINITE-DIFFERENCE GROUND-WATER FLOW MODEL
                            VERSION 1.11.00 8/8/2013

 LIST FILE: supply2.lst
                         UNIT   10

 OPENING ..\data\supply.dis
 FILE TYPE:DIS   UNIT   11   STATUS:OLD    
 FORMAT:FORMATTED              ACCESS:SEQUENTIAL          

 OPENING ..\data\supply.ba6
 FILE TYPE:BAS6   UNIT   12   STATUS:OLD    
 FORMAT:FORMATTED              ACCESS:SEQUENTIAL          

 OPENING ..\data\supply.bc6
 FILE TYPE:BCF6   UNIT   13   STATUS:OLD    
 FORMAT:FORMATTED              ACCESS:SEQUENTIAL          

 OPENING ..\data\supply.rch
 FILE TYPE:RCH   UNIT   15   STATUS:OLD    
 FORMAT:FORMATTED              ACCESS:SEQUENTIAL          

 OPENING ..\data\supply2.sfr
 FILE TYPE:SFR   UNIT   16   STATUS:OLD    
 FORMAT:FORMATTED              ACCESS:SEQUENTIAL          

 OPENING ..\data\supply.oc
 FILE TYPE:OC   UNIT   17   STATUS:OLD    
 FORMAT:FORMATTED              ACCESS:SEQUENTIAL          

 OPENING ..\data\supply.pcg
 FILE TYPE:PCG   UNIT   18   STATUS:OLD    
 FORMAT:FORMATTED              ACCESS:SEQUENTIAL          

 OPENING supply2.wel
 FILE TYPE:WEL   UNIT   19   STATUS:OLD    
 FORMAT:FORMATTED              ACCESS:SEQUENTIAL          

 OPENING supply2sf.bin
 FILE TYPE:DATA(BINARY)   UNIT   50   STATUS:UNKNOWN
 FORMAT:BINARY                 ACCESS:SEQUENTIAL          

 OPENING supply2hd.bin
 FILE TYPE:DATA(BINARY)   UNIT   51   STATUS:UNKNOWN
 FORMAT:BINARY                 ACCESS:SEQUENTIAL          

 BAS -- BASIC PACKAGE, VERSION 7, 5/2/2005 INPUT READ FROM UNIT   12
 
 MODFLOW was compiled using uniform precision
 Precision of REAL and DOUBLE PRECISION variables:          15

 DISCRETIZATION INPUT DATA READ FROM UNIT   11
    1 LAYERS        25 ROWS        30 COLUMNS
   12 STRESS PERIOD(S) IN SIMULATION
 MODEL TIME UNIT IS DAYS
 MODEL LENGTH UNIT IS UNDEFINED
  Confining bed flag for each layer:
   0

                     DELR =   200.000    

                     DELC =   200.000    

 TOP ELEVATION OF LAYER 1 =  100.0000    

   MODEL LAYER BOTTOM EL. =   0.00000     FOR LAYER   1


 STRESS PERIOD     LENGTH       TIME STEPS     MULTIPLIER FOR DELT    SS FLAG
 ----------------------------------------------------------------------------
        1         92.00000          1                    1.500         TR
        2         91.00000          1                    1.500         TR
        3         91.00000          1                    1.500         TR
        4         91.00000          1                    1.500         TR
        5         92.00000          1                    1.500         TR
        6         91.00000          1                    1.500         TR
        7         91.00000          1                    1.500         TR
        8         91.00000          1                    1.500         TR
        9         92.00000          1                    1.500         TR
       10         91.00000          1                    1.500         TR
       11         91.00000          1                    1.500         TR
       12         91.00000          1                    1.500         TR

 TRANSIENT SIMULATION



 
 #MODOFC transient water supply sample problem                                   
 #                                                                               
 THE FREE FORMAT OPTION HAS BEEN SELECTED



                     BOUNDARY ARRAY FOR LAYER   1
 READING ON UNIT   12 WITH FORMAT: (20I4)              

 AQUIFER HEAD WILL BE SET TO   0.0000     AT ALL NO-FLOW NODES (IBOUND=0).



                       INITIAL HEAD FOR LAYER   1
 READING ON UNIT   12 WITH FORMAT: (10F13.0)           

 OUTPUT CONTROL IS SPECIFIED ONLY AT TIME STEPS FOR WHICH OUTPUT IS DESIRED
 COMPACT CELL-BY-CELL BUDGET FILES WILL BE WRITTEN
 HEAD PRINT FORMAT CODE IS  18    DRAWDOWN PRINT FORMAT CODE IS   0
 HEADS WILL BE SAVED ON UNIT   51    DRAWDOWNS WILL BE SAVED ON UNIT    0

 BCF -- BLOCK-CENTERED FLOW PACKAGE, VERSION 7, 5/2/2005
         INPUT READ FROM UNIT 13
 TRANSIENT SIMULATION
 HEAD AT CELLS THAT CONVERT TO DRY=   0.0000    
 WETTING CAPABILITY IS NOT ACTIVE
      LAYER  LAYER-TYPE CODE     INTERBLOCK T
      --------------------------------------------
         1            0          0 -- HARMONIC    

 COLUMN TO ROW ANISOTROPY =  1.000000    

     PRIMARY STORAGE COEF =  5.000000E-02 FOR LAYER   1

     TRANSMIS. ALONG ROWS =   5000.00     FOR LAYER   1

 WEL -- WELL PACKAGE, VERSION 7, 5/2/2005 INPUT READ FROM UNIT   19
 # Well package input file written by MMProc
 No named parameters
 MAXIMUM OF      7 ACTIVE WELLS AT ONE TIME


     0 Well parameters

 RCH -- RECHARGE PACKAGE, VERSION 7, 5/2/2005 INPUT READ FROM UNIT   15
 No named parameters
 OPTION 1 -- RECHARGE TO TOP LAYER


     0 Recharge parameters

 SFR7 -- STREAMFLOW ROUTING PACKAGE, VERSION 1.0.7, 2013-01-15
         INPUT READ FROM UNIT  16
 #  Supply2 test problem for GWM-VI
 #  The eighth entry in the first data line is ISTCB2 -
 #    Setting this to a negative number indicates that
 #    streamflows out of the reach will be saved to a
 #    binary file.  The absolute value of ISTCB2 is the
 #    unit to which unformatted flows will be written.
 #
 No named parameters
 Segment information will not be 
 read by reach
 No named parameters
 No specifed inflow files


 NUMBER OF STREAM REACHES IS   40

 NUMBER OF STREAM SEGMENTS IS    3

 NUMBER OF STREAM PARAMETERS IS    0

 NUMBER OF STREAM SEGMENTS DEFINED USING PARAMETERS IS              0

 MAXIMUM ERROR FOR STREAM LEAKAGE RATES IS  1.00E-04

 CONSTANT FOR MANNINGS EQUATION IS  1.2839E+05





   STREAM NETWORK DESCRIPTION: 

   LAYER    ROW    COL   SEGMENT   REACH     LENGTH
                          NUMBER   NUMBER    IN CELL        
   --------------------------------------------------
      1     13      1       1        1    2.0000E+02
      1     13      2       1        2    2.0000E+02
      1     14      3       1        3    2.0000E+02
      1     15      4       1        4    2.0000E+02
      1     16      5       1        5    2.0000E+02
      1     16      6       1        6    2.0000E+02
      1     16      7       1        7    2.0000E+02
      1     16      8       1        8    2.0000E+02
      1     16      9       1        9    2.0000E+02
      1     16     10       1       10    2.0000E+02
      1     16     11       1       11    2.0000E+02
      1     16     12       1       12    2.0000E+02
      1     15     13       1       13    2.0000E+02
      1     14     14       1       14    2.0000E+02
      1     13     15       1       15    2.0000E+02
      1     12     16       1       16    2.0000E+02
      1     12     17       1       17    2.0000E+02
      1     12     18       1       18    2.0000E+02
      1     12     19       1       19    2.0000E+02
      1     13     20       1       20    2.0000E+02
      1     14     21       1       21    2.0000E+02
      1     14     22       1       22    2.0000E+02
      1      9     30       2        1    2.0000E+02
      1      9     29       2        2    2.0000E+02
      1      9     28       2        3    2.0000E+02
      1      9     27       2        4    2.0000E+02
      1     10     26       2        5    2.0000E+02
      1     11     25       2        6    2.0000E+02
      1     12     24       2        7    2.0000E+02
      1     13     23       2        8    2.0000E+02
      1     14     22       2        9    2.0000E+02
      1     14     22       3        1    2.0000E+02
      1     15     23       3        2    2.0000E+02
      1     15     24       3        3    2.0000E+02
      1     15     25       3        4    2.0000E+02
      1     15     26       3        5    2.0000E+02
      1     16     27       3        6    2.0000E+02
      1     17     28       3        7    2.0000E+02
      1     18     29       3        8    2.0000E+02
      1     18     30       3        9    2.0000E+02




 PCG -- CONJUGATE-GRADIENT SOLUTION PACKAGE, VERSION 7, 5/2/2005
 MAXIMUM OF    500 CALLS OF SOLUTION ROUTINE
 MAXIMUM OF      5 INTERNAL ITERATIONS PER CALL TO SOLUTION ROUTINE
 MATRIX PRECONDITIONING TYPE :    1



                                    SOLUTION BY THE CONJUGATE-GRADIENT METHOD
                                   -------------------------------------------
                    MAXIMUM NUMBER OF CALLS TO PCG ROUTINE =      500
                        MAXIMUM ITERATIONS PER CALL TO PCG =        5
                               MATRIX PRECONDITIONING TYPE =        1
        RELAXATION FACTOR (ONLY USED WITH PRECOND. TYPE 1) =    0.10000E+01
 PARAMETER OF POLYNOMIAL PRECOND. = 2 (2) OR IS CALCULATED :        0
                         HEAD CHANGE CRITERION FOR CLOSURE =    0.10000E-05
                     RESIDUAL CHANGE CRITERION FOR CLOSURE =    0.10000E+01
            PCG HEAD AND RESIDUAL CHANGE PRINTOUT INTERVAL =        1
     PRINTING FROM SOLVER IS LIMITED(1) OR SUPPRESSED (>1) =        1
                            STEADY-STATE DAMPING PARAMETER =    0.10000E+01
                               TRANSIENT DAMPING PARAMETER =    0.10000E+01
1
                            STRESS PERIOD NO.    1, LENGTH =   92.00000    
                            -----------------------------------------------

                              NUMBER OF TIME STEPS =     1

                               MULTIPLIER FOR DELT =     1.500

                            INITIAL TIME STEP SIZE =   92.00000    

 WELL NO.  LAYER   ROW   COL   STRESS RATE         
 --------------------------------------------------
      1      1     12     11      -3484.    
      2      1     16     17     -0.5000E+05

      2 WELLS

                 RECHARGE =  5.000000E-04



 CLASSIFICATION & COUNT OF STREAM SEGMENTS BASED ON SOURCE OF INFLOW:

                HEADWATER     DIVERSION     RECEIVES TRIBUTARY FLOW
                ---------     ---------     -----------------------
                     2              0               1



                    INPUT DATA FOR EACH STREAM SEGMENT
 ---------------------------------------------------------------------------------------------

 SEGMENT    SEG.     INFLOW   OVERLAND   STREAM    STREAM   ICALC  OUTFLOW  DIVERSION PRIORITY
    NO.    LENGTH     RATE     RUNOFF      ET       PPT.    METH.  TO SEG.  FROM SEG.    NO.

      1  4.400E+03 1.000E+05 0.000E+00 0.000E+00 0.000E+00    1        3        0        0
      2  1.800E+03 5.000E+04 0.000E+00 0.000E+00 0.000E+00    1        3        0        0
      3  1.800E+03 0.000E+00 0.000E+00 0.000E+00 0.000E+00    1        0        0        0


         STREAMBED PROPERTIES AND STREAM DIMENSIONS

 SEGMENT     BED HYD. COND.      BED THICKNESS     ELEV.-TOP OF BED     WIDTH OF STREAM     DEPTH OF STREAM    STREAM ROUGHNESS
    No.     UPPER     LOWER     UPPER     LOWER     UPPER     LOWER     UPPER     LOWER     UPPER     LOWER   CHANNEL      BANK

     1  5.000E+00 5.000E+00 1.000E+00 1.000E+00 4.850E+01 3.800E+01 2.000E+01 2.000E+01                     5.000E-02
     2  5.000E+00 5.000E+00 1.000E+00 1.000E+00 4.025E+01 3.800E+01 2.000E+01 2.000E+01                     5.000E-02
     3  5.000E+00 5.000E+00 1.000E+00 1.000E+00 3.800E+01 3.000E+01 2.000E+01 2.000E+01                     5.000E-02



 
 SOLVING FOR HEAD 


     8 CALLS TO PCG ROUTINE FOR TIME STEP   1 IN STRESS PERIOD    1
    32 TOTAL ITERATIONS

 OUTPUT CONTROL FOR STRESS PERIOD    1   TIME STEP    1
    SAVE BUDGET
    SAVE HEAD FOR ALL LAYERS
    PRINT HEAD FOR ALL LAYERS
 UBDSV2 SAVING "STREAMFLOW OUT  " ON UNIT  50 AT TIME STEP  1, STRESS PERIOD   1



 STREAM LISTING     PERIOD      1   STEP        1

 LAYER ROW COL. STREAM  RCH.  FLOW INTO     FLOW TO   FLOW OUT OF   OVRLND.     DIRECT     STREAM       STREAM     STREAM     STREAM   STREAMBED  STREAMBED
                SEG.NO.  NO.  STRM. RCH.    AQUIFER    STRM. RCH.    RUNOFF     PRECIP       ET          HEAD       DEPTH      WIDTH   CONDCTNC.   GRADIENT

   1   13    1     1     1    1.0000E+05 -3.1612E+04   1.3161E+05  0.000E+00  0.000E+00  0.000E+00  4.84193E+01  1.580E-01  2.000E+01  2.000E+04 -1.581E+00
   1   13    2     1     2    1.3161E+05 -4.2045E+04   1.7366E+05  0.000E+00  0.000E+00  0.000E+00  4.79705E+01  1.864E-01  2.000E+01  2.000E+04 -2.102E+00
   1   14    3     1     3    1.7366E+05 -3.7571E+04   2.1123E+05  0.000E+00  0.000E+00  0.000E+00  4.75211E+01  2.142E-01  2.000E+01  2.000E+04 -1.879E+00
   1   15    4     1     4    2.1123E+05 -3.6610E+04   2.4784E+05  0.000E+00  0.000E+00  0.000E+00  4.70677E+01  2.381E-01  2.000E+01  2.000E+04 -1.830E+00
   1   16    5     1     5    2.4784E+05 -3.7537E+04   2.8538E+05  0.000E+00  0.000E+00  0.000E+00  4.66128E+01  2.605E-01  2.000E+01  2.000E+04 -1.877E+00
   1   16    6     1     6    2.8538E+05 -3.2774E+04   3.1815E+05  0.000E+00  0.000E+00  0.000E+00  4.61556E+01  2.806E-01  2.000E+01  2.000E+04 -1.639E+00
   1   16    7     1     7    3.1815E+05 -3.2521E+04   3.5067E+05  0.000E+00  0.000E+00  0.000E+00  4.56962E+01  2.985E-01  2.000E+01  2.000E+04 -1.626E+00
   1   16    8     1     8    3.5067E+05 -3.2635E+04   3.8331E+05  0.000E+00  0.000E+00  0.000E+00  4.52360E+01  3.156E-01  2.000E+01  2.000E+04 -1.632E+00
   1   16    9     1     9    3.8331E+05 -3.2586E+04   4.1589E+05  0.000E+00  0.000E+00  0.000E+00  4.47753E+01  3.321E-01  2.000E+01  2.000E+04 -1.629E+00
   1   16   10     1    10    4.1589E+05 -3.2395E+04   4.4829E+05  0.000E+00  0.000E+00  0.000E+00  4.43140E+01  3.481E-01  2.000E+01  2.000E+04 -1.620E+00
   1   16   11     1    11    4.4829E+05 -3.2628E+04   4.8091E+05  0.000E+00  0.000E+00  0.000E+00  4.38522E+01  3.636E-01  2.000E+01  2.000E+04 -1.631E+00
   1   16   12     1    12    4.8091E+05 -3.7442E+04   5.1836E+05  0.000E+00  0.000E+00  0.000E+00  4.33911E+01  3.798E-01  2.000E+01  2.000E+04 -1.872E+00
   1   15   13     1    13    5.1836E+05 -3.5728E+04   5.5408E+05  0.000E+00  0.000E+00  0.000E+00  4.29303E+01  3.962E-01  2.000E+01  2.000E+04 -1.786E+00
   1   14   14     1    14    5.5408E+05 -3.5833E+04   5.8992E+05  0.000E+00  0.000E+00  0.000E+00  4.24687E+01  4.119E-01  2.000E+01  2.000E+04 -1.792E+00
   1   13   15     1    15    5.8992E+05 -3.8356E+04   6.2827E+05  0.000E+00  0.000E+00  0.000E+00  4.20072E+01  4.277E-01  2.000E+01  2.000E+04 -1.918E+00
   1   12   16     1    16    6.2827E+05 -4.5705E+04   6.7398E+05  0.000E+00  0.000E+00  0.000E+00  4.15474E+01  4.452E-01  2.000E+01  2.000E+04 -2.285E+00
   1   12   17     1    17    6.7398E+05 -3.5257E+04   7.0924E+05  0.000E+00  0.000E+00  0.000E+00  4.10866E+01  4.616E-01  2.000E+01  2.000E+04 -1.763E+00
   1   12   18     1    18    7.0924E+05 -3.3735E+04   7.4297E+05  0.000E+00  0.000E+00  0.000E+00  4.06230E+01  4.753E-01  2.000E+01  2.000E+04 -1.687E+00
   1   12   19     1    19    7.4297E+05 -3.8678E+04   7.8165E+05  0.000E+00  0.000E+00  0.000E+00  4.01598E+01  4.893E-01  2.000E+01  2.000E+04 -1.934E+00
   1   13   20     1    20    7.8165E+05 -2.7876E+04   8.0952E+05  0.000E+00  0.000E+00  0.000E+00  3.96952E+01  5.020E-01  2.000E+01  2.000E+04 -1.394E+00
   1   14   21     1    21    8.0952E+05 -2.0260E+04   8.2978E+05  0.000E+00  0.000E+00  0.000E+00  3.92270E+01  5.111E-01  2.000E+01  2.000E+04 -1.013E+00
   1   14   22     1    22    8.2978E+05 -2.4770E+03   8.3226E+05  0.000E+00  0.000E+00  0.000E+00  3.87540E+01  5.153E-01  2.000E+01  2.000E+04 -1.239E-01
   1    9   30     2     1    5.0000E+04 -2.9656E+04   7.9656E+04  0.000E+00  0.000E+00  0.000E+00  4.02604E+01  1.354E-01  2.000E+01  2.000E+04 -1.483E+00
   1    9   29     2     2    7.9656E+04 -3.2095E+04   1.1175E+05  0.000E+00  0.000E+00  0.000E+00  4.00461E+01  1.711E-01  2.000E+01  2.000E+04 -1.605E+00
   1    9   28     2     3    1.1175E+05 -3.6415E+04   1.4817E+05  0.000E+00  0.000E+00  0.000E+00  3.98305E+01  2.055E-01  2.000E+01  2.000E+04 -1.821E+00
   1    9   27     2     4    1.4817E+05 -5.1039E+04   1.9921E+05  0.000E+00  0.000E+00  0.000E+00  3.96196E+01  2.446E-01  2.000E+01  2.000E+04 -2.552E+00
   1   10   26     2     5    1.9921E+05 -3.7430E+04   2.3664E+05  0.000E+00  0.000E+00  0.000E+00  3.94053E+01  2.803E-01  2.000E+01  2.000E+04 -1.872E+00
   1   11   25     2     6    2.3664E+05 -2.9008E+04   2.6564E+05  0.000E+00  0.000E+00  0.000E+00  3.91802E+01  3.052E-01  2.000E+01  2.000E+04 -1.450E+00
   1   12   24     2     7    2.6564E+05 -2.1986E+04   2.8763E+05  0.000E+00  0.000E+00  0.000E+00  3.89484E+01  3.234E-01  2.000E+01  2.000E+04 -1.099E+00
   1   13   23     2     8    2.8763E+05 -1.5789E+04   3.0342E+05  0.000E+00  0.000E+00  0.000E+00  3.87115E+01  3.365E-01  2.000E+01  2.000E+04 -7.895E-01
   1   14   22     2     9    3.0342E+05 -8.1651E+03   3.1158E+05  0.000E+00  0.000E+00  0.000E+00  3.84696E+01  3.446E-01  2.000E+01  2.000E+04 -4.083E-01
   1   14   22     3     1    1.1438E+06 -1.6042E+04   1.1599E+06  0.000E+00  0.000E+00  0.000E+00  3.80757E+01  5.202E-01  2.000E+01  2.000E+04 -8.021E-01
   1   15   23     3     2    1.1599E+06 -2.5350E+04   1.1852E+06  0.000E+00  0.000E+00  0.000E+00  3.71924E+01  5.258E-01  2.000E+01  2.000E+04 -1.268E+00
   1   15   24     3     3    1.1852E+06 -2.1746E+04   1.2070E+06  0.000E+00  0.000E+00  0.000E+00  3.63098E+01  5.321E-01  2.000E+01  2.000E+04 -1.087E+00
   1   15   25     3     4    1.2070E+06 -2.1742E+04   1.2287E+06  0.000E+00  0.000E+00  0.000E+00  3.54267E+01  5.378E-01  2.000E+01  2.000E+04 -1.087E+00
   1   15   26     3     5    1.2287E+06 -2.5311E+04   1.2540E+06  0.000E+00  0.000E+00  0.000E+00  3.45441E+01  5.441E-01  2.000E+01  2.000E+04 -1.266E+00
   1   16   27     3     6    1.2540E+06 -3.2957E+04   1.2870E+06  0.000E+00  0.000E+00  0.000E+00  3.36628E+01  5.517E-01  2.000E+01  2.000E+04 -1.648E+00
   1   17   28     3     7    1.2870E+06 -4.0000E+04   1.3270E+06  0.000E+00  0.000E+00  0.000E+00  3.27834E+01  5.611E-01  2.000E+01  2.000E+04 -2.000E+00
   1   18   29     3     8    1.3270E+06 -5.0498E+04   1.3775E+06  0.000E+00  0.000E+00  0.000E+00  3.19060E+01  5.727E-01  2.000E+01  2.000E+04 -2.525E+00
   1   18   30     3     9    1.3775E+06 -4.6588E+04   1.4241E+06  0.000E+00  0.000E+00  0.000E+00  3.10294E+01  5.850E-01  2.000E+01  2.000E+04 -2.329E+00



1
              HEAD IN LAYER   1 AT END OF TIME STEP   1 IN STRESS PERIOD    1
  ---------------------------------------------------------------------------

          1      2      3      4      5      6      7      8      9     10
         11     12     13     14     15     16     17     18     19     20
         21     22     23     24     25     26     27     28     29     30
 .........................................................................
   1  ****** ****** ****** ****** ****** ****** ****** ****** ****** ******
      ****** ****** ****** ****** ****** ****** ****** ****** ****** ******
      ****** ****** ****** ****** ****** ****** ****** ****** ****** ******
   2  ****** ****** ****** ****** ****** ****** ****** ****** ****** ******
      ****** ****** ****** ****** ****** ****** ****** ****** ****** ******
      ****** ****** ****** ****** ****** ****** ****** ****** ****** ******
   3  ****** ****** ****** ****** ****** ****** ****** ****** ****** ******
      ****** ****** ****** ****** ****** ****** ****** ****** ****** ******
      ****** ****** ****** ****** ****** ****** ****** ****** ****** ******
   4  ****** ****** ****** ****** ****** ****** ****** ****** ****** ******
      ****** ****** ****** ****** ****** ****** ****** ****** ****** ******
      ****** ****** ****** ****** ****** ****** ****** ****** ****** ******
   5  ****** ****** ****** ****** ****** ****** ****** ****** ****** ******
      ****** ****** ****** ****** ****** ****** ****** ****** ****** ******
      ****** ****** ****** ****** ****** ****** ****** ****** ****** ******
   6  ****** ****** ****** ****** ****** ****** ****** ****** ****** ******
      ****** ****** ****** ****** ****** ****** ****** ****** ****** ******
      ****** ****** ****** ****** ****** ****** ****** ****** ****** ******
   7  ****** ****** ****** ****** ****** ****** ****** ****** ****** ******
      ****** ****** ****** ****** ****** ****** ****** ****** ****** ******
      ****** ****** ****** ****** ****** ****** ****** ****** ****** ******
   8  ****** ****** ****** ****** ****** ****** ****** ****** ****** ******
      ****** ****** ****** ****** ****** ****** ****** ****** ****** ******
      ****** ****** ****** ****** ****** ****** ****** ****** ****** ******
   9  ****** ****** ****** ****** ****** ****** ****** ****** ****** ******
      ****** ****** ****** ****** ****** ****** ****** ****** ****** ******
      ****** ****** ****** ****** ****** ****** ****** ****** ****** ******
  10  ****** ****** ****** ****** ****** ****** ****** ****** ****** ******
      ****** ****** ****** ****** ****** ****** ****** ****** ****** ******
      ****** ****** ****** ****** ****** ****** ****** ****** ****** ******
  11  ****** ****** ****** ****** ****** ****** ****** ****** ****** ******
      ****** ****** ****** ****** ****** ****** ****** ****** ****** ******
      ****** ****** ****** ****** ****** ****** ****** ****** ****** ******
  12  ****** ****** ****** ****** ****** ****** ****** ****** ****** ******
      ****** ****** ****** ****** ****** ****** ****** ****** ****** ******
      ****** ****** ****** ****** ****** ****** ****** ****** ****** ******
  13  ****** ****** ****** ****** ****** ****** ****** ****** ****** ******
      ****** ****** ****** ****** ****** ****** ****** ****** ****** ******
      ****** ****** ****** ****** ****** ****** ****** ****** ****** ******
  14  ****** ****** ****** ****** ****** ****** ****** ****** ****** ******
      ****** ****** ****** ****** ****** ****** ****** ****** ****** ******
      ****** ****** ****** ****** ****** ****** ****** ****** ****** ******
  15  ****** ****** ****** ****** ****** ****** ****** ****** ****** ******
      ****** ****** ****** ****** ****** ****** ****** ****** ****** ******
      ****** ****** ****** ****** ****** ****** ****** ****** ****** ******
  16  ****** ****** ****** ****** ****** ****** ****** ****** ****** ******
      ****** ****** ****** ****** ****** ****** ****** ****** ****** ******
      ****** ****** ****** ****** ****** ****** ****** ****** ****** ******
  17  ****** ****** ****** ****** ****** ****** ****** ****** ****** ******
      ****** ****** ****** ****** ****** ****** ****** ****** ****** ******
      ****** ****** ****** ****** ****** ****** ****** ****** ****** ******
  18  ****** ****** ****** ****** ****** ****** ****** ****** ****** ******
      ****** ****** ****** ****** ****** ****** ****** ****** ****** ******
      ****** ****** ****** ****** ****** ****** ****** ****** ****** ******
  19  ****** ****** ****** ****** ****** ****** ****** ****** ****** ******
      ****** ****** ****** ****** ****** ****** ****** ****** ****** ******
      ****** ****** ****** ****** ****** ****** ****** ****** ****** ******
  20  ****** ****** ****** ****** ****** ****** ****** ****** ****** ******
      ****** ****** ****** ****** ****** ****** ****** ****** ****** ******
      ****** ****** ****** ****** ****** ****** ****** ****** ****** ******
  21  ****** ****** ****** ****** ****** ****** ****** ****** ****** ******
      ****** ****** ****** ****** ****** ****** ****** ****** ****** ******
      ****** ****** ****** ****** ****** ****** ****** ****** ****** ******
  22  ****** ****** ****** ****** ****** ****** ****** ****** ****** ******
      ****** ****** ****** ****** ****** ****** ****** ****** ****** ******
      ****** ****** ****** ****** ****** ****** ****** ****** ****** ******
  23  ****** ****** ****** ****** ****** ****** ****** ****** ****** ******
      ****** ****** ****** ****** ****** ****** ****** ****** ****** ******
      ****** ****** ****** ****** ****** ****** ****** ****** ****** ******
  24  ****** ****** ****** ****** ****** ****** ****** ****** ****** ******
      ****** ****** ****** ****** ****** ****** ****** ****** ****** ******
      ****** ****** ****** ****** ****** ****** ****** ****** ****** ******
  25  ****** ****** ****** ****** ****** ****** ****** ****** ****** ******
      ****** ****** ****** ****** ****** ****** ****** ****** ****** ******
      ****** ****** ****** ****** ****** ****** ****** ****** ****** ******

 HEAD WILL BE SAVED ON UNIT   51 AT END OF TIME STEP    1, STRESS PERIOD    1
1
  VOLUMETRIC BUDGET FOR ENTIRE MODEL AT END OF TIME STEP    1, STRESS PERIOD   1
  ------------------------------------------------------------------------------

     CUMULATIVE VOLUMES      L**3       RATES FOR THIS TIME STEP      L**3/T
     ------------------                 ------------------------

           IN:                                      IN:
           ---                                      ---
             STORAGE =    19119485.5618               STORAGE =      207820.4952
       CONSTANT HEAD =   101746988.4886         CONSTANT HEAD =     1105945.5270
               WELLS =           0.0000                 WELLS =           0.0000
            RECHARGE =     1269600.0000              RECHARGE =       13800.0000
      STREAM LEAKAGE =           0.0000        STREAM LEAKAGE =           0.0000

            TOTAL IN =   122136074.0503              TOTAL IN =     1327566.0223

          OUT:                                     OUT:
          ----                                     ----
             STORAGE =           0.0000               STORAGE =           0.0000
       CONSTANT HEAD =           0.0000         CONSTANT HEAD =           0.0000
               WELLS =     4920563.3889                 WELLS =       53484.3847
            RECHARGE =           0.0000              RECHARGE =           0.0000
      STREAM LEAKAGE =   117215512.5349        STREAM LEAKAGE =     1274081.6580

           TOTAL OUT =   122136075.9238             TOTAL OUT =     1327566.0427

            IN - OUT =          -1.8735              IN - OUT =      -2.0364E-02

 PERCENT DISCREPANCY =          -0.00     PERCENT DISCREPANCY =          -0.00






         TIME SUMMARY AT END OF TIME STEP    1 IN STRESS PERIOD    1
                    SECONDS     MINUTES      HOURS       DAYS        YEARS
                    -----------------------------------------------------------
   TIME STEP LENGTH 7.94880E+06 1.32480E+05  2208.0      92.000     0.25188    
 STRESS PERIOD TIME 7.94880E+06 1.32480E+05  2208.0      92.000     0.25188    
         TOTAL TIME 7.94880E+06 1.32480E+05  2208.0      92.000     0.25188    
1
1
                            STRESS PERIOD NO.    2, LENGTH =   91.00000    
                            -----------------------------------------------

                              NUMBER OF TIME STEPS =     1

                               MULTIPLIER FOR DELT =     1.500

                            INITIAL TIME STEP SIZE =   91.00000    

 WELL NO.  LAYER   ROW   COL   STRESS RATE         
 --------------------------------------------------
      1      1     12     11      -3484.    
      2      1     16     17     -0.2750E+05
      3      1     14     25     -0.5152E+05

      3 WELLS

                 RECHARGE =  2.000000E-03

 REUSING STREAM SEGMENT DATA FROM LAST STRESS PERIOD
 
 SOLVING FOR HEAD 


     6 CALLS TO PCG ROUTINE FOR TIME STEP   1 IN STRESS PERIOD    2
    24 TOTAL ITERATIONS

 OUTPUT CONTROL FOR STRESS PERIOD    2   TIME STEP    1
    SAVE BUDGET
    SAVE HEAD FOR ALL LAYERS
    PRINT HEAD FOR ALL LAYERS
 UBDSV2 SAVING "STREAMFLOW OUT  " ON UNIT  50 AT TIME STEP  1, STRESS PERIOD   2



 STREAM LISTING     PERIOD      2   STEP        1

 LAYER ROW COL. STREAM  RCH.  FLOW INTO     FLOW TO   FLOW OUT OF   OVRLND.     DIRECT     STREAM       STREAM     STREAM     STREAM   STREAMBED  STREAMBED
                SEG.NO.  NO.  STRM. RCH.    AQUIFER    STRM. RCH.    RUNOFF     PRECIP       ET          HEAD       DEPTH      WIDTH   CONDCTNC.   GRADIENT

   1   13    1     1     1    1.0000E+05 -2.8479E+04   1.2848E+05  0.000E+00  0.000E+00  0.000E+00  4.84180E+01  1.567E-01  2.000E+01  2.000E+04 -1.424E+00
   1   13    2     1     2    1.2848E+05 -3.8341E+04   1.6682E+05  0.000E+00  0.000E+00  0.000E+00  4.79668E+01  1.828E-01  2.000E+01  2.000E+04 -1.917E+00
   1   14    3     1     3    1.6682E+05 -3.3773E+04   2.0059E+05  0.000E+00  0.000E+00  0.000E+00  4.75152E+01  2.084E-01  2.000E+01  2.000E+04 -1.689E+00
   1   15    4     1     4    2.0059E+05 -3.2957E+04   2.3355E+05  0.000E+00  0.000E+00  0.000E+00  4.70598E+01  2.303E-01  2.000E+01  2.000E+04 -1.648E+00
   1   16    5     1     5    2.3355E+05 -3.4389E+04   2.6794E+05  0.000E+00  0.000E+00  0.000E+00  4.66034E+01  2.511E-01  2.000E+01  2.000E+04 -1.719E+00
   1   16    6     1     6    2.6794E+05 -3.0010E+04   2.9795E+05  0.000E+00  0.000E+00  0.000E+00  4.61450E+01  2.700E-01  2.000E+01  2.000E+04 -1.500E+00
   1   16    7     1     7    2.9795E+05 -2.9783E+04   3.2773E+05  0.000E+00  0.000E+00  0.000E+00  4.56845E+01  2.868E-01  2.000E+01  2.000E+04 -1.489E+00
   1   16    8     1     8    3.2773E+05 -2.9904E+04   3.5764E+05  0.000E+00  0.000E+00  0.000E+00  4.52233E+01  3.029E-01  2.000E+01  2.000E+04 -1.495E+00
   1   16    9     1     9    3.5764E+05 -2.9893E+04   3.8753E+05  0.000E+00  0.000E+00  0.000E+00  4.47616E+01  3.185E-01  2.000E+01  2.000E+04 -1.495E+00
   1   16   10     1    10    3.8753E+05 -2.9784E+04   4.1731E+05  0.000E+00  0.000E+00  0.000E+00  4.42994E+01  3.335E-01  2.000E+01  2.000E+04 -1.489E+00
   1   16   11     1    11    4.1731E+05 -3.0155E+04   4.4747E+05  0.000E+00  0.000E+00  0.000E+00  4.38369E+01  3.482E-01  2.000E+01  2.000E+04 -1.508E+00
   1   16   12     1    12    4.4747E+05 -3.5062E+04   4.8253E+05  0.000E+00  0.000E+00  0.000E+00  4.33751E+01  3.637E-01  2.000E+01  2.000E+04 -1.753E+00
   1   15   13     1    13    4.8253E+05 -3.3223E+04   5.1575E+05  0.000E+00  0.000E+00  0.000E+00  4.29136E+01  3.795E-01  2.000E+01  2.000E+04 -1.661E+00
   1   14   14     1    14    5.1575E+05 -3.3434E+04   5.4919E+05  0.000E+00  0.000E+00  0.000E+00  4.24514E+01  3.945E-01  2.000E+01  2.000E+04 -1.672E+00
   1   13   15     1    15    5.4919E+05 -3.5873E+04   5.8506E+05  0.000E+00  0.000E+00  0.000E+00  4.19893E+01  4.098E-01  2.000E+01  2.000E+04 -1.794E+00
   1   12   16     1    16    5.8506E+05 -4.2848E+04   6.2791E+05  0.000E+00  0.000E+00  0.000E+00  4.15289E+01  4.266E-01  2.000E+01  2.000E+04 -2.142E+00
   1   12   17     1    17    6.2791E+05 -3.3139E+04   6.6105E+05  0.000E+00  0.000E+00  0.000E+00  4.10674E+01  4.424E-01  2.000E+01  2.000E+04 -1.657E+00
   1   12   18     1    18    6.6105E+05 -3.1597E+04   6.9264E+05  0.000E+00  0.000E+00  0.000E+00  4.06034E+01  4.556E-01  2.000E+01  2.000E+04 -1.580E+00
   1   12   19     1    19    6.9264E+05 -3.5939E+04   7.2858E+05  0.000E+00  0.000E+00  0.000E+00  4.01396E+01  4.691E-01  2.000E+01  2.000E+04 -1.797E+00
   1   13   20     1    20    7.2858E+05 -2.5506E+04   7.5409E+05  0.000E+00  0.000E+00  0.000E+00  3.96744E+01  4.812E-01  2.000E+01  2.000E+04 -1.275E+00
   1   14   21     1    21    7.5409E+05 -1.8243E+04   7.7233E+05  0.000E+00  0.000E+00  0.000E+00  3.92056E+01  4.897E-01  2.000E+01  2.000E+04 -9.121E-01
   1   14   22     1    22    7.7233E+05 -7.8810E+02   7.7312E+05  0.000E+00  0.000E+00  0.000E+00  3.87320E+01  4.933E-01  2.000E+01  2.000E+04 -3.941E-02
   1    9   30     2     1    5.0000E+04 -2.6484E+04   7.6484E+04  0.000E+00  0.000E+00  0.000E+00  4.02584E+01  1.334E-01  2.000E+01  2.000E+04 -1.324E+00
   1    9   29     2     2    7.6484E+04 -2.8926E+04   1.0541E+05  0.000E+00  0.000E+00  0.000E+00  4.00409E+01  1.659E-01  2.000E+01  2.000E+04 -1.446E+00
   1    9   28     2     3    1.0541E+05 -3.3190E+04   1.3860E+05  0.000E+00  0.000E+00  0.000E+00  3.98229E+01  1.979E-01  2.000E+01  2.000E+04 -1.660E+00
   1    9   27     2     4    1.3860E+05 -4.7365E+04   1.8596E+05  0.000E+00  0.000E+00  0.000E+00  3.96098E+01  2.348E-01  2.000E+01  2.000E+04 -2.368E+00
   1   10   26     2     5    1.8596E+05 -3.2516E+04   2.1848E+05  0.000E+00  0.000E+00  0.000E+00  3.93930E+01  2.680E-01  2.000E+01  2.000E+04 -1.626E+00
   1   11   25     2     6    2.1848E+05 -2.2591E+04   2.4107E+05  0.000E+00  0.000E+00  0.000E+00  3.91643E+01  2.893E-01  2.000E+01  2.000E+04 -1.130E+00
   1   12   24     2     7    2.4107E+05 -1.4418E+04   2.5549E+05  0.000E+00  0.000E+00  0.000E+00  3.89281E+01  3.031E-01  2.000E+01  2.000E+04 -7.209E-01
   1   13   23     2     8    2.5549E+05 -9.6459E+03   2.6514E+05  0.000E+00  0.000E+00  0.000E+00  3.86868E+01  3.118E-01  2.000E+01  2.000E+04 -4.823E-01
   1   14   22     2     9    2.6514E+05 -6.5757E+03   2.7171E+05  0.000E+00  0.000E+00  0.000E+00  3.84426E+01  3.176E-01  2.000E+01  2.000E+04 -3.288E-01
   1   14   22     3     1    1.0448E+06 -1.4464E+04   1.0593E+06  0.000E+00  0.000E+00  0.000E+00  3.80482E+01  4.926E-01  2.000E+01  2.000E+04 -7.232E-01
   1   15   23     3     2    1.0593E+06 -2.1080E+04   1.0804E+06  0.000E+00  0.000E+00  0.000E+00  3.71643E+01  4.976E-01  2.000E+01  2.000E+04 -1.054E+00
   1   15   24     3     3    1.0804E+06 -1.4044E+04   1.0944E+06  0.000E+00  0.000E+00  0.000E+00  3.62803E+01  5.025E-01  2.000E+01  2.000E+04 -7.022E-01
   1   15   25     3     4    1.0944E+06 -7.5583E+03   1.1020E+06  0.000E+00  0.000E+00  0.000E+00  3.53944E+01  5.055E-01  2.000E+01  2.000E+04 -3.779E-01
   1   15   26     3     5    1.1020E+06 -1.5556E+04   1.1175E+06  0.000E+00  0.000E+00  0.000E+00  3.45087E+01  5.087E-01  2.000E+01  2.000E+04 -7.778E-01
   1   16   27     3     6    1.1175E+06 -2.7409E+04   1.1449E+06  0.000E+00  0.000E+00  0.000E+00  3.36257E+01  5.146E-01  2.000E+01  2.000E+04 -1.370E+00
   1   17   28     3     7    1.1449E+06 -3.5715E+04   1.1807E+06  0.000E+00  0.000E+00  0.000E+00  3.27453E+01  5.231E-01  2.000E+01  2.000E+04 -1.786E+00
   1   18   29     3     8    1.1807E+06 -4.7243E+04   1.2279E+06  0.000E+00  0.000E+00  0.000E+00  3.18676E+01  5.342E-01  2.000E+01  2.000E+04 -2.362E+00
   1   18   30     3     9    1.2279E+06 -4.3689E+04   1.2716E+06  0.000E+00  0.000E+00  0.000E+00  3.09907E+01  5.463E-01  2.000E+01  2.000E+04 -2.184E+00



1
              HEAD IN LAYER   1 AT END OF TIME STEP   1 IN STRESS PERIOD    2
  ---------------------------------------------------------------------------

          1      2      3      4      5      6      7      8      9     10
         11     12     13     14     15     16     17     18     19     20
         21     22     23     24     25     26     27     28     29     30
 .........................................................................
   1  ****** ****** ****** ****** ****** ****** ****** ****** ****** ******
      ****** ****** ****** ****** ****** ****** ****** ****** ****** ******
      ****** ****** ****** ****** ****** ****** ****** ****** ****** ******
   2  ****** ****** ****** ****** ****** ****** ****** ****** ****** ******
      ****** ****** ****** ****** ****** ****** ****** ****** ****** ******
      ****** ****** ****** ****** ****** ****** ****** ****** ****** ******
   3  ****** ****** ****** ****** ****** ****** ****** ****** ****** ******
      ****** ****** ****** ****** ****** ****** ****** ****** ****** ******
      ****** ****** ****** ****** ****** ****** ****** ****** ****** ******
   4  ****** ****** ****** ****** ****** ****** ****** ****** ****** ******
      ****** ****** ****** ****** ****** ****** ****** ****** ****** ******
      ****** ****** ****** ****** ****** ****** ****** ****** ****** ******
   5  ****** ****** ****** ****** ****** ****** ****** ****** ****** ******
      ****** ****** ****** ****** ****** ****** ****** ****** ****** ******
      ****** ****** ****** ****** ****** ****** ****** ****** ****** ******
   6  ****** ****** ****** ****** ****** ****** ****** ****** ****** ******
      ****** ****** ****** ****** ****** ****** ****** ****** ****** ******
      ****** ****** ****** ****** ****** ****** ****** ****** ****** ******
   7  ****** ****** ****** ****** ****** ****** ****** ****** ****** ******
      ****** ****** ****** ****** ****** ****** ****** ****** ****** ******
      ****** ****** ****** ****** ****** ****** ****** ****** ****** ******
   8  ****** ****** ****** ****** ****** ****** ****** ****** ****** ******
      ****** ****** ****** ****** ****** ****** ****** ****** ****** ******
      ****** ****** ****** ****** ****** ****** ****** ****** ****** ******
   9  ****** ****** ****** ****** ****** ****** ****** ****** ****** ******
      ****** ****** ****** ****** ****** ****** ****** ****** ****** ******
      ****** ****** ****** ****** ****** ****** ****** ****** ****** ******
  10  ****** ****** ****** ****** ****** ****** ****** ****** ****** ******
      ****** ****** ****** ****** ****** ****** ****** ****** ****** ******
      ****** ****** ****** ****** ****** ****** ****** ****** ****** ******
  11  ****** ****** ****** ****** ****** ****** ****** ****** ****** ******
      ****** ****** ****** ****** ****** ****** ****** ****** ****** ******
      ****** ****** ****** ****** ****** ****** ****** ****** ****** ******
  12  ****** ****** ****** ****** ****** ****** ****** ****** ****** ******
      ****** ****** ****** ****** ****** ****** ****** ****** ****** ******
      ****** ****** ****** ****** ****** ****** ****** ****** ****** ******
  13  ****** ****** ****** ****** ****** ****** ****** ****** ****** ******
      ****** ****** ****** ****** ****** ****** ****** ****** ****** ******
      ****** ****** ****** ****** ****** ****** ****** ****** ****** ******
  14  ****** ****** ****** ****** ****** ****** ****** ****** ****** ******
      ****** ****** ****** ****** ****** ****** ****** ****** ****** ******
      ****** ****** ****** ****** ****** ****** ****** ****** ****** ******
  15  ****** ****** ****** ****** ****** ****** ****** ****** ****** ******
      ****** ****** ****** ****** ****** ****** ****** ****** ****** ******
      ****** ****** ****** ****** ****** ****** ****** ****** ****** ******
  16  ****** ****** ****** ****** ****** ****** ****** ****** ****** ******
      ****** ****** ****** ****** ****** ****** ****** ****** ****** ******
      ****** ****** ****** ****** ****** ****** ****** ****** ****** ******
  17  ****** ****** ****** ****** ****** ****** ****** ****** ****** ******
      ****** ****** ****** ****** ****** ****** ****** ****** ****** ******
      ****** ****** ****** ****** ****** ****** ****** ****** ****** ******
  18  ****** ****** ****** ****** ****** ****** ****** ****** ****** ******
      ****** ****** ****** ****** ****** ****** ****** ****** ****** ******
      ****** ****** ****** ****** ****** ****** ****** ****** ****** ******
  19  ****** ****** ****** ****** ****** ****** ****** ****** ****** ******
      ****** ****** ****** ****** ****** ****** ****** ****** ****** ******
      ****** ****** ****** ****** ****** ****** ****** ****** ****** ******
  20  ****** ****** ****** ****** ****** ****** ****** ****** ****** ******
      ****** ****** ****** ****** ****** ****** ****** ****** ****** ******
      ****** ****** ****** ****** ****** ****** ****** ****** ****** ******
  21  ****** ****** ****** ****** ****** ****** ****** ****** ****** ******
      ****** ****** ****** ****** ****** ****** ****** ****** ****** ******
      ****** ****** ****** ****** ****** ****** ****** ****** ****** ******
  22  ****** ****** ****** ****** ****** ****** ****** ****** ****** ******
      ****** ****** ****** ****** ****** ****** ****** ****** ****** ******
      ****** ****** ****** ****** ****** ****** ****** ****** ****** ******
  23  ****** ****** ****** ****** ****** ****** ****** ****** ****** ******
      ****** ****** ****** ****** ****** ****** ****** ****** ****** ******
      ****** ****** ****** ****** ****** ****** ****** ****** ****** ******
  24  ****** ****** ****** ****** ****** ****** ****** ****** ****** ******
      ****** ****** ****** ****** ****** ****** ****** ****** ****** ******
      ****** ****** ****** ****** ****** ****** ****** ****** ****** ******
  25  ****** ****** ****** ****** ****** ****** ****** ****** ****** ******
      ****** ****** ****** ****** ****** ****** ****** ****** ****** ******
      ****** ****** ****** ****** ****** ****** ****** ****** ****** ******

 HEAD WILL BE SAVED ON UNIT   51 AT END OF TIME STEP    1, STRESS PERIOD    2
1
  VOLUMETRIC BUDGET FOR ENTIRE MODEL AT END OF TIME STEP    1, STRESS PERIOD   2
  ------------------------------------------------------------------------------

     CUMULATIVE VOLUMES      L**3       RATES FOR THIS TIME STEP      L**3/T
     ------------------                 ------------------------

           IN:                                      IN:
           ---                                      ---
             STORAGE =    19767213.7553               STORAGE =        7117.8922
       CONSTANT HEAD =   205657407.1848         CONSTANT HEAD =     1141872.7329
               WELLS =           0.0000                 WELLS =           0.0000
            RECHARGE =     6292800.0000              RECHARGE =       55200.0000
      STREAM LEAKAGE =           0.0000        STREAM LEAKAGE =           0.0000

            TOTAL IN =   231717420.9402              TOTAL IN =     1204190.6252

          OUT:                                     OUT:
          ----                                     ----
             STORAGE =        9071.3826               STORAGE =          99.6855
       CONSTANT HEAD =           0.0000         CONSTANT HEAD =           0.0000
               WELLS =    12428131.6389                 WELLS =       82500.7500
            RECHARGE =           0.0000              RECHARGE =           0.0000
      STREAM LEAKAGE =   219280225.5627        STREAM LEAKAGE =     1121590.2531

           TOTAL OUT =   231717428.5842             TOTAL OUT =     1204190.6886

            IN - OUT =          -7.6440              IN - OUT =      -6.3413E-02

 PERCENT DISCREPANCY =          -0.00     PERCENT DISCREPANCY =          -0.00






         TIME SUMMARY AT END OF TIME STEP    1 IN STRESS PERIOD    2
                    SECONDS     MINUTES      HOURS       DAYS        YEARS
                    -----------------------------------------------------------
   TIME STEP LENGTH 7.86240E+06 1.31040E+05  2184.0      91.000     0.24914    
 STRESS PERIOD TIME 7.86240E+06 1.31040E+05  2184.0      91.000     0.24914    
         TOTAL TIME 1.58112E+07 2.63520E+05  4392.0      183.00     0.50103    
1
1
                            STRESS PERIOD NO.    3, LENGTH =   91.00000    
                            -----------------------------------------------

                              NUMBER OF TIME STEPS =     1

                               MULTIPLIER FOR DELT =     1.500

                            INITIAL TIME STEP SIZE =   91.00000    

 WELL NO.  LAYER   ROW   COL   STRESS RATE         
 --------------------------------------------------
      1      1     12     11      -3484.    
      2      1     16     17     -0.2691E+05

      2 WELLS

                 RECHARGE =   0.00000    

 REUSING STREAM SEGMENT DATA FROM LAST STRESS PERIOD
 
 SOLVING FOR HEAD 


     6 CALLS TO PCG ROUTINE FOR TIME STEP   1 IN STRESS PERIOD    3
    23 TOTAL ITERATIONS

 OUTPUT CONTROL FOR STRESS PERIOD    3   TIME STEP    1
    SAVE BUDGET
    SAVE HEAD FOR ALL LAYERS
    PRINT HEAD FOR ALL LAYERS
 UBDSV2 SAVING "STREAMFLOW OUT  " ON UNIT  50 AT TIME STEP  1, STRESS PERIOD   3



 STREAM LISTING     PERIOD      3   STEP        1

 LAYER ROW COL. STREAM  RCH.  FLOW INTO     FLOW TO   FLOW OUT OF   OVRLND.     DIRECT     STREAM       STREAM     STREAM     STREAM   STREAMBED  STREAMBED
                SEG.NO.  NO.  STRM. RCH.    AQUIFER    STRM. RCH.    RUNOFF     PRECIP       ET          HEAD       DEPTH      WIDTH   CONDCTNC.   GRADIENT

   1   13    1     1     1    1.0000E+05 -2.7451E+04   1.2745E+05  0.000E+00  0.000E+00  0.000E+00  4.84176E+01  1.563E-01  2.000E+01  2.000E+04 -1.373E+00
   1   13    2     1     2    1.2745E+05 -3.7104E+04   1.6455E+05  0.000E+00  0.000E+00  0.000E+00  4.79656E+01  1.815E-01  2.000E+01  2.000E+04 -1.855E+00
   1   14    3     1     3    1.6455E+05 -3.2579E+04   1.9713E+05  0.000E+00  0.000E+00  0.000E+00  4.75132E+01  2.064E-01  2.000E+01  2.000E+04 -1.629E+00
   1   15    4     1     4    1.9713E+05 -3.1820E+04   2.2895E+05  0.000E+00  0.000E+00  0.000E+00  4.70573E+01  2.277E-01  2.000E+01  2.000E+04 -1.591E+00
   1   16    5     1     5    2.2895E+05 -3.3378E+04   2.6233E+05  0.000E+00  0.000E+00  0.000E+00  4.66003E+01  2.480E-01  2.000E+01  2.000E+04 -1.669E+00
   1   16    6     1     6    2.6233E+05 -2.9129E+04   2.9146E+05  0.000E+00  0.000E+00  0.000E+00  4.61415E+01  2.665E-01  2.000E+01  2.000E+04 -1.456E+00
   1   16    7     1     7    2.9146E+05 -2.8911E+04   3.2037E+05  0.000E+00  0.000E+00  0.000E+00  4.56807E+01  2.829E-01  2.000E+01  2.000E+04 -1.446E+00
   1   16    8     1     8    3.2037E+05 -2.9032E+04   3.4940E+05  0.000E+00  0.000E+00  0.000E+00  4.52192E+01  2.987E-01  2.000E+01  2.000E+04 -1.452E+00
   1   16    9     1     9    3.4940E+05 -2.9027E+04   3.7843E+05  0.000E+00  0.000E+00  0.000E+00  4.47572E+01  3.140E-01  2.000E+01  2.000E+04 -1.451E+00
   1   16   10     1    10    3.7843E+05 -2.8929E+04   4.0736E+05  0.000E+00  0.000E+00  0.000E+00  4.42947E+01  3.288E-01  2.000E+01  2.000E+04 -1.446E+00
   1   16   11     1    11    4.0736E+05 -2.9306E+04   4.3667E+05  0.000E+00  0.000E+00  0.000E+00  4.38318E+01  3.432E-01  2.000E+01  2.000E+04 -1.465E+00
   1   16   12     1    12    4.3667E+05 -3.4113E+04   4.7078E+05  0.000E+00  0.000E+00  0.000E+00  4.33698E+01  3.584E-01  2.000E+01  2.000E+04 -1.706E+00
   1   15   13     1    13    4.7078E+05 -3.2178E+04   5.0296E+05  0.000E+00  0.000E+00  0.000E+00  4.29080E+01  3.739E-01  2.000E+01  2.000E+04 -1.609E+00
   1   14   14     1    14    5.0296E+05 -3.2361E+04   5.3532E+05  0.000E+00  0.000E+00  0.000E+00  4.24454E+01  3.886E-01  2.000E+01  2.000E+04 -1.618E+00
   1   13   15     1    15    5.3532E+05 -3.4802E+04   5.7012E+05  0.000E+00  0.000E+00  0.000E+00  4.19830E+01  4.035E-01  2.000E+01  2.000E+04 -1.740E+00
   1   12   16     1    16    5.7012E+05 -4.1783E+04   6.1190E+05  0.000E+00  0.000E+00  0.000E+00  4.15223E+01  4.200E-01  2.000E+01  2.000E+04 -2.089E+00
   1   12   17     1    17    6.1190E+05 -3.2328E+04   6.4423E+05  0.000E+00  0.000E+00  0.000E+00  4.10606E+01  4.356E-01  2.000E+01  2.000E+04 -1.616E+00
   1   12   18     1    18    6.4423E+05 -3.0860E+04   6.7509E+05  0.000E+00  0.000E+00  0.000E+00  4.05964E+01  4.487E-01  2.000E+01  2.000E+04 -1.543E+00
   1   12   19     1    19    6.7509E+05 -3.5200E+04   7.1029E+05  0.000E+00  0.000E+00  0.000E+00  4.01325E+01  4.620E-01  2.000E+01  2.000E+04 -1.760E+00
   1   13   20     1    20    7.1029E+05 -2.4976E+04   7.3527E+05  0.000E+00  0.000E+00  0.000E+00  3.96671E+01  4.739E-01  2.000E+01  2.000E+04 -1.249E+00
   1   14   21     1    21    7.3527E+05 -1.7959E+04   7.5323E+05  0.000E+00  0.000E+00  0.000E+00  3.91983E+01  4.823E-01  2.000E+01  2.000E+04 -8.980E-01
   1   14   22     1    22    7.5323E+05 -1.3839E+03   7.5461E+05  0.000E+00  0.000E+00  0.000E+00  3.87247E+01  4.861E-01  2.000E+01  2.000E+04 -6.919E-02
   1    9   30     2     1    5.0000E+04 -2.6322E+04   7.6322E+04  0.000E+00  0.000E+00  0.000E+00  4.02583E+01  1.333E-01  2.000E+01  2.000E+04 -1.316E+00
   1    9   29     2     2    7.6322E+04 -2.8790E+04   1.0511E+05  0.000E+00  0.000E+00  0.000E+00  4.00406E+01  1.656E-01  2.000E+01  2.000E+04 -1.439E+00
   1    9   28     2     3    1.0511E+05 -3.3071E+04   1.3818E+05  0.000E+00  0.000E+00  0.000E+00  3.98225E+01  1.975E-01  2.000E+01  2.000E+04 -1.654E+00
   1    9   27     2     4    1.3818E+05 -4.7147E+04   1.8533E+05  0.000E+00  0.000E+00  0.000E+00  3.96094E+01  2.344E-01  2.000E+01  2.000E+04 -2.357E+00
   1   10   26     2     5    1.8533E+05 -3.3089E+04   2.1842E+05  0.000E+00  0.000E+00  0.000E+00  3.93927E+01  2.677E-01  2.000E+01  2.000E+04 -1.654E+00
   1   11   25     2     6    2.1842E+05 -2.4726E+04   2.4315E+05  0.000E+00  0.000E+00  0.000E+00  3.91651E+01  2.901E-01  2.000E+01  2.000E+04 -1.236E+00
   1   12   24     2     7    2.4315E+05 -1.8148E+04   2.6129E+05  0.000E+00  0.000E+00  0.000E+00  3.89309E+01  3.059E-01  2.000E+01  2.000E+04 -9.074E-01
   1   13   23     2     8    2.6129E+05 -1.2768E+04   2.7406E+05  0.000E+00  0.000E+00  0.000E+00  3.86921E+01  3.171E-01  2.000E+01  2.000E+04 -6.384E-01
   1   14   22     2     9    2.7406E+05 -6.8985E+03   2.8096E+05  0.000E+00  0.000E+00  0.000E+00  3.84490E+01  3.240E-01  2.000E+01  2.000E+04 -3.449E-01
   1   14   22     3     1    1.0356E+06 -1.4965E+04   1.0505E+06  0.000E+00  0.000E+00  0.000E+00  3.80457E+01  4.901E-01  2.000E+01  2.000E+04 -7.483E-01
   1   15   23     3     2    1.0505E+06 -2.2697E+04   1.0732E+06  0.000E+00  0.000E+00  0.000E+00  3.71621E+01  4.954E-01  2.000E+01  2.000E+04 -1.135E+00
   1   15   24     3     3    1.0732E+06 -1.9165E+04   1.0924E+06  0.000E+00  0.000E+00  0.000E+00  3.62790E+01  5.012E-01  2.000E+01  2.000E+04 -9.583E-01
   1   15   25     3     4    1.0924E+06 -1.8892E+04   1.1113E+06  0.000E+00  0.000E+00  0.000E+00  3.53954E+01  5.065E-01  2.000E+01  2.000E+04 -9.446E-01
   1   15   26     3     5    1.1113E+06 -2.1692E+04   1.1330E+06  0.000E+00  0.000E+00  0.000E+00  3.45121E+01  5.121E-01  2.000E+01  2.000E+04 -1.085E+00
   1   16   27     3     6    1.1330E+06 -2.8803E+04   1.1618E+06  0.000E+00  0.000E+00  0.000E+00  3.36301E+01  5.189E-01  2.000E+01  2.000E+04 -1.440E+00
   1   17   28     3     7    1.1618E+06 -3.5891E+04   1.1977E+06  0.000E+00  0.000E+00  0.000E+00  3.27499E+01  5.277E-01  2.000E+01  2.000E+04 -1.795E+00
   1   18   29     3     8    1.1977E+06 -4.6940E+04   1.2446E+06  0.000E+00  0.000E+00  0.000E+00  3.18721E+01  5.387E-01  2.000E+01  2.000E+04 -2.347E+00
   1   18   30     3     9    1.2446E+06 -4.3455E+04   1.2881E+06  0.000E+00  0.000E+00  0.000E+00  3.09950E+01  5.506E-01  2.000E+01  2.000E+04 -2.173E+00



1
              HEAD IN LAYER   1 AT END OF TIME STEP   1 IN STRESS PERIOD    3
  ---------------------------------------------------------------------------

          1      2      3      4      5      6      7      8      9     10
         11     12     13     14     15     16     17     18     19     20
         21     22     23     24     25     26     27     28     29     30
 .........................................................................
   1  ****** ****** ****** ****** ****** ****** ****** ****** ****** ******
      ****** ****** ****** ****** ****** ****** ****** ****** ****** ******
      ****** ****** ****** ****** ****** ****** ****** ****** ****** ******
   2  ****** ****** ****** ****** ****** ****** ****** ****** ****** ******
      ****** ****** ****** ****** ****** ****** ****** ****** ****** ******
      ****** ****** ****** ****** ****** ****** ****** ****** ****** ******
   3  ****** ****** ****** ****** ****** ****** ****** ****** ****** ******
      ****** ****** ****** ****** ****** ****** ****** ****** ****** ******
      ****** ****** ****** ****** ****** ****** ****** ****** ****** ******
   4  ****** ****** ****** ****** ****** ****** ****** ****** ****** ******
      ****** ****** ****** ****** ****** ****** ****** ****** ****** ******
      ****** ****** ****** ****** ****** ****** ****** ****** ****** ******
   5  ****** ****** ****** ****** ****** ****** ****** ****** ****** ******
      ****** ****** ****** ****** ****** ****** ****** ****** ****** ******
      ****** ****** ****** ****** ****** ****** ****** ****** ****** ******
   6  ****** ****** ****** ****** ****** ****** ****** ****** ****** ******
      ****** ****** ****** ****** ****** ****** ****** ****** ****** ******
      ****** ****** ****** ****** ****** ****** ****** ****** ****** ******
   7  ****** ****** ****** ****** ****** ****** ****** ****** ****** ******
      ****** ****** ****** ****** ****** ****** ****** ****** ****** ******
      ****** ****** ****** ****** ****** ****** ****** ****** ****** ******
   8  ****** ****** ****** ****** ****** ****** ****** ****** ****** ******
      ****** ****** ****** ****** ****** ****** ****** ****** ****** ******
      ****** ****** ****** ****** ****** ****** ****** ****** ****** ******
   9  ****** ****** ****** ****** ****** ****** ****** ****** ****** ******
      ****** ****** ****** ****** ****** ****** ****** ****** ****** ******
      ****** ****** ****** ****** ****** ****** ****** ****** ****** ******
  10  ****** ****** ****** ****** ****** ****** ****** ****** ****** ******
      ****** ****** ****** ****** ****** ****** ****** ****** ****** ******
      ****** ****** ****** ****** ****** ****** ****** ****** ****** ******
  11  ****** ****** ****** ****** ****** ****** ****** ****** ****** ******
      ****** ****** ****** ****** ****** ****** ****** ****** ****** ******
      ****** ****** ****** ****** ****** ****** ****** ****** ****** ******
  12  ****** ****** ****** ****** ****** ****** ****** ****** ****** ******
      ****** ****** ****** ****** ****** ****** ****** ****** ****** ******
      ****** ****** ****** ****** ****** ****** ****** ****** ****** ******
  13  ****** ****** ****** ****** ****** ****** ****** ****** ****** ******
      ****** ****** ****** ****** ****** ****** ****** ****** ****** ******
      ****** ****** ****** ****** ****** ****** ****** ****** ****** ******
  14  ****** ****** ****** ****** ****** ****** ****** ****** ****** ******
      ****** ****** ****** ****** ****** ****** ****** ****** ****** ******
      ****** ****** ****** ****** ****** ****** ****** ****** ****** ******
  15  ****** ****** ****** ****** ****** ****** ****** ****** ****** ******
      ****** ****** ****** ****** ****** ****** ****** ****** ****** ******
      ****** ****** ****** ****** ****** ****** ****** ****** ****** ******
  16  ****** ****** ****** ****** ****** ****** ****** ****** ****** ******
      ****** ****** ****** ****** ****** ****** ****** ****** ****** ******
      ****** ****** ****** ****** ****** ****** ****** ****** ****** ******
  17  ****** ****** ****** ****** ****** ****** ****** ****** ****** ******
      ****** ****** ****** ****** ****** ****** ****** ****** ****** ******
      ****** ****** ****** ****** ****** ****** ****** ****** ****** ******
  18  ****** ****** ****** ****** ****** ****** ****** ****** ****** ******
      ****** ****** ****** ****** ****** ****** ****** ****** ****** ******
      ****** ****** ****** ****** ****** ****** ****** ****** ****** ******
  19  ****** ****** ****** ****** ****** ****** ****** ****** ****** ******
      ****** ****** ****** ****** ****** ****** ****** ****** ****** ******
      ****** ****** ****** ****** ****** ****** ****** ****** ****** ******
  20  ****** ****** ****** ****** ****** ****** ****** ****** ****** ******
      ****** ****** ****** ****** ****** ****** ****** ****** ****** ******
      ****** ****** ****** ****** ****** ****** ****** ****** ****** ******
  21  ****** ****** ****** ****** ****** ****** ****** ****** ****** ******
      ****** ****** ****** ****** ****** ****** ****** ****** ****** ******
      ****** ****** ****** ****** ****** ****** ****** ****** ****** ******
  22  ****** ****** ****** ****** ****** ****** ****** ****** ****** ******
      ****** ****** ****** ****** ****** ****** ****** ****** ****** ******
      ****** ****** ****** ****** ****** ****** ****** ****** ****** ******
  23  ****** ****** ****** ****** ****** ****** ****** ****** ****** ******
      ****** ****** ****** ****** ****** ****** ****** ****** ****** ******
      ****** ****** ****** ****** ****** ****** ****** ****** ****** ******
  24  ****** ****** ****** ****** ****** ****** ****** ****** ****** ******
      ****** ****** ****** ****** ****** ****** ****** ****** ****** ******
      ****** ****** ****** ****** ****** ****** ****** ****** ****** ******
  25  ****** ****** ****** ****** ****** ****** ****** ****** ****** ******
      ****** ****** ****** ****** ****** ****** ****** ****** ****** ******
      ****** ****** ****** ****** ****** ****** ****** ****** ****** ******

 HEAD WILL BE SAVED ON UNIT   51 AT END OF TIME STEP    1, STRESS PERIOD    3
1
  VOLUMETRIC BUDGET FOR ENTIRE MODEL AT END OF TIME STEP    1, STRESS PERIOD   3
  ------------------------------------------------------------------------------

     CUMULATIVE VOLUMES      L**3       RATES FOR THIS TIME STEP      L**3/T
     ------------------                 ------------------------

           IN:                                      IN:
           ---                                      ---
             STORAGE =    20007112.0702               STORAGE =        2636.2452
       CONSTANT HEAD =   311788453.3716         CONSTANT HEAD =     1166275.2328
               WELLS =           0.0000                 WELLS =           0.0000
            RECHARGE =     6292800.0000              RECHARGE =           0.0000
      STREAM LEAKAGE =           0.0000        STREAM LEAKAGE =           0.0000

            TOTAL IN =   338088365.4418              TOTAL IN =     1168911.4780

          OUT:                                     OUT:
          ----                                     ----
             STORAGE =       49347.1160               STORAGE =         442.5905
       CONSTANT HEAD =           0.0000         CONSTANT HEAD =           0.0000
               WELLS =    15194360.9465                 WELLS =       30398.1243
            RECHARGE =           0.0000              RECHARGE =           0.0000
      STREAM LEAKAGE =   322844668.5001        STREAM LEAKAGE =     1138070.8015

           TOTAL OUT =   338088376.5626             TOTAL OUT =     1168911.5162

            IN - OUT =         -11.1208              IN - OUT =      -3.8206E-02

 PERCENT DISCREPANCY =          -0.00     PERCENT DISCREPANCY =          -0.00






         TIME SUMMARY AT END OF TIME STEP    1 IN STRESS PERIOD    3
                    SECONDS     MINUTES      HOURS       DAYS        YEARS
                    -----------------------------------------------------------
   TIME STEP LENGTH 7.86240E+06 1.31040E+05  2184.0      91.000     0.24914    
 STRESS PERIOD TIME 7.86240E+06 1.31040E+05  2184.0      91.000     0.24914    
         TOTAL TIME 2.36736E+07 3.94560E+05  6576.0      274.00     0.75017    
1
1
                            STRESS PERIOD NO.    4, LENGTH =   91.00000    
                            -----------------------------------------------

                              NUMBER OF TIME STEPS =     1

                               MULTIPLIER FOR DELT =     1.500

                            INITIAL TIME STEP SIZE =   91.00000    

 WELL NO.  LAYER   ROW   COL   STRESS RATE         
 --------------------------------------------------
      1      1     12     11      -3484.    
      2      1     16     17     -0.2675E+05
      3      1     14     25      -8061.    

      3 WELLS

                 RECHARGE =  1.000000E-03

 REUSING STREAM SEGMENT DATA FROM LAST STRESS PERIOD
 
 SOLVING FOR HEAD 


     6 CALLS TO PCG ROUTINE FOR TIME STEP   1 IN STRESS PERIOD    4
    22 TOTAL ITERATIONS

 OUTPUT CONTROL FOR STRESS PERIOD    4   TIME STEP    1
    SAVE BUDGET
    SAVE HEAD FOR ALL LAYERS
    PRINT HEAD FOR ALL LAYERS
 UBDSV2 SAVING "STREAMFLOW OUT  " ON UNIT  50 AT TIME STEP  1, STRESS PERIOD   4



 STREAM LISTING     PERIOD      4   STEP        1

 LAYER ROW COL. STREAM  RCH.  FLOW INTO     FLOW TO   FLOW OUT OF   OVRLND.     DIRECT     STREAM       STREAM     STREAM     STREAM   STREAMBED  STREAMBED
                SEG.NO.  NO.  STRM. RCH.    AQUIFER    STRM. RCH.    RUNOFF     PRECIP       ET          HEAD       DEPTH      WIDTH   CONDCTNC.   GRADIENT

   1   13    1     1     1    1.0000E+05 -2.7831E+04   1.2783E+05  0.000E+00  0.000E+00  0.000E+00  4.84178E+01  1.564E-01  2.000E+01  2.000E+04 -1.392E+00
   1   13    2     1     2    1.2783E+05 -3.7556E+04   1.6539E+05  0.000E+00  0.000E+00  0.000E+00  4.79661E+01  1.820E-01  2.000E+01  2.000E+04 -1.878E+00
   1   14    3     1     3    1.6539E+05 -3.3028E+04   1.9842E+05  0.000E+00  0.000E+00  0.000E+00  4.75139E+01  2.071E-01  2.000E+01  2.000E+04 -1.651E+00
   1   15    4     1     4    1.9842E+05 -3.2256E+04   2.3067E+05  0.000E+00  0.000E+00  0.000E+00  4.70582E+01  2.287E-01  2.000E+01  2.000E+04 -1.613E+00
   1   16    5     1     5    2.3067E+05 -3.3776E+04   2.6445E+05  0.000E+00  0.000E+00  0.000E+00  4.66015E+01  2.492E-01  2.000E+01  2.000E+04 -1.689E+00
   1   16    6     1     6    2.6445E+05 -2.9474E+04   2.9392E+05  0.000E+00  0.000E+00  0.000E+00  4.61428E+01  2.678E-01  2.000E+01  2.000E+04 -1.474E+00
   1   16    7     1     7    2.9392E+05 -2.9252E+04   3.2317E+05  0.000E+00  0.000E+00  0.000E+00  4.56821E+01  2.844E-01  2.000E+01  2.000E+04 -1.463E+00
   1   16    8     1     8    3.2317E+05 -2.9374E+04   3.5255E+05  0.000E+00  0.000E+00  0.000E+00  4.52208E+01  3.003E-01  2.000E+01  2.000E+04 -1.469E+00
   1   16    9     1     9    3.5255E+05 -2.9369E+04   3.8192E+05  0.000E+00  0.000E+00  0.000E+00  4.47589E+01  3.157E-01  2.000E+01  2.000E+04 -1.468E+00
   1   16   10     1    10    3.8192E+05 -2.9272E+04   4.1119E+05  0.000E+00  0.000E+00  0.000E+00  4.42965E+01  3.306E-01  2.000E+01  2.000E+04 -1.464E+00
   1   16   11     1    11    4.1119E+05 -2.9656E+04   4.4085E+05  0.000E+00  0.000E+00  0.000E+00  4.38338E+01  3.451E-01  2.000E+01  2.000E+04 -1.483E+00
   1   16   12     1    12    4.4085E+05 -3.4526E+04   4.7537E+05  0.000E+00  0.000E+00  0.000E+00  4.33719E+01  3.605E-01  2.000E+01  2.000E+04 -1.726E+00
   1   15   13     1    13    4.7537E+05 -3.2632E+04   5.0800E+05  0.000E+00  0.000E+00  0.000E+00  4.29102E+01  3.761E-01  2.000E+01  2.000E+04 -1.632E+00
   1   14   14     1    14    5.0800E+05 -3.2830E+04   5.4083E+05  0.000E+00  0.000E+00  0.000E+00  4.24478E+01  3.910E-01  2.000E+01  2.000E+04 -1.641E+00
   1   13   15     1    15    5.4083E+05 -3.5264E+04   5.7610E+05  0.000E+00  0.000E+00  0.000E+00  4.19855E+01  4.060E-01  2.000E+01  2.000E+04 -1.763E+00
   1   12   16     1    16    5.7610E+05 -4.2220E+04   6.1832E+05  0.000E+00  0.000E+00  0.000E+00  4.15249E+01  4.227E-01  2.000E+01  2.000E+04 -2.111E+00
   1   12   17     1    17    6.1832E+05 -3.2685E+04   6.5100E+05  0.000E+00  0.000E+00  0.000E+00  4.10634E+01  4.384E-01  2.000E+01  2.000E+04 -1.634E+00
   1   12   18     1    18    6.5100E+05 -3.1198E+04   6.8220E+05  0.000E+00  0.000E+00  0.000E+00  4.05992E+01  4.515E-01  2.000E+01  2.000E+04 -1.560E+00
   1   12   19     1    19    6.8220E+05 -3.5558E+04   7.1776E+05  0.000E+00  0.000E+00  0.000E+00  4.01354E+01  4.649E-01  2.000E+01  2.000E+04 -1.778E+00
   1   13   20     1    20    7.1776E+05 -2.5303E+04   7.4306E+05  0.000E+00  0.000E+00  0.000E+00  3.96701E+01  4.769E-01  2.000E+01  2.000E+04 -1.265E+00
   1   14   21     1    21    7.4306E+05 -1.8221E+04   7.6128E+05  0.000E+00  0.000E+00  0.000E+00  3.92013E+01  4.854E-01  2.000E+01  2.000E+04 -9.110E-01
   1   14   22     1    22    7.6128E+05 -1.3716E+03   7.6265E+05  0.000E+00  0.000E+00  0.000E+00  3.87278E+01  4.892E-01  2.000E+01  2.000E+04 -6.858E-02
   1    9   30     2     1    5.0000E+04 -2.6539E+04   7.6539E+04  0.000E+00  0.000E+00  0.000E+00  4.02584E+01  1.334E-01  2.000E+01  2.000E+04 -1.327E+00
   1    9   29     2     2    7.6539E+04 -2.9002E+04   1.0554E+05  0.000E+00  0.000E+00  0.000E+00  4.00410E+01  1.660E-01  2.000E+01  2.000E+04 -1.450E+00
   1    9   28     2     3    1.0554E+05 -3.3286E+04   1.3883E+05  0.000E+00  0.000E+00  0.000E+00  3.98231E+01  1.981E-01  2.000E+01  2.000E+04 -1.664E+00
   1    9   27     2     4    1.3883E+05 -4.7414E+04   1.8624E+05  0.000E+00  0.000E+00  0.000E+00  3.96100E+01  2.350E-01  2.000E+01  2.000E+04 -2.371E+00
   1   10   26     2     5    1.8624E+05 -3.3253E+04   2.1949E+05  0.000E+00  0.000E+00  0.000E+00  3.93935E+01  2.685E-01  2.000E+01  2.000E+04 -1.663E+00
   1   11   25     2     6    2.1949E+05 -2.4647E+04   2.4414E+05  0.000E+00  0.000E+00  0.000E+00  3.91658E+01  2.908E-01  2.000E+01  2.000E+04 -1.232E+00
   1   12   24     2     7    2.4414E+05 -1.7802E+04   2.6194E+05  0.000E+00  0.000E+00  0.000E+00  3.89315E+01  3.065E-01  2.000E+01  2.000E+04 -8.901E-01
   1   13   23     2     8    2.6194E+05 -1.2472E+04   2.7442E+05  0.000E+00  0.000E+00  0.000E+00  3.86924E+01  3.174E-01  2.000E+01  2.000E+04 -6.236E-01
   1   14   22     2     9    2.7442E+05 -6.9431E+03   2.8136E+05  0.000E+00  0.000E+00  0.000E+00  3.84493E+01  3.243E-01  2.000E+01  2.000E+04 -3.472E-01
   1   14   22     3     1    1.0440E+06 -1.4968E+04   1.0590E+06  0.000E+00  0.000E+00  0.000E+00  3.80480E+01  4.925E-01  2.000E+01  2.000E+04 -7.484E-01
   1   15   23     3     2    1.0590E+06 -2.2654E+04   1.0816E+06  0.000E+00  0.000E+00  0.000E+00  3.71644E+01  4.977E-01  2.000E+01  2.000E+04 -1.133E+00
   1   15   24     3     3    1.0816E+06 -1.8554E+04   1.1002E+06  0.000E+00  0.000E+00  0.000E+00  3.62812E+01  5.035E-01  2.000E+01  2.000E+04 -9.277E-01
   1   15   25     3     4    1.1002E+06 -1.7323E+04   1.1175E+06  0.000E+00  0.000E+00  0.000E+00  3.53973E+01  5.084E-01  2.000E+01  2.000E+04 -8.662E-01
   1   15   26     3     5    1.1175E+06 -2.0964E+04   1.1385E+06  0.000E+00  0.000E+00  0.000E+00  3.45137E+01  5.137E-01  2.000E+01  2.000E+04 -1.048E+00
   1   16   27     3     6    1.1385E+06 -2.8835E+04   1.1673E+06  0.000E+00  0.000E+00  0.000E+00  3.36316E+01  5.204E-01  2.000E+01  2.000E+04 -1.442E+00
   1   17   28     3     7    1.1673E+06 -3.6107E+04   1.2034E+06  0.000E+00  0.000E+00  0.000E+00  3.27514E+01  5.292E-01  2.000E+01  2.000E+04 -1.805E+00
   1   18   29     3     8    1.2034E+06 -4.7207E+04   1.2506E+06  0.000E+00  0.000E+00  0.000E+00  3.18736E+01  5.403E-01  2.000E+01  2.000E+04 -2.360E+00
   1   18   30     3     9    1.2506E+06 -4.3677E+04   1.2943E+06  0.000E+00  0.000E+00  0.000E+00  3.09966E+01  5.522E-01  2.000E+01  2.000E+04 -2.184E+00



1
              HEAD IN LAYER   1 AT END OF TIME STEP   1 IN STRESS PERIOD    4
  ---------------------------------------------------------------------------

          1      2      3      4      5      6      7      8      9     10
         11     12     13     14     15     16     17     18     19     20
         21     22     23     24     25     26     27     28     29     30
 .........................................................................
   1  ****** ****** ****** ****** ****** ****** ****** ****** ****** ******
      ****** ****** ****** ****** ****** ****** ****** ****** ****** ******
      ****** ****** ****** ****** ****** ****** ****** ****** ****** ******
   2  ****** ****** ****** ****** ****** ****** ****** ****** ****** ******
      ****** ****** ****** ****** ****** ****** ****** ****** ****** ******
      ****** ****** ****** ****** ****** ****** ****** ****** ****** ******
   3  ****** ****** ****** ****** ****** ****** ****** ****** ****** ******
      ****** ****** ****** ****** ****** ****** ****** ****** ****** ******
      ****** ****** ****** ****** ****** ****** ****** ****** ****** ******
   4  ****** ****** ****** ****** ****** ****** ****** ****** ****** ******
      ****** ****** ****** ****** ****** ****** ****** ****** ****** ******
      ****** ****** ****** ****** ****** ****** ****** ****** ****** ******
   5  ****** ****** ****** ****** ****** ****** ****** ****** ****** ******
      ****** ****** ****** ****** ****** ****** ****** ****** ****** ******
      ****** ****** ****** ****** ****** ****** ****** ****** ****** ******
   6  ****** ****** ****** ****** ****** ****** ****** ****** ****** ******
      ****** ****** ****** ****** ****** ****** ****** ****** ****** ******
      ****** ****** ****** ****** ****** ****** ****** ****** ****** ******
   7  ****** ****** ****** ****** ****** ****** ****** ****** ****** ******
      ****** ****** ****** ****** ****** ****** ****** ****** ****** ******
      ****** ****** ****** ****** ****** ****** ****** ****** ****** ******
   8  ****** ****** ****** ****** ****** ****** ****** ****** ****** ******
      ****** ****** ****** ****** ****** ****** ****** ****** ****** ******
      ****** ****** ****** ****** ****** ****** ****** ****** ****** ******
   9  ****** ****** ****** ****** ****** ****** ****** ****** ****** ******
      ****** ****** ****** ****** ****** ****** ****** ****** ****** ******
      ****** ****** ****** ****** ****** ****** ****** ****** ****** ******
  10  ****** ****** ****** ****** ****** ****** ****** ****** ****** ******
      ****** ****** ****** ****** ****** ****** ****** ****** ****** ******
      ****** ****** ****** ****** ****** ****** ****** ****** ****** ******
  11  ****** ****** ****** ****** ****** ****** ****** ****** ****** ******
      ****** ****** ****** ****** ****** ****** ****** ****** ****** ******
      ****** ****** ****** ****** ****** ****** ****** ****** ****** ******
  12  ****** ****** ****** ****** ****** ****** ****** ****** ****** ******
      ****** ****** ****** ****** ****** ****** ****** ****** ****** ******
      ****** ****** ****** ****** ****** ****** ****** ****** ****** ******
  13  ****** ****** ****** ****** ****** ****** ****** ****** ****** ******
      ****** ****** ****** ****** ****** ****** ****** ****** ****** ******
      ****** ****** ****** ****** ****** ****** ****** ****** ****** ******
  14  ****** ****** ****** ****** ****** ****** ****** ****** ****** ******
      ****** ****** ****** ****** ****** ****** ****** ****** ****** ******
      ****** ****** ****** ****** ****** ****** ****** ****** ****** ******
  15  ****** ****** ****** ****** ****** ****** ****** ****** ****** ******
      ****** ****** ****** ****** ****** ****** ****** ****** ****** ******
      ****** ****** ****** ****** ****** ****** ****** ****** ****** ******
  16  ****** ****** ****** ****** ****** ****** ****** ****** ****** ******
      ****** ****** ****** ****** ****** ****** ****** ****** ****** ******
      ****** ****** ****** ****** ****** ****** ****** ****** ****** ******
  17  ****** ****** ****** ****** ****** ****** ****** ****** ****** ******
      ****** ****** ****** ****** ****** ****** ****** ****** ****** ******
      ****** ****** ****** ****** ****** ****** ****** ****** ****** ******
  18  ****** ****** ****** ****** ****** ****** ****** ****** ****** ******
      ****** ****** ****** ****** ****** ****** ****** ****** ****** ******
      ****** ****** ****** ****** ****** ****** ****** ****** ****** ******
  19  ****** ****** ****** ****** ****** ****** ****** ****** ****** ******
      ****** ****** ****** ****** ****** ****** ****** ****** ****** ******
      ****** ****** ****** ****** ****** ****** ****** ****** ****** ******
  20  ****** ****** ****** ****** ****** ****** ****** ****** ****** ******
      ****** ****** ****** ****** ****** ****** ****** ****** ****** ******
      ****** ****** ****** ****** ****** ****** ****** ****** ****** ******
  21  ****** ****** ****** ****** ****** ****** ****** ****** ****** ******
      ****** ****** ****** ****** ****** ****** ****** ****** ****** ******
      ****** ****** ****** ****** ****** ****** ****** ****** ****** ******
  22  ****** ****** ****** ****** ****** ****** ****** ****** ****** ******
      ****** ****** ****** ****** ****** ****** ****** ****** ****** ******
      ****** ****** ****** ****** ****** ****** ****** ****** ****** ******
  23  ****** ****** ****** ****** ****** ****** ****** ****** ****** ******
      ****** ****** ****** ****** ****** ****** ****** ****** ****** ******
      ****** ****** ****** ****** ****** ****** ****** ****** ****** ******
  24  ****** ****** ****** ****** ****** ****** ****** ****** ****** ******
      ****** ****** ****** ****** ****** ****** ****** ****** ****** ******
      ****** ****** ****** ****** ****** ****** ****** ****** ****** ******
  25  ****** ****** ****** ****** ****** ****** ****** ****** ****** ******
      ****** ****** ****** ****** ****** ****** ****** ****** ****** ******
      ****** ****** ****** ****** ****** ****** ****** ****** ****** ******

 HEAD WILL BE SAVED ON UNIT   51 AT END OF TIME STEP    1, STRESS PERIOD    4
1
  VOLUMETRIC BUDGET FOR ENTIRE MODEL AT END OF TIME STEP    1, STRESS PERIOD   4
  ------------------------------------------------------------------------------

     CUMULATIVE VOLUMES      L**3       RATES FOR THIS TIME STEP      L**3/T
     ------------------                 ------------------------

           IN:                                      IN:
           ---                                      ---
             STORAGE =    20011011.2227               STORAGE =          42.8478
       CONSTANT HEAD =   416988513.4499         CONSTANT HEAD =     1156044.6162
               WELLS =           0.0000                 WELLS =           0.0000
            RECHARGE =     8804400.0000              RECHARGE =       27600.0000
      STREAM LEAKAGE =           0.0000        STREAM LEAKAGE =           0.0000

            TOTAL IN =   445803924.6726              TOTAL IN =     1183687.4641

          OUT:                                     OUT:
          ----                                     ----
             STORAGE =      148522.4603               STORAGE =        1089.8389
       CONSTANT HEAD =           0.0000         CONSTANT HEAD =           0.0000
               WELLS =    18679232.1749                 WELLS =       38295.2882
            RECHARGE =           0.0000              RECHARGE =           0.0000
      STREAM LEAKAGE =   426976179.3663        STREAM LEAKAGE =     1144302.3172

           TOTAL OUT =   445803934.0016             TOTAL OUT =     1183687.4444

            IN - OUT =          -9.3290              IN - OUT =       1.9690E-02

 PERCENT DISCREPANCY =          -0.00     PERCENT DISCREPANCY =           0.00






         TIME SUMMARY AT END OF TIME STEP    1 IN STRESS PERIOD    4
                    SECONDS     MINUTES      HOURS       DAYS        YEARS
                    -----------------------------------------------------------
   TIME STEP LENGTH 7.86240E+06 1.31040E+05  2184.0      91.000     0.24914    
 STRESS PERIOD TIME 7.86240E+06 1.31040E+05  2184.0      91.000     0.24914    
         TOTAL TIME 3.15360E+07 5.25600E+05  8760.0      365.00     0.99932    
1
1
                            STRESS PERIOD NO.    5, LENGTH =   92.00000    
                            -----------------------------------------------

                              NUMBER OF TIME STEPS =     1

                               MULTIPLIER FOR DELT =     1.500

                            INITIAL TIME STEP SIZE =   92.00000    

 WELL NO.  LAYER   ROW   COL   STRESS RATE         
 --------------------------------------------------
      1      1     12     11      -3484.    
      2      1     16     17     -0.5000E+05

      2 WELLS

                 RECHARGE =  5.000000E-04

 REUSING STREAM SEGMENT DATA FROM LAST STRESS PERIOD
 
 SOLVING FOR HEAD 


     6 CALLS TO PCG ROUTINE FOR TIME STEP   1 IN STRESS PERIOD    5
    22 TOTAL ITERATIONS

 OUTPUT CONTROL FOR STRESS PERIOD    5   TIME STEP    1
    SAVE BUDGET
    SAVE HEAD FOR ALL LAYERS
    PRINT HEAD FOR ALL LAYERS
 UBDSV2 SAVING "STREAMFLOW OUT  " ON UNIT  50 AT TIME STEP  1, STRESS PERIOD   5



 STREAM LISTING     PERIOD      5   STEP        1

 LAYER ROW COL. STREAM  RCH.  FLOW INTO     FLOW TO   FLOW OUT OF   OVRLND.     DIRECT     STREAM       STREAM     STREAM     STREAM   STREAMBED  STREAMBED
                SEG.NO.  NO.  STRM. RCH.    AQUIFER    STRM. RCH.    RUNOFF     PRECIP       ET          HEAD       DEPTH      WIDTH   CONDCTNC.   GRADIENT

   1   13    1     1     1    1.0000E+05 -2.7616E+04   1.2762E+05  0.000E+00  0.000E+00  0.000E+00  4.84177E+01  1.563E-01  2.000E+01  2.000E+04 -1.381E+00
   1   13    2     1     2    1.2762E+05 -3.7297E+04   1.6491E+05  0.000E+00  0.000E+00  0.000E+00  4.79658E+01  1.817E-01  2.000E+01  2.000E+04 -1.865E+00
   1   14    3     1     3    1.6491E+05 -3.2767E+04   1.9768E+05  0.000E+00  0.000E+00  0.000E+00  4.75135E+01  2.067E-01  2.000E+01  2.000E+04 -1.638E+00
   1   15    4     1     4    1.9768E+05 -3.1995E+04   2.2967E+05  0.000E+00  0.000E+00  0.000E+00  4.70577E+01  2.281E-01  2.000E+01  2.000E+04 -1.600E+00
   1   16    5     1     5    2.2967E+05 -3.3521E+04   2.6320E+05  0.000E+00  0.000E+00  0.000E+00  4.66008E+01  2.485E-01  2.000E+01  2.000E+04 -1.676E+00
   1   16    6     1     6    2.6320E+05 -2.9236E+04   2.9243E+05  0.000E+00  0.000E+00  0.000E+00  4.61420E+01  2.670E-01  2.000E+01  2.000E+04 -1.462E+00
   1   16    7     1     7    2.9243E+05 -2.8993E+04   3.2142E+05  0.000E+00  0.000E+00  0.000E+00  4.56812E+01  2.835E-01  2.000E+01  2.000E+04 -1.450E+00
   1   16    8     1     8    3.2142E+05 -2.9079E+04   3.5050E+05  0.000E+00  0.000E+00  0.000E+00  4.52197E+01  2.993E-01  2.000E+01  2.000E+04 -1.454E+00
   1   16    9     1     9    3.5050E+05 -2.9016E+04   3.7952E+05  0.000E+00  0.000E+00  0.000E+00  4.47577E+01  3.146E-01  2.000E+01  2.000E+04 -1.451E+00
   1   16   10     1    10    3.7952E+05 -2.8821E+04   4.0834E+05  0.000E+00  0.000E+00  0.000E+00  4.42952E+01  3.293E-01  2.000E+01  2.000E+04 -1.441E+00
   1   16   11     1    11    4.0834E+05 -2.8999E+04   4.3734E+05  0.000E+00  0.000E+00  0.000E+00  4.38322E+01  3.436E-01  2.000E+01  2.000E+04 -1.450E+00
   1   16   12     1    12    4.3734E+05 -3.3226E+04   4.7056E+05  0.000E+00  0.000E+00  0.000E+00  4.33699E+01  3.585E-01  2.000E+01  2.000E+04 -1.661E+00
   1   15   13     1    13    4.7056E+05 -3.0851E+04   5.0142E+05  0.000E+00  0.000E+00  0.000E+00  4.29076E+01  3.735E-01  2.000E+01  2.000E+04 -1.543E+00
   1   14   14     1    14    5.0142E+05 -3.0717E+04   5.3213E+05  0.000E+00  0.000E+00  0.000E+00  4.24443E+01  3.875E-01  2.000E+01  2.000E+04 -1.536E+00
   1   13   15     1    15    5.3213E+05 -3.3291E+04   5.6542E+05  0.000E+00  0.000E+00  0.000E+00  4.19813E+01  4.018E-01  2.000E+01  2.000E+04 -1.665E+00
   1   12   16     1    16    5.6542E+05 -4.0980E+04   6.0640E+05  0.000E+00  0.000E+00  0.000E+00  4.15201E+01  4.179E-01  2.000E+01  2.000E+04 -2.049E+00
   1   12   17     1    17    6.0640E+05 -3.1358E+04   6.3776E+05  0.000E+00  0.000E+00  0.000E+00  4.10581E+01  4.331E-01  2.000E+01  2.000E+04 -1.568E+00
   1   12   18     1    18    6.3776E+05 -2.9973E+04   6.6773E+05  0.000E+00  0.000E+00  0.000E+00  4.05936E+01  4.458E-01  2.000E+01  2.000E+04 -1.499E+00
   1   12   19     1    19    6.6773E+05 -3.4559E+04   7.0229E+05  0.000E+00  0.000E+00  0.000E+00  4.01294E+01  4.589E-01  2.000E+01  2.000E+04 -1.728E+00
   1   13   20     1    20    7.0229E+05 -2.3855E+04   7.2615E+05  0.000E+00  0.000E+00  0.000E+00  3.96638E+01  4.706E-01  2.000E+01  2.000E+04 -1.193E+00
   1   14   21     1    21    7.2615E+05 -1.6833E+04   7.4298E+05  0.000E+00  0.000E+00  0.000E+00  3.91945E+01  4.786E-01  2.000E+01  2.000E+04 -8.416E-01
   1   14   22     1    22    7.4298E+05 -1.2124E+03   7.4419E+05  0.000E+00  0.000E+00  0.000E+00  3.87207E+01  4.821E-01  2.000E+01  2.000E+04 -6.062E-02
   1    9   30     2     1    5.0000E+04 -2.6468E+04   7.6468E+04  0.000E+00  0.000E+00  0.000E+00  4.02584E+01  1.334E-01  2.000E+01  2.000E+04 -1.323E+00
   1    9   29     2     2    7.6468E+04 -2.8934E+04   1.0540E+05  0.000E+00  0.000E+00  0.000E+00  4.00409E+01  1.659E-01  2.000E+01  2.000E+04 -1.447E+00
   1    9   28     2     3    1.0540E+05 -3.3218E+04   1.3862E+05  0.000E+00  0.000E+00  0.000E+00  3.98229E+01  1.979E-01  2.000E+01  2.000E+04 -1.661E+00
   1    9   27     2     4    1.3862E+05 -4.7317E+04   1.8594E+05  0.000E+00  0.000E+00  0.000E+00  3.96098E+01  2.348E-01  2.000E+01  2.000E+04 -2.366E+00
   1   10   26     2     5    1.8594E+05 -3.3266E+04   2.1920E+05  0.000E+00  0.000E+00  0.000E+00  3.93932E+01  2.682E-01  2.000E+01  2.000E+04 -1.663E+00
   1   11   25     2     6    2.1920E+05 -2.4888E+04   2.4409E+05  0.000E+00  0.000E+00  0.000E+00  3.91657E+01  2.907E-01  2.000E+01  2.000E+04 -1.244E+00
   1   12   24     2     7    2.4409E+05 -1.8261E+04   2.6235E+05  0.000E+00  0.000E+00  0.000E+00  3.89317E+01  3.067E-01  2.000E+01  2.000E+04 -9.130E-01
   1   13   23     2     8    2.6235E+05 -1.2761E+04   2.7511E+05  0.000E+00  0.000E+00  0.000E+00  3.86928E+01  3.178E-01  2.000E+01  2.000E+04 -6.381E-01
   1   14   22     2     9    2.7511E+05 -6.6340E+03   2.8175E+05  0.000E+00  0.000E+00  0.000E+00  3.84496E+01  3.246E-01  2.000E+01  2.000E+04 -3.317E-01
   1   14   22     3     1    1.0259E+06 -1.4769E+04   1.0407E+06  0.000E+00  0.000E+00  0.000E+00  3.80429E+01  4.874E-01  2.000E+01  2.000E+04 -7.384E-01
   1   15   23     3     2    1.0407E+06 -2.2211E+04   1.0629E+06  0.000E+00  0.000E+00  0.000E+00  3.71592E+01  4.926E-01  2.000E+01  2.000E+04 -1.111E+00
   1   15   24     3     3    1.0629E+06 -1.9021E+04   1.0819E+06  0.000E+00  0.000E+00  0.000E+00  3.62761E+01  4.983E-01  2.000E+01  2.000E+04 -9.510E-01
   1   15   25     3     4    1.0819E+06 -1.8891E+04   1.1008E+06  0.000E+00  0.000E+00  0.000E+00  3.53925E+01  5.036E-01  2.000E+01  2.000E+04 -9.446E-01
   1   15   26     3     5    1.1008E+06 -2.1781E+04   1.1226E+06  0.000E+00  0.000E+00  0.000E+00  3.45092E+01  5.092E-01  2.000E+01  2.000E+04 -1.089E+00
   1   16   27     3     6    1.1226E+06 -2.8866E+04   1.1515E+06  0.000E+00  0.000E+00  0.000E+00  3.36273E+01  5.161E-01  2.000E+01  2.000E+04 -1.443E+00
   1   17   28     3     7    1.1515E+06 -3.5964E+04   1.1874E+06  0.000E+00  0.000E+00  0.000E+00  3.27471E+01  5.249E-01  2.000E+01  2.000E+04 -1.798E+00
   1   18   29     3     8    1.1874E+06 -4.7014E+04   1.2345E+06  0.000E+00  0.000E+00  0.000E+00  3.18693E+01  5.360E-01  2.000E+01  2.000E+04 -2.351E+00
   1   18   30     3     9    1.2345E+06 -4.3544E+04   1.2780E+06  0.000E+00  0.000E+00  0.000E+00  3.09924E+01  5.480E-01  2.000E+01  2.000E+04 -2.177E+00



1
              HEAD IN LAYER   1 AT END OF TIME STEP   1 IN STRESS PERIOD    5
  ---------------------------------------------------------------------------

          1      2      3      4      5      6      7      8      9     10
         11     12     13     14     15     16     17     18     19     20
         21     22     23     24     25     26     27     28     29     30
 .........................................................................
   1  ****** ****** ****** ****** ****** ****** ****** ****** ****** ******
      ****** ****** ****** ****** ****** ****** ****** ****** ****** ******
      ****** ****** ****** ****** ****** ****** ****** ****** ****** ******
   2  ****** ****** ****** ****** ****** ****** ****** ****** ****** ******
      ****** ****** ****** ****** ****** ****** ****** ****** ****** ******
      ****** ****** ****** ****** ****** ****** ****** ****** ****** ******
   3  ****** ****** ****** ****** ****** ****** ****** ****** ****** ******
      ****** ****** ****** ****** ****** ****** ****** ****** ****** ******
      ****** ****** ****** ****** ****** ****** ****** ****** ****** ******
   4  ****** ****** ****** ****** ****** ****** ****** ****** ****** ******
      ****** ****** ****** ****** ****** ****** ****** ****** ****** ******
      ****** ****** ****** ****** ****** ****** ****** ****** ****** ******
   5  ****** ****** ****** ****** ****** ****** ****** ****** ****** ******
      ****** ****** ****** ****** ****** ****** ****** ****** ****** ******
      ****** ****** ****** ****** ****** ****** ****** ****** ****** ******
   6  ****** ****** ****** ****** ****** ****** ****** ****** ****** ******
      ****** ****** ****** ****** ****** ****** ****** ****** ****** ******
      ****** ****** ****** ****** ****** ****** ****** ****** ****** ******
   7  ****** ****** ****** ****** ****** ****** ****** ****** ****** ******
      ****** ****** ****** ****** ****** ****** ****** ****** ****** ******
      ****** ****** ****** ****** ****** ****** ****** ****** ****** ******
   8  ****** ****** ****** ****** ****** ****** ****** ****** ****** ******
      ****** ****** ****** ****** ****** ****** ****** ****** ****** ******
      ****** ****** ****** ****** ****** ****** ****** ****** ****** ******
   9  ****** ****** ****** ****** ****** ****** ****** ****** ****** ******
      ****** ****** ****** ****** ****** ****** ****** ****** ****** ******
      ****** ****** ****** ****** ****** ****** ****** ****** ****** ******
  10  ****** ****** ****** ****** ****** ****** ****** ****** ****** ******
      ****** ****** ****** ****** ****** ****** ****** ****** ****** ******
      ****** ****** ****** ****** ****** ****** ****** ****** ****** ******
  11  ****** ****** ****** ****** ****** ****** ****** ****** ****** ******
      ****** ****** ****** ****** ****** ****** ****** ****** ****** ******
      ****** ****** ****** ****** ****** ****** ****** ****** ****** ******
  12  ****** ****** ****** ****** ****** ****** ****** ****** ****** ******
      ****** ****** ****** ****** ****** ****** ****** ****** ****** ******
      ****** ****** ****** ****** ****** ****** ****** ****** ****** ******
  13  ****** ****** ****** ****** ****** ****** ****** ****** ****** ******
      ****** ****** ****** ****** ****** ****** ****** ****** ****** ******
      ****** ****** ****** ****** ****** ****** ****** ****** ****** ******
  14  ****** ****** ****** ****** ****** ****** ****** ****** ****** ******
      ****** ****** ****** ****** ****** ****** ****** ****** ****** ******
      ****** ****** ****** ****** ****** ****** ****** ****** ****** ******
  15  ****** ****** ****** ****** ****** ****** ****** ****** ****** ******
      ****** ****** ****** ****** ****** ****** ****** ****** ****** ******
      ****** ****** ****** ****** ****** ****** ****** ****** ****** ******
  16  ****** ****** ****** ****** ****** ****** ****** ****** ****** ******
      ****** ****** ****** ****** ****** ****** ****** ****** ****** ******
      ****** ****** ****** ****** ****** ****** ****** ****** ****** ******
  17  ****** ****** ****** ****** ****** ****** ****** ****** ****** ******
      ****** ****** ****** ****** ****** ****** ****** ****** ****** ******
      ****** ****** ****** ****** ****** ****** ****** ****** ****** ******
  18  ****** ****** ****** ****** ****** ****** ****** ****** ****** ******
      ****** ****** ****** ****** ****** ****** ****** ****** ****** ******
      ****** ****** ****** ****** ****** ****** ****** ****** ****** ******
  19  ****** ****** ****** ****** ****** ****** ****** ****** ****** ******
      ****** ****** ****** ****** ****** ****** ****** ****** ****** ******
      ****** ****** ****** ****** ****** ****** ****** ****** ****** ******
  20  ****** ****** ****** ****** ****** ****** ****** ****** ****** ******
      ****** ****** ****** ****** ****** ****** ****** ****** ****** ******
      ****** ****** ****** ****** ****** ****** ****** ****** ****** ******
  21  ****** ****** ****** ****** ****** ****** ****** ****** ****** ******
      ****** ****** ****** ****** ****** ****** ****** ****** ****** ******
      ****** ****** ****** ****** ****** ****** ****** ****** ****** ******
  22  ****** ****** ****** ****** ****** ****** ****** ****** ****** ******
      ****** ****** ****** ****** ****** ****** ****** ****** ****** ******
      ****** ****** ****** ****** ****** ****** ****** ****** ****** ******
  23  ****** ****** ****** ****** ****** ****** ****** ****** ****** ******
      ****** ****** ****** ****** ****** ****** ****** ****** ****** ******
      ****** ****** ****** ****** ****** ****** ****** ****** ****** ******
  24  ****** ****** ****** ****** ****** ****** ****** ****** ****** ******
      ****** ****** ****** ****** ****** ****** ****** ****** ****** ******
      ****** ****** ****** ****** ****** ****** ****** ****** ****** ******
  25  ****** ****** ****** ****** ****** ****** ****** ****** ****** ******
      ****** ****** ****** ****** ****** ****** ****** ****** ****** ******
      ****** ****** ****** ****** ****** ****** ****** ****** ****** ******

 HEAD WILL BE SAVED ON UNIT   51 AT END OF TIME STEP    1, STRESS PERIOD    5
1
  VOLUMETRIC BUDGET FOR ENTIRE MODEL AT END OF TIME STEP    1, STRESS PERIOD   5
  ------------------------------------------------------------------------------

     CUMULATIVE VOLUMES      L**3       RATES FOR THIS TIME STEP      L**3/T
     ------------------                 ------------------------

           IN:                                      IN:
           ---                                      ---
             STORAGE =    20172722.6422               STORAGE =        1757.7328
       CONSTANT HEAD =   524258784.7607         CONSTANT HEAD =     1165981.2099
               WELLS =           0.0000                 WELLS =           0.0000
            RECHARGE =    10074000.0000              RECHARGE =       13800.0000
      STREAM LEAKAGE =           0.0000        STREAM LEAKAGE =           0.0000

            TOTAL IN =   554505507.4028              TOTAL IN =     1181538.9427

          OUT:                                     OUT:
          ----                                     ----
             STORAGE =      153465.8217               STORAGE =          53.7322
       CONSTANT HEAD =           0.0000         CONSTANT HEAD =           0.0000
               WELLS =    23599795.5639                 WELLS =       53484.3847
            RECHARGE =           0.0000              RECHARGE =           0.0000
      STREAM LEAKAGE =   530752257.0270        STREAM LEAKAGE =     1128000.8441

           TOTAL OUT =   554505518.4125             TOTAL OUT =     1181538.9610

            IN - OUT =         -11.0097              IN - OUT =      -1.8269E-02

 PERCENT DISCREPANCY =          -0.00     PERCENT DISCREPANCY =          -0.00






         TIME SUMMARY AT END OF TIME STEP    1 IN STRESS PERIOD    5
                    SECONDS     MINUTES      HOURS       DAYS        YEARS
                    -----------------------------------------------------------
   TIME STEP LENGTH 7.94880E+06 1.32480E+05  2208.0      92.000     0.25188    
 STRESS PERIOD TIME 7.94880E+06 1.32480E+05  2208.0      92.000     0.25188    
         TOTAL TIME 3.94848E+07 6.58080E+05  10968.      457.00      1.2512    
1
1
                            STRESS PERIOD NO.    6, LENGTH =   91.00000    
                            -----------------------------------------------

                              NUMBER OF TIME STEPS =     1

                               MULTIPLIER FOR DELT =     1.500

                            INITIAL TIME STEP SIZE =   91.00000    

 WELL NO.  LAYER   ROW   COL   STRESS RATE         
 --------------------------------------------------
      1      1     12     11      -3484.    
      2      1     16     17     -0.2750E+05
      3      1     14     25     -0.5152E+05

      3 WELLS

                 RECHARGE =  2.000000E-03

 REUSING STREAM SEGMENT DATA FROM LAST STRESS PERIOD
 
 SOLVING FOR HEAD 


     6 CALLS TO PCG ROUTINE FOR TIME STEP   1 IN STRESS PERIOD    6
    23 TOTAL ITERATIONS

 OUTPUT CONTROL FOR STRESS PERIOD    6   TIME STEP    1
    SAVE BUDGET
    SAVE HEAD FOR ALL LAYERS
    PRINT HEAD FOR ALL LAYERS
 UBDSV2 SAVING "STREAMFLOW OUT  " ON UNIT  50 AT TIME STEP  1, STRESS PERIOD   6



 STREAM LISTING     PERIOD      6   STEP        1

 LAYER ROW COL. STREAM  RCH.  FLOW INTO     FLOW TO   FLOW OUT OF   OVRLND.     DIRECT     STREAM       STREAM     STREAM     STREAM   STREAMBED  STREAMBED
                SEG.NO.  NO.  STRM. RCH.    AQUIFER    STRM. RCH.    RUNOFF     PRECIP       ET          HEAD       DEPTH      WIDTH   CONDCTNC.   GRADIENT

   1   13    1     1     1    1.0000E+05 -2.8280E+04   1.2828E+05  0.000E+00  0.000E+00  0.000E+00  4.84180E+01  1.566E-01  2.000E+01  2.000E+04 -1.414E+00
   1   13    2     1     2    1.2828E+05 -3.8092E+04   1.6637E+05  0.000E+00  0.000E+00  0.000E+00  4.79666E+01  1.825E-01  2.000E+01  2.000E+04 -1.905E+00
   1   14    3     1     3    1.6637E+05 -3.3550E+04   1.9992E+05  0.000E+00  0.000E+00  0.000E+00  4.75148E+01  2.080E-01  2.000E+01  2.000E+04 -1.677E+00
   1   15    4     1     4    1.9992E+05 -3.2755E+04   2.3268E+05  0.000E+00  0.000E+00  0.000E+00  4.70593E+01  2.298E-01  2.000E+01  2.000E+04 -1.638E+00
   1   16    5     1     5    2.3268E+05 -3.4223E+04   2.6690E+05  0.000E+00  0.000E+00  0.000E+00  4.66028E+01  2.505E-01  2.000E+01  2.000E+04 -1.711E+00
   1   16    6     1     6    2.6690E+05 -2.9860E+04   2.9676E+05  0.000E+00  0.000E+00  0.000E+00  4.61444E+01  2.694E-01  2.000E+01  2.000E+04 -1.493E+00
   1   16    7     1     7    2.9676E+05 -2.9632E+04   3.2639E+05  0.000E+00  0.000E+00  0.000E+00  4.56838E+01  2.861E-01  2.000E+01  2.000E+04 -1.482E+00
   1   16    8     1     8    3.2639E+05 -2.9751E+04   3.5614E+05  0.000E+00  0.000E+00  0.000E+00  4.52226E+01  3.021E-01  2.000E+01  2.000E+04 -1.488E+00
   1   16    9     1     9    3.5614E+05 -2.9740E+04   3.8588E+05  0.000E+00  0.000E+00  0.000E+00  4.47608E+01  3.177E-01  2.000E+01  2.000E+04 -1.487E+00
   1   16   10     1    10    3.8588E+05 -2.9632E+04   4.1552E+05  0.000E+00  0.000E+00  0.000E+00  4.42986E+01  3.327E-01  2.000E+01  2.000E+04 -1.482E+00
   1   16   11     1    11    4.1552E+05 -3.0002E+04   4.4552E+05  0.000E+00  0.000E+00  0.000E+00  4.38359E+01  3.473E-01  2.000E+01  2.000E+04 -1.500E+00
   1   16   12     1    12    4.4552E+05 -3.4886E+04   4.8040E+05  0.000E+00  0.000E+00  0.000E+00  4.33741E+01  3.628E-01  2.000E+01  2.000E+04 -1.744E+00
   1   15   13     1    13    4.8040E+05 -3.3013E+04   5.1342E+05  0.000E+00  0.000E+00  0.000E+00  4.29126E+01  3.785E-01  2.000E+01  2.000E+04 -1.651E+00
   1   14   14     1    14    5.1342E+05 -3.3209E+04   5.4663E+05  0.000E+00  0.000E+00  0.000E+00  4.24503E+01  3.935E-01  2.000E+01  2.000E+04 -1.660E+00
   1   13   15     1    15    5.4663E+05 -3.5647E+04   5.8227E+05  0.000E+00  0.000E+00  0.000E+00  4.19881E+01  4.086E-01  2.000E+01  2.000E+04 -1.782E+00
   1   12   16     1    16    5.8227E+05 -4.2625E+04   6.2490E+05  0.000E+00  0.000E+00  0.000E+00  4.15276E+01  4.254E-01  2.000E+01  2.000E+04 -2.131E+00
   1   12   17     1    17    6.2490E+05 -3.2972E+04   6.5787E+05  0.000E+00  0.000E+00  0.000E+00  4.10662E+01  4.412E-01  2.000E+01  2.000E+04 -1.649E+00
   1   12   18     1    18    6.5787E+05 -3.1444E+04   6.8931E+05  0.000E+00  0.000E+00  0.000E+00  4.06020E+01  4.543E-01  2.000E+01  2.000E+04 -1.572E+00
   1   12   19     1    19    6.8931E+05 -3.5777E+04   7.2509E+05  0.000E+00  0.000E+00  0.000E+00  4.01382E+01  4.678E-01  2.000E+01  2.000E+04 -1.789E+00
   1   13   20     1    20    7.2509E+05 -2.5366E+04   7.5046E+05  0.000E+00  0.000E+00  0.000E+00  3.96730E+01  4.798E-01  2.000E+01  2.000E+04 -1.268E+00
   1   14   21     1    21    7.5046E+05 -1.8124E+04   7.6858E+05  0.000E+00  0.000E+00  0.000E+00  3.92042E+01  4.883E-01  2.000E+01  2.000E+04 -9.062E-01
   1   14   22     1    22    7.6858E+05 -7.5344E+02   7.6933E+05  0.000E+00  0.000E+00  0.000E+00  3.87305E+01  4.919E-01  2.000E+01  2.000E+04 -3.767E-02
   1    9   30     2     1    5.0000E+04 -2.6398E+04   7.6398E+04  0.000E+00  0.000E+00  0.000E+00  4.02584E+01  1.334E-01  2.000E+01  2.000E+04 -1.320E+00
   1    9   29     2     2    7.6398E+04 -2.8840E+04   1.0524E+05  0.000E+00  0.000E+00  0.000E+00  4.00408E+01  1.658E-01  2.000E+01  2.000E+04 -1.442E+00
   1    9   28     2     3    1.0524E+05 -3.3099E+04   1.3834E+05  0.000E+00  0.000E+00  0.000E+00  3.98227E+01  1.977E-01  2.000E+01  2.000E+04 -1.655E+00
   1    9   27     2     4    1.3834E+05 -4.7246E+04   1.8558E+05  0.000E+00  0.000E+00  0.000E+00  3.96095E+01  2.345E-01  2.000E+01  2.000E+04 -2.362E+00
   1   10   26     2     5    1.8558E+05 -3.2389E+04   2.1797E+05  0.000E+00  0.000E+00  0.000E+00  3.93926E+01  2.676E-01  2.000E+01  2.000E+04 -1.619E+00
   1   11   25     2     6    2.1797E+05 -2.2468E+04   2.4044E+05  0.000E+00  0.000E+00  0.000E+00  3.91639E+01  2.889E-01  2.000E+01  2.000E+04 -1.123E+00
   1   12   24     2     7    2.4044E+05 -1.4310E+04   2.5475E+05  0.000E+00  0.000E+00  0.000E+00  3.89276E+01  3.026E-01  2.000E+01  2.000E+04 -7.155E-01
   1   13   23     2     8    2.5475E+05 -9.5611E+03   2.6431E+05  0.000E+00  0.000E+00  0.000E+00  3.86862E+01  3.112E-01  2.000E+01  2.000E+04 -4.781E-01
   1   14   22     2     9    2.6431E+05 -6.5242E+03   2.7084E+05  0.000E+00  0.000E+00  0.000E+00  3.84420E+01  3.170E-01  2.000E+01  2.000E+04 -3.262E-01
   1   14   22     3     1    1.0402E+06 -1.4426E+04   1.0546E+06  0.000E+00  0.000E+00  0.000E+00  3.80469E+01  4.913E-01  2.000E+01  2.000E+04 -7.213E-01
   1   15   23     3     2    1.0546E+06 -2.0977E+04   1.0756E+06  0.000E+00  0.000E+00  0.000E+00  3.71630E+01  4.963E-01  2.000E+01  2.000E+04 -1.049E+00
   1   15   24     3     3    1.0756E+06 -1.3966E+04   1.0895E+06  0.000E+00  0.000E+00  0.000E+00  3.62789E+01  5.012E-01  2.000E+01  2.000E+04 -6.983E-01
   1   15   25     3     4    1.0895E+06 -7.4837E+03   1.0970E+06  0.000E+00  0.000E+00  0.000E+00  3.53930E+01  5.041E-01  2.000E+01  2.000E+04 -3.742E-01
   1   15   26     3     5    1.0970E+06 -1.5467E+04   1.1125E+06  0.000E+00  0.000E+00  0.000E+00  3.45073E+01  5.073E-01  2.000E+01  2.000E+04 -7.734E-01
   1   16   27     3     6    1.1125E+06 -2.7298E+04   1.1398E+06  0.000E+00  0.000E+00  0.000E+00  3.36243E+01  5.132E-01  2.000E+01  2.000E+04 -1.365E+00
   1   17   28     3     7    1.1398E+06 -3.5605E+04   1.1754E+06  0.000E+00  0.000E+00  0.000E+00  3.27439E+01  5.217E-01  2.000E+01  2.000E+04 -1.780E+00
   1   18   29     3     8    1.1754E+06 -4.7144E+04   1.2225E+06  0.000E+00  0.000E+00  0.000E+00  3.18662E+01  5.328E-01  2.000E+01  2.000E+04 -2.357E+00
   1   18   30     3     9    1.2225E+06 -4.3609E+04   1.2661E+06  0.000E+00  0.000E+00  0.000E+00  3.09893E+01  5.448E-01  2.000E+01  2.000E+04 -2.180E+00



1
              HEAD IN LAYER   1 AT END OF TIME STEP   1 IN STRESS PERIOD    6
  ---------------------------------------------------------------------------

          1      2      3      4      5      6      7      8      9     10
         11     12     13     14     15     16     17     18     19     20
         21     22     23     24     25     26     27     28     29     30
 .........................................................................
   1  ****** ****** ****** ****** ****** ****** ****** ****** ****** ******
      ****** ****** ****** ****** ****** ****** ****** ****** ****** ******
      ****** ****** ****** ****** ****** ****** ****** ****** ****** ******
   2  ****** ****** ****** ****** ****** ****** ****** ****** ****** ******
      ****** ****** ****** ****** ****** ****** ****** ****** ****** ******
      ****** ****** ****** ****** ****** ****** ****** ****** ****** ******
   3  ****** ****** ****** ****** ****** ****** ****** ****** ****** ******
      ****** ****** ****** ****** ****** ****** ****** ****** ****** ******
      ****** ****** ****** ****** ****** ****** ****** ****** ****** ******
   4  ****** ****** ****** ****** ****** ****** ****** ****** ****** ******
      ****** ****** ****** ****** ****** ****** ****** ****** ****** ******
      ****** ****** ****** ****** ****** ****** ****** ****** ****** ******
   5  ****** ****** ****** ****** ****** ****** ****** ****** ****** ******
      ****** ****** ****** ****** ****** ****** ****** ****** ****** ******
      ****** ****** ****** ****** ****** ****** ****** ****** ****** ******
   6  ****** ****** ****** ****** ****** ****** ****** ****** ****** ******
      ****** ****** ****** ****** ****** ****** ****** ****** ****** ******
      ****** ****** ****** ****** ****** ****** ****** ****** ****** ******
   7  ****** ****** ****** ****** ****** ****** ****** ****** ****** ******
      ****** ****** ****** ****** ****** ****** ****** ****** ****** ******
      ****** ****** ****** ****** ****** ****** ****** ****** ****** ******
   8  ****** ****** ****** ****** ****** ****** ****** ****** ****** ******
      ****** ****** ****** ****** ****** ****** ****** ****** ****** ******
      ****** ****** ****** ****** ****** ****** ****** ****** ****** ******
   9  ****** ****** ****** ****** ****** ****** ****** ****** ****** ******
      ****** ****** ****** ****** ****** ****** ****** ****** ****** ******
      ****** ****** ****** ****** ****** ****** ****** ****** ****** ******
  10  ****** ****** ****** ****** ****** ****** ****** ****** ****** ******
      ****** ****** ****** ****** ****** ****** ****** ****** ****** ******
      ****** ****** ****** ****** ****** ****** ****** ****** ****** ******
  11  ****** ****** ****** ****** ****** ****** ****** ****** ****** ******
      ****** ****** ****** ****** ****** ****** ****** ****** ****** ******
      ****** ****** ****** ****** ****** ****** ****** ****** ****** ******
  12  ****** ****** ****** ****** ****** ****** ****** ****** ****** ******
      ****** ****** ****** ****** ****** ****** ****** ****** ****** ******
      ****** ****** ****** ****** ****** ****** ****** ****** ****** ******
  13  ****** ****** ****** ****** ****** ****** ****** ****** ****** ******
      ****** ****** ****** ****** ****** ****** ****** ****** ****** ******
      ****** ****** ****** ****** ****** ****** ****** ****** ****** ******
  14  ****** ****** ****** ****** ****** ****** ****** ****** ****** ******
      ****** ****** ****** ****** ****** ****** ****** ****** ****** ******
      ****** ****** ****** ****** ****** ****** ****** ****** ****** ******
  15  ****** ****** ****** ****** ****** ****** ****** ****** ****** ******
      ****** ****** ****** ****** ****** ****** ****** ****** ****** ******
      ****** ****** ****** ****** ****** ****** ****** ****** ****** ******
  16  ****** ****** ****** ****** ****** ****** ****** ****** ****** ******
      ****** ****** ****** ****** ****** ****** ****** ****** ****** ******
      ****** ****** ****** ****** ****** ****** ****** ****** ****** ******
  17  ****** ****** ****** ****** ****** ****** ****** ****** ****** ******
      ****** ****** ****** ****** ****** ****** ****** ****** ****** ******
      ****** ****** ****** ****** ****** ****** ****** ****** ****** ******
  18  ****** ****** ****** ****** ****** ****** ****** ****** ****** ******
      ****** ****** ****** ****** ****** ****** ****** ****** ****** ******
      ****** ****** ****** ****** ****** ****** ****** ****** ****** ******
  19  ****** ****** ****** ****** ****** ****** ****** ****** ****** ******
      ****** ****** ****** ****** ****** ****** ****** ****** ****** ******
      ****** ****** ****** ****** ****** ****** ****** ****** ****** ******
  20  ****** ****** ****** ****** ****** ****** ****** ****** ****** ******
      ****** ****** ****** ****** ****** ****** ****** ****** ****** ******
      ****** ****** ****** ****** ****** ****** ****** ****** ****** ******
  21  ****** ****** ****** ****** ****** ****** ****** ****** ****** ******
      ****** ****** ****** ****** ****** ****** ****** ****** ****** ******
      ****** ****** ****** ****** ****** ****** ****** ****** ****** ******
  22  ****** ****** ****** ****** ****** ****** ****** ****** ****** ******
      ****** ****** ****** ****** ****** ****** ****** ****** ****** ******
      ****** ****** ****** ****** ****** ****** ****** ****** ****** ******
  23  ****** ****** ****** ****** ****** ****** ****** ****** ****** ******
      ****** ****** ****** ****** ****** ****** ****** ****** ****** ******
      ****** ****** ****** ****** ****** ****** ****** ****** ****** ******
  24  ****** ****** ****** ****** ****** ****** ****** ****** ****** ******
      ****** ****** ****** ****** ****** ****** ****** ****** ****** ******
      ****** ****** ****** ****** ****** ****** ****** ****** ****** ******
  25  ****** ****** ****** ****** ****** ****** ****** ****** ****** ******
      ****** ****** ****** ****** ****** ****** ****** ****** ****** ******
      ****** ****** ****** ****** ****** ****** ****** ****** ****** ******

 HEAD WILL BE SAVED ON UNIT   51 AT END OF TIME STEP    1, STRESS PERIOD    6
1
  VOLUMETRIC BUDGET FOR ENTIRE MODEL AT END OF TIME STEP    1, STRESS PERIOD   6
  ------------------------------------------------------------------------------

     CUMULATIVE VOLUMES      L**3       RATES FOR THIS TIME STEP      L**3/T
     ------------------                 ------------------------

           IN:                                      IN:
           ---                                      ---
             STORAGE =    20216056.2217               STORAGE =         476.1932
       CONSTANT HEAD =   628522111.8251         CONSTANT HEAD =     1145750.8469
               WELLS =           0.0000                 WELLS =           0.0000
            RECHARGE =    15097200.0000              RECHARGE =       55200.0000
      STREAM LEAKAGE =           0.0000        STREAM LEAKAGE =           0.0000

            TOTAL IN =   663835368.0468              TOTAL IN =     1201427.0400

          OUT:                                     OUT:
          ----                                     ----
             STORAGE =      406397.6722               STORAGE =        2779.4709
       CONSTANT HEAD =           0.0000         CONSTANT HEAD =           0.0000
               WELLS =    31107363.8139                 WELLS =       82500.7500
            RECHARGE =           0.0000              RECHARGE =           0.0000
      STREAM LEAKAGE =   632321614.8103        STREAM LEAKAGE =     1116146.7888

           TOTAL OUT =   663835376.2964             TOTAL OUT =     1201427.0097

            IN - OUT =          -8.2497              IN - OUT =       3.0330E-02

 PERCENT DISCREPANCY =          -0.00     PERCENT DISCREPANCY =           0.00






         TIME SUMMARY AT END OF TIME STEP    1 IN STRESS PERIOD    6
                    SECONDS     MINUTES      HOURS       DAYS        YEARS
                    -----------------------------------------------------------
   TIME STEP LENGTH 7.86240E+06 1.31040E+05  2184.0      91.000     0.24914    
 STRESS PERIOD TIME 7.86240E+06 1.31040E+05  2184.0      91.000     0.24914    
         TOTAL TIME 4.73472E+07 7.89120E+05  13152.      548.00      1.5003    
1
1
                            STRESS PERIOD NO.    7, LENGTH =   91.00000    
                            -----------------------------------------------

                              NUMBER OF TIME STEPS =     1

                               MULTIPLIER FOR DELT =     1.500

                            INITIAL TIME STEP SIZE =   91.00000    

 WELL NO.  LAYER   ROW   COL   STRESS RATE         
 --------------------------------------------------
      1      1     12     11      -3484.    
      2      1     16     17     -0.2691E+05

      2 WELLS

                 RECHARGE =   0.00000    

 REUSING STREAM SEGMENT DATA FROM LAST STRESS PERIOD
 
 SOLVING FOR HEAD 


     6 CALLS TO PCG ROUTINE FOR TIME STEP   1 IN STRESS PERIOD    7
    22 TOTAL ITERATIONS

 OUTPUT CONTROL FOR STRESS PERIOD    7   TIME STEP    1
    SAVE BUDGET
    SAVE HEAD FOR ALL LAYERS
    PRINT HEAD FOR ALL LAYERS
 UBDSV2 SAVING "STREAMFLOW OUT  " ON UNIT  50 AT TIME STEP  1, STRESS PERIOD   7



 STREAM LISTING     PERIOD      7   STEP        1

 LAYER ROW COL. STREAM  RCH.  FLOW INTO     FLOW TO   FLOW OUT OF   OVRLND.     DIRECT     STREAM       STREAM     STREAM     STREAM   STREAMBED  STREAMBED
                SEG.NO.  NO.  STRM. RCH.    AQUIFER    STRM. RCH.    RUNOFF     PRECIP       ET          HEAD       DEPTH      WIDTH   CONDCTNC.   GRADIENT

   1   13    1     1     1    1.0000E+05 -2.7437E+04   1.2744E+05  0.000E+00  0.000E+00  0.000E+00  4.84176E+01  1.563E-01  2.000E+01  2.000E+04 -1.372E+00
   1   13    2     1     2    1.2744E+05 -3.7087E+04   1.6452E+05  0.000E+00  0.000E+00  0.000E+00  4.79656E+01  1.815E-01  2.000E+01  2.000E+04 -1.854E+00
   1   14    3     1     3    1.6452E+05 -3.2565E+04   1.9709E+05  0.000E+00  0.000E+00  0.000E+00  4.75132E+01  2.064E-01  2.000E+01  2.000E+04 -1.628E+00
   1   15    4     1     4    1.9709E+05 -3.1808E+04   2.2890E+05  0.000E+00  0.000E+00  0.000E+00  4.70572E+01  2.277E-01  2.000E+01  2.000E+04 -1.590E+00
   1   16    5     1     5    2.2890E+05 -3.3369E+04   2.6227E+05  0.000E+00  0.000E+00  0.000E+00  4.66003E+01  2.480E-01  2.000E+01  2.000E+04 -1.668E+00
   1   16    6     1     6    2.6227E+05 -2.9120E+04   2.9139E+05  0.000E+00  0.000E+00  0.000E+00  4.61415E+01  2.665E-01  2.000E+01  2.000E+04 -1.456E+00
   1   16    7     1     7    2.9139E+05 -2.8902E+04   3.2029E+05  0.000E+00  0.000E+00  0.000E+00  4.56806E+01  2.829E-01  2.000E+01  2.000E+04 -1.445E+00
   1   16    8     1     8    3.2029E+05 -2.9023E+04   3.4931E+05  0.000E+00  0.000E+00  0.000E+00  4.52191E+01  2.987E-01  2.000E+01  2.000E+04 -1.451E+00
   1   16    9     1     9    3.4931E+05 -2.9018E+04   3.7833E+05  0.000E+00  0.000E+00  0.000E+00  4.47571E+01  3.139E-01  2.000E+01  2.000E+04 -1.451E+00
   1   16   10     1    10    3.7833E+05 -2.8921E+04   4.0725E+05  0.000E+00  0.000E+00  0.000E+00  4.42946E+01  3.287E-01  2.000E+01  2.000E+04 -1.446E+00
   1   16   11     1    11    4.0725E+05 -2.9298E+04   4.3655E+05  0.000E+00  0.000E+00  0.000E+00  4.38318E+01  3.431E-01  2.000E+01  2.000E+04 -1.465E+00
   1   16   12     1    12    4.3655E+05 -3.4104E+04   4.7065E+05  0.000E+00  0.000E+00  0.000E+00  4.33697E+01  3.584E-01  2.000E+01  2.000E+04 -1.705E+00
   1   15   13     1    13    4.7065E+05 -3.2166E+04   5.0282E+05  0.000E+00  0.000E+00  0.000E+00  4.29079E+01  3.739E-01  2.000E+01  2.000E+04 -1.608E+00
   1   14   14     1    14    5.0282E+05 -3.2348E+04   5.3517E+05  0.000E+00  0.000E+00  0.000E+00  4.24453E+01  3.885E-01  2.000E+01  2.000E+04 -1.617E+00
   1   13   15     1    15    5.3517E+05 -3.4789E+04   5.6995E+05  0.000E+00  0.000E+00  0.000E+00  4.19830E+01  4.034E-01  2.000E+01  2.000E+04 -1.739E+00
   1   12   16     1    16    5.6995E+05 -4.1769E+04   6.1172E+05  0.000E+00  0.000E+00  0.000E+00  4.15222E+01  4.200E-01  2.000E+01  2.000E+04 -2.088E+00
   1   12   17     1    17    6.1172E+05 -3.2318E+04   6.4404E+05  0.000E+00  0.000E+00  0.000E+00  4.10606E+01  4.356E-01  2.000E+01  2.000E+04 -1.616E+00
   1   12   18     1    18    6.4404E+05 -3.0851E+04   6.7489E+05  0.000E+00  0.000E+00  0.000E+00  4.05963E+01  4.486E-01  2.000E+01  2.000E+04 -1.543E+00
   1   12   19     1    19    6.7489E+05 -3.5191E+04   7.1008E+05  0.000E+00  0.000E+00  0.000E+00  4.01324E+01  4.619E-01  2.000E+01  2.000E+04 -1.760E+00
   1   13   20     1    20    7.1008E+05 -2.4969E+04   7.3505E+05  0.000E+00  0.000E+00  0.000E+00  3.96670E+01  4.739E-01  2.000E+01  2.000E+04 -1.248E+00
   1   14   21     1    21    7.3505E+05 -1.7953E+04   7.5301E+05  0.000E+00  0.000E+00  0.000E+00  3.91982E+01  4.823E-01  2.000E+01  2.000E+04 -8.977E-01
   1   14   22     1    22    7.5301E+05 -1.3824E+03   7.5439E+05  0.000E+00  0.000E+00  0.000E+00  3.87246E+01  4.860E-01  2.000E+01  2.000E+04 -6.912E-02
   1    9   30     2     1    5.0000E+04 -2.6319E+04   7.6319E+04  0.000E+00  0.000E+00  0.000E+00  4.02583E+01  1.333E-01  2.000E+01  2.000E+04 -1.316E+00
   1    9   29     2     2    7.6319E+04 -2.8786E+04   1.0510E+05  0.000E+00  0.000E+00  0.000E+00  4.00406E+01  1.656E-01  2.000E+01  2.000E+04 -1.439E+00
   1    9   28     2     3    1.0510E+05 -3.3068E+04   1.3817E+05  0.000E+00  0.000E+00  0.000E+00  3.98225E+01  1.975E-01  2.000E+01  2.000E+04 -1.653E+00
   1    9   27     2     4    1.3817E+05 -4.7142E+04   1.8531E+05  0.000E+00  0.000E+00  0.000E+00  3.96094E+01  2.344E-01  2.000E+01  2.000E+04 -2.357E+00
   1   10   26     2     5    1.8531E+05 -3.3084E+04   2.1840E+05  0.000E+00  0.000E+00  0.000E+00  3.93927E+01  2.677E-01  2.000E+01  2.000E+04 -1.654E+00
   1   11   25     2     6    2.1840E+05 -2.4721E+04   2.4312E+05  0.000E+00  0.000E+00  0.000E+00  3.91650E+01  2.900E-01  2.000E+01  2.000E+04 -1.236E+00
   1   12   24     2     7    2.4312E+05 -1.8143E+04   2.6126E+05  0.000E+00  0.000E+00  0.000E+00  3.89309E+01  3.059E-01  2.000E+01  2.000E+04 -9.072E-01
   1   13   23     2     8    2.6126E+05 -1.2765E+04   2.7403E+05  0.000E+00  0.000E+00  0.000E+00  3.86920E+01  3.170E-01  2.000E+01  2.000E+04 -6.382E-01
   1   14   22     2     9    2.7403E+05 -6.8959E+03   2.8092E+05  0.000E+00  0.000E+00  0.000E+00  3.84490E+01  3.240E-01  2.000E+01  2.000E+04 -3.448E-01
   1   14   22     3     1    1.0353E+06 -1.4964E+04   1.0503E+06  0.000E+00  0.000E+00  0.000E+00  3.80456E+01  4.900E-01  2.000E+01  2.000E+04 -7.482E-01
   1   15   23     3     2    1.0503E+06 -2.2692E+04   1.0730E+06  0.000E+00  0.000E+00  0.000E+00  3.71620E+01  4.953E-01  2.000E+01  2.000E+04 -1.135E+00
   1   15   24     3     3    1.0730E+06 -1.9162E+04   1.0921E+06  0.000E+00  0.000E+00  0.000E+00  3.62789E+01  5.012E-01  2.000E+01  2.000E+04 -9.581E-01
   1   15   25     3     4    1.0921E+06 -1.8890E+04   1.1110E+06  0.000E+00  0.000E+00  0.000E+00  3.53953E+01  5.064E-01  2.000E+01  2.000E+04 -9.445E-01
   1   15   26     3     5    1.1110E+06 -2.1689E+04   1.1327E+06  0.000E+00  0.000E+00  0.000E+00  3.45120E+01  5.120E-01  2.000E+01  2.000E+04 -1.084E+00
   1   16   27     3     6    1.1327E+06 -2.8799E+04   1.1615E+06  0.000E+00  0.000E+00  0.000E+00  3.36300E+01  5.189E-01  2.000E+01  2.000E+04 -1.440E+00
   1   17   28     3     7    1.1615E+06 -3.5887E+04   1.1974E+06  0.000E+00  0.000E+00  0.000E+00  3.27498E+01  5.276E-01  2.000E+01  2.000E+04 -1.794E+00
   1   18   29     3     8    1.1974E+06 -4.6936E+04   1.2443E+06  0.000E+00  0.000E+00  0.000E+00  3.18720E+01  5.386E-01  2.000E+01  2.000E+04 -2.347E+00
   1   18   30     3     9    1.2443E+06 -4.3452E+04   1.2878E+06  0.000E+00  0.000E+00  0.000E+00  3.09950E+01  5.505E-01  2.000E+01  2.000E+04 -2.173E+00



1
              HEAD IN LAYER   1 AT END OF TIME STEP   1 IN STRESS PERIOD    7
  ---------------------------------------------------------------------------

          1      2      3      4      5      6      7      8      9     10
         11     12     13     14     15     16     17     18     19     20
         21     22     23     24     25     26     27     28     29     30
 .........................................................................
   1  ****** ****** ****** ****** ****** ****** ****** ****** ****** ******
      ****** ****** ****** ****** ****** ****** ****** ****** ****** ******
      ****** ****** ****** ****** ****** ****** ****** ****** ****** ******
   2  ****** ****** ****** ****** ****** ****** ****** ****** ****** ******
      ****** ****** ****** ****** ****** ****** ****** ****** ****** ******
      ****** ****** ****** ****** ****** ****** ****** ****** ****** ******
   3  ****** ****** ****** ****** ****** ****** ****** ****** ****** ******
      ****** ****** ****** ****** ****** ****** ****** ****** ****** ******
      ****** ****** ****** ****** ****** ****** ****** ****** ****** ******
   4  ****** ****** ****** ****** ****** ****** ****** ****** ****** ******
      ****** ****** ****** ****** ****** ****** ****** ****** ****** ******
      ****** ****** ****** ****** ****** ****** ****** ****** ****** ******
   5  ****** ****** ****** ****** ****** ****** ****** ****** ****** ******
      ****** ****** ****** ****** ****** ****** ****** ****** ****** ******
      ****** ****** ****** ****** ****** ****** ****** ****** ****** ******
   6  ****** ****** ****** ****** ****** ****** ****** ****** ****** ******
      ****** ****** ****** ****** ****** ****** ****** ****** ****** ******
      ****** ****** ****** ****** ****** ****** ****** ****** ****** ******
   7  ****** ****** ****** ****** ****** ****** ****** ****** ****** ******
      ****** ****** ****** ****** ****** ****** ****** ****** ****** ******
      ****** ****** ****** ****** ****** ****** ****** ****** ****** ******
   8  ****** ****** ****** ****** ****** ****** ****** ****** ****** ******
      ****** ****** ****** ****** ****** ****** ****** ****** ****** ******
      ****** ****** ****** ****** ****** ****** ****** ****** ****** ******
   9  ****** ****** ****** ****** ****** ****** ****** ****** ****** ******
      ****** ****** ****** ****** ****** ****** ****** ****** ****** ******
      ****** ****** ****** ****** ****** ****** ****** ****** ****** ******
  10  ****** ****** ****** ****** ****** ****** ****** ****** ****** ******
      ****** ****** ****** ****** ****** ****** ****** ****** ****** ******
      ****** ****** ****** ****** ****** ****** ****** ****** ****** ******
  11  ****** ****** ****** ****** ****** ****** ****** ****** ****** ******
      ****** ****** ****** ****** ****** ****** ****** ****** ****** ******
      ****** ****** ****** ****** ****** ****** ****** ****** ****** ******
  12  ****** ****** ****** ****** ****** ****** ****** ****** ****** ******
      ****** ****** ****** ****** ****** ****** ****** ****** ****** ******
      ****** ****** ****** ****** ****** ****** ****** ****** ****** ******
  13  ****** ****** ****** ****** ****** ****** ****** ****** ****** ******
      ****** ****** ****** ****** ****** ****** ****** ****** ****** ******
      ****** ****** ****** ****** ****** ****** ****** ****** ****** ******
  14  ****** ****** ****** ****** ****** ****** ****** ****** ****** ******
      ****** ****** ****** ****** ****** ****** ****** ****** ****** ******
      ****** ****** ****** ****** ****** ****** ****** ****** ****** ******
  15  ****** ****** ****** ****** ****** ****** ****** ****** ****** ******
      ****** ****** ****** ****** ****** ****** ****** ****** ****** ******
      ****** ****** ****** ****** ****** ****** ****** ****** ****** ******
  16  ****** ****** ****** ****** ****** ****** ****** ****** ****** ******
      ****** ****** ****** ****** ****** ****** ****** ****** ****** ******
      ****** ****** ****** ****** ****** ****** ****** ****** ****** ******
  17  ****** ****** ****** ****** ****** ****** ****** ****** ****** ******
      ****** ****** ****** ****** ****** ****** ****** ****** ****** ******
      ****** ****** ****** ****** ****** ****** ****** ****** ****** ******
  18  ****** ****** ****** ****** ****** ****** ****** ****** ****** ******
      ****** ****** ****** ****** ****** ****** ****** ****** ****** ******
      ****** ****** ****** ****** ****** ****** ****** ****** ****** ******
  19  ****** ****** ****** ****** ****** ****** ****** ****** ****** ******
      ****** ****** ****** ****** ****** ****** ****** ****** ****** ******
      ****** ****** ****** ****** ****** ****** ****** ****** ****** ******
  20  ****** ****** ****** ****** ****** ****** ****** ****** ****** ******
      ****** ****** ****** ****** ****** ****** ****** ****** ****** ******
      ****** ****** ****** ****** ****** ****** ****** ****** ****** ******
  21  ****** ****** ****** ****** ****** ****** ****** ****** ****** ******
      ****** ****** ****** ****** ****** ****** ****** ****** ****** ******
      ****** ****** ****** ****** ****** ****** ****** ****** ****** ******
  22  ****** ****** ****** ****** ****** ****** ****** ****** ****** ******
      ****** ****** ****** ****** ****** ****** ****** ****** ****** ******
      ****** ****** ****** ****** ****** ****** ****** ****** ****** ******
  23  ****** ****** ****** ****** ****** ****** ****** ****** ****** ******
      ****** ****** ****** ****** ****** ****** ****** ****** ****** ******
      ****** ****** ****** ****** ****** ****** ****** ****** ****** ******
  24  ****** ****** ****** ****** ****** ****** ****** ****** ****** ******
      ****** ****** ****** ****** ****** ****** ****** ****** ****** ******
      ****** ****** ****** ****** ****** ****** ****** ****** ****** ******
  25  ****** ****** ****** ****** ****** ****** ****** ****** ****** ******
      ****** ****** ****** ****** ****** ****** ****** ****** ****** ******
      ****** ****** ****** ****** ****** ****** ****** ****** ****** ******

 HEAD WILL BE SAVED ON UNIT   51 AT END OF TIME STEP    1, STRESS PERIOD    7
1
  VOLUMETRIC BUDGET FOR ENTIRE MODEL AT END OF TIME STEP    1, STRESS PERIOD   7
  ------------------------------------------------------------------------------

     CUMULATIVE VOLUMES      L**3       RATES FOR THIS TIME STEP      L**3/T
     ------------------                 ------------------------

           IN:                                      IN:
           ---                                      ---
             STORAGE =    20409335.7365               STORAGE =        2123.9507
       CONSTANT HEAD =   734675167.5096         CONSTANT HEAD =     1166517.0954
               WELLS =           0.0000                 WELLS =           0.0000
            RECHARGE =    15097200.0000              RECHARGE =           0.0000
      STREAM LEAKAGE =           0.0000        STREAM LEAKAGE =           0.0000

            TOTAL IN =   770181703.2461              TOTAL IN =     1168641.0461

          OUT:                                     OUT:
          ----                                     ----
             STORAGE =      448380.1367               STORAGE =         461.3458
       CONSTANT HEAD =           0.0000         CONSTANT HEAD =           0.0000
               WELLS =    33873593.1214                 WELLS =       30398.1243
            RECHARGE =           0.0000              RECHARGE =           0.0000
      STREAM LEAKAGE =   735859741.7187        STREAM LEAKAGE =     1137781.6144

           TOTAL OUT =   770181714.9768             TOTAL OUT =     1168641.0844

            IN - OUT =         -11.7307              IN - OUT =      -3.8254E-02

 PERCENT DISCREPANCY =          -0.00     PERCENT DISCREPANCY =          -0.00






         TIME SUMMARY AT END OF TIME STEP    1 IN STRESS PERIOD    7
                    SECONDS     MINUTES      HOURS       DAYS        YEARS
                    -----------------------------------------------------------
   TIME STEP LENGTH 7.86240E+06 1.31040E+05  2184.0      91.000     0.24914    
 STRESS PERIOD TIME 7.86240E+06 1.31040E+05  2184.0      91.000     0.24914    
         TOTAL TIME 5.52096E+07 9.20160E+05  15336.      639.00      1.7495    
1
1
                            STRESS PERIOD NO.    8, LENGTH =   91.00000    
                            -----------------------------------------------

                              NUMBER OF TIME STEPS =     1

                               MULTIPLIER FOR DELT =     1.500

                            INITIAL TIME STEP SIZE =   91.00000    

 WELL NO.  LAYER   ROW   COL   STRESS RATE         
 --------------------------------------------------
      1      1     12     11      -3484.    
      2      1     16     17     -0.2675E+05
      3      1     14     25      -8061.    

      3 WELLS

                 RECHARGE =  1.000000E-03

 REUSING STREAM SEGMENT DATA FROM LAST STRESS PERIOD
 
 SOLVING FOR HEAD 


     6 CALLS TO PCG ROUTINE FOR TIME STEP   1 IN STRESS PERIOD    8
    22 TOTAL ITERATIONS

 OUTPUT CONTROL FOR STRESS PERIOD    8   TIME STEP    1
    SAVE BUDGET
    SAVE HEAD FOR ALL LAYERS
    PRINT HEAD FOR ALL LAYERS
 UBDSV2 SAVING "STREAMFLOW OUT  " ON UNIT  50 AT TIME STEP  1, STRESS PERIOD   8



 STREAM LISTING     PERIOD      8   STEP        1

 LAYER ROW COL. STREAM  RCH.  FLOW INTO     FLOW TO   FLOW OUT OF   OVRLND.     DIRECT     STREAM       STREAM     STREAM     STREAM   STREAMBED  STREAMBED
                SEG.NO.  NO.  STRM. RCH.    AQUIFER    STRM. RCH.    RUNOFF     PRECIP       ET          HEAD       DEPTH      WIDTH   CONDCTNC.   GRADIENT

   1   13    1     1     1    1.0000E+05 -2.7830E+04   1.2783E+05  0.000E+00  0.000E+00  0.000E+00  4.84178E+01  1.564E-01  2.000E+01  2.000E+04 -1.392E+00
   1   13    2     1     2    1.2783E+05 -3.7555E+04   1.6539E+05  0.000E+00  0.000E+00  0.000E+00  4.79661E+01  1.820E-01  2.000E+01  2.000E+04 -1.878E+00
   1   14    3     1     3    1.6539E+05 -3.3027E+04   1.9841E+05  0.000E+00  0.000E+00  0.000E+00  4.75139E+01  2.071E-01  2.000E+01  2.000E+04 -1.651E+00
   1   15    4     1     4    1.9841E+05 -3.2255E+04   2.3067E+05  0.000E+00  0.000E+00  0.000E+00  4.70582E+01  2.287E-01  2.000E+01  2.000E+04 -1.613E+00
   1   16    5     1     5    2.3067E+05 -3.3776E+04   2.6444E+05  0.000E+00  0.000E+00  0.000E+00  4.66015E+01  2.492E-01  2.000E+01  2.000E+04 -1.689E+00
   1   16    6     1     6    2.6444E+05 -2.9473E+04   2.9392E+05  0.000E+00  0.000E+00  0.000E+00  4.61428E+01  2.678E-01  2.000E+01  2.000E+04 -1.474E+00
   1   16    7     1     7    2.9392E+05 -2.9251E+04   3.2317E+05  0.000E+00  0.000E+00  0.000E+00  4.56821E+01  2.844E-01  2.000E+01  2.000E+04 -1.463E+00
   1   16    8     1     8    3.2317E+05 -2.9374E+04   3.5254E+05  0.000E+00  0.000E+00  0.000E+00  4.52208E+01  3.003E-01  2.000E+01  2.000E+04 -1.469E+00
   1   16    9     1     9    3.5254E+05 -2.9369E+04   3.8191E+05  0.000E+00  0.000E+00  0.000E+00  4.47589E+01  3.157E-01  2.000E+01  2.000E+04 -1.468E+00
   1   16   10     1    10    3.8191E+05 -2.9272E+04   4.1118E+05  0.000E+00  0.000E+00  0.000E+00  4.42965E+01  3.306E-01  2.000E+01  2.000E+04 -1.464E+00
   1   16   11     1    11    4.1118E+05 -2.9656E+04   4.4084E+05  0.000E+00  0.000E+00  0.000E+00  4.38338E+01  3.451E-01  2.000E+01  2.000E+04 -1.483E+00
   1   16   12     1    12    4.4084E+05 -3.4526E+04   4.7536E+05  0.000E+00  0.000E+00  0.000E+00  4.33719E+01  3.605E-01  2.000E+01  2.000E+04 -1.726E+00
   1   15   13     1    13    4.7536E+05 -3.2631E+04   5.0799E+05  0.000E+00  0.000E+00  0.000E+00  4.29102E+01  3.761E-01  2.000E+01  2.000E+04 -1.632E+00
   1   14   14     1    14    5.0799E+05 -3.2829E+04   5.4082E+05  0.000E+00  0.000E+00  0.000E+00  4.24478E+01  3.910E-01  2.000E+01  2.000E+04 -1.641E+00
   1   13   15     1    15    5.4082E+05 -3.5263E+04   5.7609E+05  0.000E+00  0.000E+00  0.000E+00  4.19855E+01  4.060E-01  2.000E+01  2.000E+04 -1.763E+00
   1   12   16     1    16    5.7609E+05 -4.2219E+04   6.1831E+05  0.000E+00  0.000E+00  0.000E+00  4.15249E+01  4.227E-01  2.000E+01  2.000E+04 -2.111E+00
   1   12   17     1    17    6.1831E+05 -3.2684E+04   6.5099E+05  0.000E+00  0.000E+00  0.000E+00  4.10634E+01  4.384E-01  2.000E+01  2.000E+04 -1.634E+00
   1   12   18     1    18    6.5099E+05 -3.1198E+04   6.8219E+05  0.000E+00  0.000E+00  0.000E+00  4.05992E+01  4.515E-01  2.000E+01  2.000E+04 -1.560E+00
   1   12   19     1    19    6.8219E+05 -3.5558E+04   7.1775E+05  0.000E+00  0.000E+00  0.000E+00  4.01354E+01  4.649E-01  2.000E+01  2.000E+04 -1.778E+00
   1   13   20     1    20    7.1775E+05 -2.5302E+04   7.4305E+05  0.000E+00  0.000E+00  0.000E+00  3.96701E+01  4.769E-01  2.000E+01  2.000E+04 -1.265E+00
   1   14   21     1    21    7.4305E+05 -1.8220E+04   7.6127E+05  0.000E+00  0.000E+00  0.000E+00  3.92013E+01  4.854E-01  2.000E+01  2.000E+04 -9.110E-01
   1   14   22     1    22    7.6127E+05 -1.3715E+03   7.6264E+05  0.000E+00  0.000E+00  0.000E+00  3.87278E+01  4.892E-01  2.000E+01  2.000E+04 -6.858E-02
   1    9   30     2     1    5.0000E+04 -2.6539E+04   7.6539E+04  0.000E+00  0.000E+00  0.000E+00  4.02584E+01  1.334E-01  2.000E+01  2.000E+04 -1.327E+00
   1    9   29     2     2    7.6539E+04 -2.9002E+04   1.0554E+05  0.000E+00  0.000E+00  0.000E+00  4.00410E+01  1.660E-01  2.000E+01  2.000E+04 -1.450E+00
   1    9   28     2     3    1.0554E+05 -3.3286E+04   1.3883E+05  0.000E+00  0.000E+00  0.000E+00  3.98231E+01  1.981E-01  2.000E+01  2.000E+04 -1.664E+00
   1    9   27     2     4    1.3883E+05 -4.7414E+04   1.8624E+05  0.000E+00  0.000E+00  0.000E+00  3.96100E+01  2.350E-01  2.000E+01  2.000E+04 -2.371E+00
   1   10   26     2     5    1.8624E+05 -3.3252E+04   2.1949E+05  0.000E+00  0.000E+00  0.000E+00  3.93935E+01  2.685E-01  2.000E+01  2.000E+04 -1.663E+00
   1   11   25     2     6    2.1949E+05 -2.4647E+04   2.4414E+05  0.000E+00  0.000E+00  0.000E+00  3.91658E+01  2.908E-01  2.000E+01  2.000E+04 -1.232E+00
   1   12   24     2     7    2.4414E+05 -1.7802E+04   2.6194E+05  0.000E+00  0.000E+00  0.000E+00  3.89315E+01  3.065E-01  2.000E+01  2.000E+04 -8.901E-01
   1   13   23     2     8    2.6194E+05 -1.2472E+04   2.7441E+05  0.000E+00  0.000E+00  0.000E+00  3.86924E+01  3.174E-01  2.000E+01  2.000E+04 -6.236E-01
   1   14   22     2     9    2.7441E+05 -6.9430E+03   2.8136E+05  0.000E+00  0.000E+00  0.000E+00  3.84493E+01  3.243E-01  2.000E+01  2.000E+04 -3.471E-01
   1   14   22     3     1    1.0440E+06 -1.4968E+04   1.0590E+06  0.000E+00  0.000E+00  0.000E+00  3.80480E+01  4.925E-01  2.000E+01  2.000E+04 -7.484E-01
   1   15   23     3     2    1.0590E+06 -2.2654E+04   1.0816E+06  0.000E+00  0.000E+00  0.000E+00  3.71644E+01  4.977E-01  2.000E+01  2.000E+04 -1.133E+00
   1   15   24     3     3    1.0816E+06 -1.8554E+04   1.1002E+06  0.000E+00  0.000E+00  0.000E+00  3.62812E+01  5.035E-01  2.000E+01  2.000E+04 -9.277E-01
   1   15   25     3     4    1.1002E+06 -1.7323E+04   1.1175E+06  0.000E+00  0.000E+00  0.000E+00  3.53973E+01  5.084E-01  2.000E+01  2.000E+04 -8.662E-01
   1   15   26     3     5    1.1175E+06 -2.0964E+04   1.1385E+06  0.000E+00  0.000E+00  0.000E+00  3.45137E+01  5.137E-01  2.000E+01  2.000E+04 -1.048E+00
   1   16   27     3     6    1.1385E+06 -2.8834E+04   1.1673E+06  0.000E+00  0.000E+00  0.000E+00  3.36316E+01  5.204E-01  2.000E+01  2.000E+04 -1.442E+00
   1   17   28     3     7    1.1673E+06 -3.6107E+04   1.2034E+06  0.000E+00  0.000E+00  0.000E+00  3.27514E+01  5.292E-01  2.000E+01  2.000E+04 -1.805E+00
   1   18   29     3     8    1.2034E+06 -4.7207E+04   1.2506E+06  0.000E+00  0.000E+00  0.000E+00  3.18736E+01  5.403E-01  2.000E+01  2.000E+04 -2.360E+00
   1   18   30     3     9    1.2506E+06 -4.3677E+04   1.2943E+06  0.000E+00  0.000E+00  0.000E+00  3.09966E+01  5.522E-01  2.000E+01  2.000E+04 -2.184E+00



1
              HEAD IN LAYER   1 AT END OF TIME STEP   1 IN STRESS PERIOD    8
  ---------------------------------------------------------------------------

          1      2      3      4      5      6      7      8      9     10
         11     12     13     14     15     16     17     18     19     20
         21     22     23     24     25     26     27     28     29     30
 .........................................................................
   1  ****** ****** ****** ****** ****** ****** ****** ****** ****** ******
      ****** ****** ****** ****** ****** ****** ****** ****** ****** ******
      ****** ****** ****** ****** ****** ****** ****** ****** ****** ******
   2  ****** ****** ****** ****** ****** ****** ****** ****** ****** ******
      ****** ****** ****** ****** ****** ****** ****** ****** ****** ******
      ****** ****** ****** ****** ****** ****** ****** ****** ****** ******
   3  ****** ****** ****** ****** ****** ****** ****** ****** ****** ******
      ****** ****** ****** ****** ****** ****** ****** ****** ****** ******
      ****** ****** ****** ****** ****** ****** ****** ****** ****** ******
   4  ****** ****** ****** ****** ****** ****** ****** ****** ****** ******
      ****** ****** ****** ****** ****** ****** ****** ****** ****** ******
      ****** ****** ****** ****** ****** ****** ****** ****** ****** ******
   5  ****** ****** ****** ****** ****** ****** ****** ****** ****** ******
      ****** ****** ****** ****** ****** ****** ****** ****** ****** ******
      ****** ****** ****** ****** ****** ****** ****** ****** ****** ******
   6  ****** ****** ****** ****** ****** ****** ****** ****** ****** ******
      ****** ****** ****** ****** ****** ****** ****** ****** ****** ******
      ****** ****** ****** ****** ****** ****** ****** ****** ****** ******
   7  ****** ****** ****** ****** ****** ****** ****** ****** ****** ******
      ****** ****** ****** ****** ****** ****** ****** ****** ****** ******
      ****** ****** ****** ****** ****** ****** ****** ****** ****** ******
   8  ****** ****** ****** ****** ****** ****** ****** ****** ****** ******
      ****** ****** ****** ****** ****** ****** ****** ****** ****** ******
      ****** ****** ****** ****** ****** ****** ****** ****** ****** ******
   9  ****** ****** ****** ****** ****** ****** ****** ****** ****** ******
      ****** ****** ****** ****** ****** ****** ****** ****** ****** ******
      ****** ****** ****** ****** ****** ****** ****** ****** ****** ******
  10  ****** ****** ****** ****** ****** ****** ****** ****** ****** ******
      ****** ****** ****** ****** ****** ****** ****** ****** ****** ******
      ****** ****** ****** ****** ****** ****** ****** ****** ****** ******
  11  ****** ****** ****** ****** ****** ****** ****** ****** ****** ******
      ****** ****** ****** ****** ****** ****** ****** ****** ****** ******
      ****** ****** ****** ****** ****** ****** ****** ****** ****** ******
  12  ****** ****** ****** ****** ****** ****** ****** ****** ****** ******
      ****** ****** ****** ****** ****** ****** ****** ****** ****** ******
      ****** ****** ****** ****** ****** ****** ****** ****** ****** ******
  13  ****** ****** ****** ****** ****** ****** ****** ****** ****** ******
      ****** ****** ****** ****** ****** ****** ****** ****** ****** ******
      ****** ****** ****** ****** ****** ****** ****** ****** ****** ******
  14  ****** ****** ****** ****** ****** ****** ****** ****** ****** ******
      ****** ****** ****** ****** ****** ****** ****** ****** ****** ******
      ****** ****** ****** ****** ****** ****** ****** ****** ****** ******
  15  ****** ****** ****** ****** ****** ****** ****** ****** ****** ******
      ****** ****** ****** ****** ****** ****** ****** ****** ****** ******
      ****** ****** ****** ****** ****** ****** ****** ****** ****** ******
  16  ****** ****** ****** ****** ****** ****** ****** ****** ****** ******
      ****** ****** ****** ****** ****** ****** ****** ****** ****** ******
      ****** ****** ****** ****** ****** ****** ****** ****** ****** ******
  17  ****** ****** ****** ****** ****** ****** ****** ****** ****** ******
      ****** ****** ****** ****** ****** ****** ****** ****** ****** ******
      ****** ****** ****** ****** ****** ****** ****** ****** ****** ******
  18  ****** ****** ****** ****** ****** ****** ****** ****** ****** ******
      ****** ****** ****** ****** ****** ****** ****** ****** ****** ******
      ****** ****** ****** ****** ****** ****** ****** ****** ****** ******
  19  ****** ****** ****** ****** ****** ****** ****** ****** ****** ******
      ****** ****** ****** ****** ****** ****** ****** ****** ****** ******
      ****** ****** ****** ****** ****** ****** ****** ****** ****** ******
  20  ****** ****** ****** ****** ****** ****** ****** ****** ****** ******
      ****** ****** ****** ****** ****** ****** ****** ****** ****** ******
      ****** ****** ****** ****** ****** ****** ****** ****** ****** ******
  21  ****** ****** ****** ****** ****** ****** ****** ****** ****** ******
      ****** ****** ****** ****** ****** ****** ****** ****** ****** ******
      ****** ****** ****** ****** ****** ****** ****** ****** ****** ******
  22  ****** ****** ****** ****** ****** ****** ****** ****** ****** ******
      ****** ****** ****** ****** ****** ****** ****** ****** ****** ******
      ****** ****** ****** ****** ****** ****** ****** ****** ****** ******
  23  ****** ****** ****** ****** ****** ****** ****** ****** ****** ******
      ****** ****** ****** ****** ****** ****** ****** ****** ****** ******
      ****** ****** ****** ****** ****** ****** ****** ****** ****** ******
  24  ****** ****** ****** ****** ****** ****** ****** ****** ****** ******
      ****** ****** ****** ****** ****** ****** ****** ****** ****** ******
      ****** ****** ****** ****** ****** ****** ****** ****** ****** ******
  25  ****** ****** ****** ****** ****** ****** ****** ****** ****** ******
      ****** ****** ****** ****** ****** ****** ****** ****** ****** ******
      ****** ****** ****** ****** ****** ****** ****** ****** ****** ******

 HEAD WILL BE SAVED ON UNIT   51 AT END OF TIME STEP    1, STRESS PERIOD    8
1
  VOLUMETRIC BUDGET FOR ENTIRE MODEL AT END OF TIME STEP    1, STRESS PERIOD   8
  ------------------------------------------------------------------------------

     CUMULATIVE VOLUMES      L**3       RATES FOR THIS TIME STEP      L**3/T
     ------------------                 ------------------------

           IN:                                      IN:
           ---                                      ---
             STORAGE =    20413214.9260               STORAGE =          42.6285
       CONSTANT HEAD =   839876627.1333         CONSTANT HEAD =     1156059.9959
               WELLS =           0.0000                 WELLS =           0.0000
            RECHARGE =    17608800.0000              RECHARGE =       27600.0000
      STREAM LEAKAGE =           0.0000        STREAM LEAKAGE =           0.0000

            TOTAL IN =   877898642.0594              TOTAL IN =     1183702.6243

          OUT:                                     OUT:
          ----                                     ----
             STORAGE =      550519.1536               STORAGE =        1122.4068
       CONSTANT HEAD =           0.0000         CONSTANT HEAD =           0.0000
               WELLS =    37358464.3499                 WELLS =       38295.2882
            RECHARGE =           0.0000              RECHARGE =           0.0000
      STREAM LEAKAGE =   839989668.4422        STREAM LEAKAGE =     1144284.9090

           TOTAL OUT =   877898651.9456             TOTAL OUT =     1183702.6041

            IN - OUT =          -9.8863              IN - OUT =       2.0269E-02

 PERCENT DISCREPANCY =          -0.00     PERCENT DISCREPANCY =           0.00






         TIME SUMMARY AT END OF TIME STEP    1 IN STRESS PERIOD    8
                    SECONDS     MINUTES      HOURS       DAYS        YEARS
                    -----------------------------------------------------------
   TIME STEP LENGTH 7.86240E+06 1.31040E+05  2184.0      91.000     0.24914    
 STRESS PERIOD TIME 7.86240E+06 1.31040E+05  2184.0      91.000     0.24914    
         TOTAL TIME 6.30720E+07 1.05120E+06  17520.      730.00      1.9986    
1
1
                            STRESS PERIOD NO.    9, LENGTH =   92.00000    
                            -----------------------------------------------

                              NUMBER OF TIME STEPS =     1

                               MULTIPLIER FOR DELT =     1.500

                            INITIAL TIME STEP SIZE =   92.00000    

 WELL NO.  LAYER   ROW   COL   STRESS RATE         
 --------------------------------------------------
      1      1     12     11      -3484.    
      2      1     16     17     -0.5000E+05

      2 WELLS

                 RECHARGE =  5.000000E-04

 REUSING STREAM SEGMENT DATA FROM LAST STRESS PERIOD
 
 SOLVING FOR HEAD 


     6 CALLS TO PCG ROUTINE FOR TIME STEP   1 IN STRESS PERIOD    9
    22 TOTAL ITERATIONS

 OUTPUT CONTROL FOR STRESS PERIOD    9   TIME STEP    1
    SAVE BUDGET
    SAVE HEAD FOR ALL LAYERS
    PRINT HEAD FOR ALL LAYERS
 UBDSV2 SAVING "STREAMFLOW OUT  " ON UNIT  50 AT TIME STEP  1, STRESS PERIOD   9



 STREAM LISTING     PERIOD      9   STEP        1

 LAYER ROW COL. STREAM  RCH.  FLOW INTO     FLOW TO   FLOW OUT OF   OVRLND.     DIRECT     STREAM       STREAM     STREAM     STREAM   STREAMBED  STREAMBED
                SEG.NO.  NO.  STRM. RCH.    AQUIFER    STRM. RCH.    RUNOFF     PRECIP       ET          HEAD       DEPTH      WIDTH   CONDCTNC.   GRADIENT

   1   13    1     1     1    1.0000E+05 -2.7616E+04   1.2762E+05  0.000E+00  0.000E+00  0.000E+00  4.84177E+01  1.563E-01  2.000E+01  2.000E+04 -1.381E+00
   1   13    2     1     2    1.2762E+05 -3.7297E+04   1.6491E+05  0.000E+00  0.000E+00  0.000E+00  4.79658E+01  1.817E-01  2.000E+01  2.000E+04 -1.865E+00
   1   14    3     1     3    1.6491E+05 -3.2767E+04   1.9768E+05  0.000E+00  0.000E+00  0.000E+00  4.75135E+01  2.067E-01  2.000E+01  2.000E+04 -1.638E+00
   1   15    4     1     4    1.9768E+05 -3.1995E+04   2.2967E+05  0.000E+00  0.000E+00  0.000E+00  4.70577E+01  2.281E-01  2.000E+01  2.000E+04 -1.600E+00
   1   16    5     1     5    2.2967E+05 -3.3521E+04   2.6320E+05  0.000E+00  0.000E+00  0.000E+00  4.66008E+01  2.485E-01  2.000E+01  2.000E+04 -1.676E+00
   1   16    6     1     6    2.6320E+05 -2.9236E+04   2.9243E+05  0.000E+00  0.000E+00  0.000E+00  4.61420E+01  2.670E-01  2.000E+01  2.000E+04 -1.462E+00
   1   16    7     1     7    2.9243E+05 -2.8993E+04   3.2142E+05  0.000E+00  0.000E+00  0.000E+00  4.56812E+01  2.835E-01  2.000E+01  2.000E+04 -1.450E+00
   1   16    8     1     8    3.2142E+05 -2.9079E+04   3.5050E+05  0.000E+00  0.000E+00  0.000E+00  4.52197E+01  2.993E-01  2.000E+01  2.000E+04 -1.454E+00
   1   16    9     1     9    3.5050E+05 -2.9016E+04   3.7952E+05  0.000E+00  0.000E+00  0.000E+00  4.47577E+01  3.146E-01  2.000E+01  2.000E+04 -1.451E+00
   1   16   10     1    10    3.7952E+05 -2.8821E+04   4.0834E+05  0.000E+00  0.000E+00  0.000E+00  4.42952E+01  3.293E-01  2.000E+01  2.000E+04 -1.441E+00
   1   16   11     1    11    4.0834E+05 -2.8999E+04   4.3734E+05  0.000E+00  0.000E+00  0.000E+00  4.38322E+01  3.436E-01  2.000E+01  2.000E+04 -1.450E+00
   1   16   12     1    12    4.3734E+05 -3.3226E+04   4.7056E+05  0.000E+00  0.000E+00  0.000E+00  4.33699E+01  3.585E-01  2.000E+01  2.000E+04 -1.661E+00
   1   15   13     1    13    4.7056E+05 -3.0851E+04   5.0142E+05  0.000E+00  0.000E+00  0.000E+00  4.29076E+01  3.735E-01  2.000E+01  2.000E+04 -1.543E+00
   1   14   14     1    14    5.0142E+05 -3.0717E+04   5.3213E+05  0.000E+00  0.000E+00  0.000E+00  4.24443E+01  3.875E-01  2.000E+01  2.000E+04 -1.536E+00
   1   13   15     1    15    5.3213E+05 -3.3290E+04   5.6542E+05  0.000E+00  0.000E+00  0.000E+00  4.19813E+01  4.018E-01  2.000E+01  2.000E+04 -1.665E+00
   1   12   16     1    16    5.6542E+05 -4.0980E+04   6.0640E+05  0.000E+00  0.000E+00  0.000E+00  4.15201E+01  4.179E-01  2.000E+01  2.000E+04 -2.049E+00
   1   12   17     1    17    6.0640E+05 -3.1358E+04   6.3776E+05  0.000E+00  0.000E+00  0.000E+00  4.10581E+01  4.331E-01  2.000E+01  2.000E+04 -1.568E+00
   1   12   18     1    18    6.3776E+05 -2.9973E+04   6.6773E+05  0.000E+00  0.000E+00  0.000E+00  4.05936E+01  4.458E-01  2.000E+01  2.000E+04 -1.499E+00
   1   12   19     1    19    6.6773E+05 -3.4559E+04   7.0229E+05  0.000E+00  0.000E+00  0.000E+00  4.01294E+01  4.589E-01  2.000E+01  2.000E+04 -1.728E+00
   1   13   20     1    20    7.0229E+05 -2.3855E+04   7.2615E+05  0.000E+00  0.000E+00  0.000E+00  3.96638E+01  4.706E-01  2.000E+01  2.000E+04 -1.193E+00
   1   14   21     1    21    7.2615E+05 -1.6833E+04   7.4298E+05  0.000E+00  0.000E+00  0.000E+00  3.91945E+01  4.786E-01  2.000E+01  2.000E+04 -8.416E-01
   1   14   22     1    22    7.4298E+05 -1.2124E+03   7.4419E+05  0.000E+00  0.000E+00  0.000E+00  3.87207E+01  4.821E-01  2.000E+01  2.000E+04 -6.062E-02
   1    9   30     2     1    5.0000E+04 -2.6468E+04   7.6468E+04  0.000E+00  0.000E+00  0.000E+00  4.02584E+01  1.334E-01  2.000E+01  2.000E+04 -1.323E+00
   1    9   29     2     2    7.6468E+04 -2.8934E+04   1.0540E+05  0.000E+00  0.000E+00  0.000E+00  4.00409E+01  1.659E-01  2.000E+01  2.000E+04 -1.447E+00
   1    9   28     2     3    1.0540E+05 -3.3218E+04   1.3862E+05  0.000E+00  0.000E+00  0.000E+00  3.98229E+01  1.979E-01  2.000E+01  2.000E+04 -1.661E+00
   1    9   27     2     4    1.3862E+05 -4.7317E+04   1.8594E+05  0.000E+00  0.000E+00  0.000E+00  3.96098E+01  2.348E-01  2.000E+01  2.000E+04 -2.366E+00
   1   10   26     2     5    1.8594E+05 -3.3265E+04   2.1920E+05  0.000E+00  0.000E+00  0.000E+00  3.93932E+01  2.682E-01  2.000E+01  2.000E+04 -1.663E+00
   1   11   25     2     6    2.1920E+05 -2.4888E+04   2.4409E+05  0.000E+00  0.000E+00  0.000E+00  3.91657E+01  2.907E-01  2.000E+01  2.000E+04 -1.244E+00
   1   12   24     2     7    2.4409E+05 -1.8261E+04   2.6235E+05  0.000E+00  0.000E+00  0.000E+00  3.89317E+01  3.067E-01  2.000E+01  2.000E+04 -9.130E-01
   1   13   23     2     8    2.6235E+05 -1.2761E+04   2.7511E+05  0.000E+00  0.000E+00  0.000E+00  3.86928E+01  3.178E-01  2.000E+01  2.000E+04 -6.381E-01
   1   14   22     2     9    2.7511E+05 -6.6340E+03   2.8175E+05  0.000E+00  0.000E+00  0.000E+00  3.84496E+01  3.246E-01  2.000E+01  2.000E+04 -3.317E-01
   1   14   22     3     1    1.0259E+06 -1.4769E+04   1.0407E+06  0.000E+00  0.000E+00  0.000E+00  3.80429E+01  4.874E-01  2.000E+01  2.000E+04 -7.384E-01
   1   15   23     3     2    1.0407E+06 -2.2211E+04   1.0629E+06  0.000E+00  0.000E+00  0.000E+00  3.71592E+01  4.926E-01  2.000E+01  2.000E+04 -1.111E+00
   1   15   24     3     3    1.0629E+06 -1.9021E+04   1.0819E+06  0.000E+00  0.000E+00  0.000E+00  3.62761E+01  4.983E-01  2.000E+01  2.000E+04 -9.510E-01
   1   15   25     3     4    1.0819E+06 -1.8891E+04   1.1008E+06  0.000E+00  0.000E+00  0.000E+00  3.53925E+01  5.036E-01  2.000E+01  2.000E+04 -9.446E-01
   1   15   26     3     5    1.1008E+06 -2.1781E+04   1.1226E+06  0.000E+00  0.000E+00  0.000E+00  3.45092E+01  5.092E-01  2.000E+01  2.000E+04 -1.089E+00
   1   16   27     3     6    1.1226E+06 -2.8866E+04   1.1515E+06  0.000E+00  0.000E+00  0.000E+00  3.36273E+01  5.161E-01  2.000E+01  2.000E+04 -1.443E+00
   1   17   28     3     7    1.1515E+06 -3.5964E+04   1.1874E+06  0.000E+00  0.000E+00  0.000E+00  3.27471E+01  5.249E-01  2.000E+01  2.000E+04 -1.798E+00
   1   18   29     3     8    1.1874E+06 -4.7014E+04   1.2345E+06  0.000E+00  0.000E+00  0.000E+00  3.18693E+01  5.360E-01  2.000E+01  2.000E+04 -2.351E+00
   1   18   30     3     9    1.2345E+06 -4.3544E+04   1.2780E+06  0.000E+00  0.000E+00  0.000E+00  3.09924E+01  5.480E-01  2.000E+01  2.000E+04 -2.177E+00



1
              HEAD IN LAYER   1 AT END OF TIME STEP   1 IN STRESS PERIOD    9
  ---------------------------------------------------------------------------

          1      2      3      4      5      6      7      8      9     10
         11     12     13     14     15     16     17     18     19     20
         21     22     23     24     25     26     27     28     29     30
 .........................................................................
   1  ****** ****** ****** ****** ****** ****** ****** ****** ****** ******
      ****** ****** ****** ****** ****** ****** ****** ****** ****** ******
      ****** ****** ****** ****** ****** ****** ****** ****** ****** ******
   2  ****** ****** ****** ****** ****** ****** ****** ****** ****** ******
      ****** ****** ****** ****** ****** ****** ****** ****** ****** ******
      ****** ****** ****** ****** ****** ****** ****** ****** ****** ******
   3  ****** ****** ****** ****** ****** ****** ****** ****** ****** ******
      ****** ****** ****** ****** ****** ****** ****** ****** ****** ******
      ****** ****** ****** ****** ****** ****** ****** ****** ****** ******
   4  ****** ****** ****** ****** ****** ****** ****** ****** ****** ******
      ****** ****** ****** ****** ****** ****** ****** ****** ****** ******
      ****** ****** ****** ****** ****** ****** ****** ****** ****** ******
   5  ****** ****** ****** ****** ****** ****** ****** ****** ****** ******
      ****** ****** ****** ****** ****** ****** ****** ****** ****** ******
      ****** ****** ****** ****** ****** ****** ****** ****** ****** ******
   6  ****** ****** ****** ****** ****** ****** ****** ****** ****** ******
      ****** ****** ****** ****** ****** ****** ****** ****** ****** ******
      ****** ****** ****** ****** ****** ****** ****** ****** ****** ******
   7  ****** ****** ****** ****** ****** ****** ****** ****** ****** ******
      ****** ****** ****** ****** ****** ****** ****** ****** ****** ******
      ****** ****** ****** ****** ****** ****** ****** ****** ****** ******
   8  ****** ****** ****** ****** ****** ****** ****** ****** ****** ******
      ****** ****** ****** ****** ****** ****** ****** ****** ****** ******
      ****** ****** ****** ****** ****** ****** ****** ****** ****** ******
   9  ****** ****** ****** ****** ****** ****** ****** ****** ****** ******
      ****** ****** ****** ****** ****** ****** ****** ****** ****** ******
      ****** ****** ****** ****** ****** ****** ****** ****** ****** ******
  10  ****** ****** ****** ****** ****** ****** ****** ****** ****** ******
      ****** ****** ****** ****** ****** ****** ****** ****** ****** ******
      ****** ****** ****** ****** ****** ****** ****** ****** ****** ******
  11  ****** ****** ****** ****** ****** ****** ****** ****** ****** ******
      ****** ****** ****** ****** ****** ****** ****** ****** ****** ******
      ****** ****** ****** ****** ****** ****** ****** ****** ****** ******
  12  ****** ****** ****** ****** ****** ****** ****** ****** ****** ******
      ****** ****** ****** ****** ****** ****** ****** ****** ****** ******
      ****** ****** ****** ****** ****** ****** ****** ****** ****** ******
  13  ****** ****** ****** ****** ****** ****** ****** ****** ****** ******
      ****** ****** ****** ****** ****** ****** ****** ****** ****** ******
      ****** ****** ****** ****** ****** ****** ****** ****** ****** ******
  14  ****** ****** ****** ****** ****** ****** ****** ****** ****** ******
      ****** ****** ****** ****** ****** ****** ****** ****** ****** ******
      ****** ****** ****** ****** ****** ****** ****** ****** ****** ******
  15  ****** ****** ****** ****** ****** ****** ****** ****** ****** ******
      ****** ****** ****** ****** ****** ****** ****** ****** ****** ******
      ****** ****** ****** ****** ****** ****** ****** ****** ****** ******
  16  ****** ****** ****** ****** ****** ****** ****** ****** ****** ******
      ****** ****** ****** ****** ****** ****** ****** ****** ****** ******
      ****** ****** ****** ****** ****** ****** ****** ****** ****** ******
  17  ****** ****** ****** ****** ****** ****** ****** ****** ****** ******
      ****** ****** ****** ****** ****** ****** ****** ****** ****** ******
      ****** ****** ****** ****** ****** ****** ****** ****** ****** ******
  18  ****** ****** ****** ****** ****** ****** ****** ****** ****** ******
      ****** ****** ****** ****** ****** ****** ****** ****** ****** ******
      ****** ****** ****** ****** ****** ****** ****** ****** ****** ******
  19  ****** ****** ****** ****** ****** ****** ****** ****** ****** ******
      ****** ****** ****** ****** ****** ****** ****** ****** ****** ******
      ****** ****** ****** ****** ****** ****** ****** ****** ****** ******
  20  ****** ****** ****** ****** ****** ****** ****** ****** ****** ******
      ****** ****** ****** ****** ****** ****** ****** ****** ****** ******
      ****** ****** ****** ****** ****** ****** ****** ****** ****** ******
  21  ****** ****** ****** ****** ****** ****** ****** ****** ****** ******
      ****** ****** ****** ****** ****** ****** ****** ****** ****** ******
      ****** ****** ****** ****** ****** ****** ****** ****** ****** ******
  22  ****** ****** ****** ****** ****** ****** ****** ****** ****** ******
      ****** ****** ****** ****** ****** ****** ****** ****** ****** ******
      ****** ****** ****** ****** ****** ****** ****** ****** ****** ******
  23  ****** ****** ****** ****** ****** ****** ****** ****** ****** ******
      ****** ****** ****** ****** ****** ****** ****** ****** ****** ******
      ****** ****** ****** ****** ****** ****** ****** ****** ****** ******
  24  ****** ****** ****** ****** ****** ****** ****** ****** ****** ******
      ****** ****** ****** ****** ****** ****** ****** ****** ****** ******
      ****** ****** ****** ****** ****** ****** ****** ****** ****** ******
  25  ****** ****** ****** ****** ****** ****** ****** ****** ****** ******
      ****** ****** ****** ****** ****** ****** ****** ****** ****** ******
      ****** ****** ****** ****** ****** ****** ****** ****** ****** ******

 HEAD WILL BE SAVED ON UNIT   51 AT END OF TIME STEP    1, STRESS PERIOD    9
1
  VOLUMETRIC BUDGET FOR ENTIRE MODEL AT END OF TIME STEP    1, STRESS PERIOD   9
  ------------------------------------------------------------------------------

     CUMULATIVE VOLUMES      L**3       RATES FOR THIS TIME STEP      L**3/T
     ------------------                 ------------------------

           IN:                                      IN:
           ---                                      ---
             STORAGE =    20574734.5283               STORAGE =        1755.6479
       CONSTANT HEAD =   947146990.1223         CONSTANT HEAD =     1165982.2064
               WELLS =           0.0000                 WELLS =           0.0000
            RECHARGE =    18878400.0000              RECHARGE =       13800.0000
      STREAM LEAKAGE =           0.0000        STREAM LEAKAGE =           0.0000

            TOTAL IN =   986600124.6506              TOTAL IN =     1181537.8543

          OUT:                                     OUT:
          ----                                     ----
             STORAGE =      555463.9953               STORAGE =          53.7483
       CONSTANT HEAD =           0.0000         CONSTANT HEAD =           0.0000
               WELLS =    42279027.7388                 WELLS =       53484.3847
            RECHARGE =           0.0000              RECHARGE =           0.0000
      STREAM LEAKAGE =   943765644.4776        STREAM LEAKAGE =     1127999.7395

           TOTAL OUT =   986600136.2117             TOTAL OUT =     1181537.8725

            IN - OUT =         -11.5612              IN - OUT =      -1.8205E-02

 PERCENT DISCREPANCY =          -0.00     PERCENT DISCREPANCY =          -0.00






         TIME SUMMARY AT END OF TIME STEP    1 IN STRESS PERIOD    9
                    SECONDS     MINUTES      HOURS       DAYS        YEARS
                    -----------------------------------------------------------
   TIME STEP LENGTH 7.94880E+06 1.32480E+05  2208.0      92.000     0.25188    
 STRESS PERIOD TIME 7.94880E+06 1.32480E+05  2208.0      92.000     0.25188    
         TOTAL TIME 7.10208E+07 1.18368E+06  19728.      822.00      2.2505    
1
1
                            STRESS PERIOD NO.   10, LENGTH =   91.00000    
                            -----------------------------------------------

                              NUMBER OF TIME STEPS =     1

                               MULTIPLIER FOR DELT =     1.500

                            INITIAL TIME STEP SIZE =   91.00000    

 WELL NO.  LAYER   ROW   COL   STRESS RATE         
 --------------------------------------------------
      1      1     12     11      -3484.    
      2      1     16     17     -0.2750E+05
      3      1     14     25     -0.5152E+05

      3 WELLS

                 RECHARGE =  2.000000E-03

 REUSING STREAM SEGMENT DATA FROM LAST STRESS PERIOD
 
 SOLVING FOR HEAD 


     6 CALLS TO PCG ROUTINE FOR TIME STEP   1 IN STRESS PERIOD   10
    23 TOTAL ITERATIONS

 OUTPUT CONTROL FOR STRESS PERIOD   10   TIME STEP    1
    SAVE BUDGET
    SAVE HEAD FOR ALL LAYERS
    PRINT HEAD FOR ALL LAYERS
 UBDSV2 SAVING "STREAMFLOW OUT  " ON UNIT  50 AT TIME STEP  1, STRESS PERIOD  10



 STREAM LISTING     PERIOD     10   STEP        1

 LAYER ROW COL. STREAM  RCH.  FLOW INTO     FLOW TO   FLOW OUT OF   OVRLND.     DIRECT     STREAM       STREAM     STREAM     STREAM   STREAMBED  STREAMBED
                SEG.NO.  NO.  STRM. RCH.    AQUIFER    STRM. RCH.    RUNOFF     PRECIP       ET          HEAD       DEPTH      WIDTH   CONDCTNC.   GRADIENT

   1   13    1     1     1    1.0000E+05 -2.8280E+04   1.2828E+05  0.000E+00  0.000E+00  0.000E+00  4.84180E+01  1.566E-01  2.000E+01  2.000E+04 -1.414E+00
   1   13    2     1     2    1.2828E+05 -3.8092E+04   1.6637E+05  0.000E+00  0.000E+00  0.000E+00  4.79666E+01  1.825E-01  2.000E+01  2.000E+04 -1.905E+00
   1   14    3     1     3    1.6637E+05 -3.3550E+04   1.9992E+05  0.000E+00  0.000E+00  0.000E+00  4.75148E+01  2.080E-01  2.000E+01  2.000E+04 -1.677E+00
   1   15    4     1     4    1.9992E+05 -3.2755E+04   2.3268E+05  0.000E+00  0.000E+00  0.000E+00  4.70593E+01  2.298E-01  2.000E+01  2.000E+04 -1.638E+00
   1   16    5     1     5    2.3268E+05 -3.4223E+04   2.6690E+05  0.000E+00  0.000E+00  0.000E+00  4.66028E+01  2.505E-01  2.000E+01  2.000E+04 -1.711E+00
   1   16    6     1     6    2.6690E+05 -2.9860E+04   2.9676E+05  0.000E+00  0.000E+00  0.000E+00  4.61444E+01  2.694E-01  2.000E+01  2.000E+04 -1.493E+00
   1   16    7     1     7    2.9676E+05 -2.9632E+04   3.2639E+05  0.000E+00  0.000E+00  0.000E+00  4.56838E+01  2.861E-01  2.000E+01  2.000E+04 -1.482E+00
   1   16    8     1     8    3.2639E+05 -2.9751E+04   3.5614E+05  0.000E+00  0.000E+00  0.000E+00  4.52226E+01  3.021E-01  2.000E+01  2.000E+04 -1.488E+00
   1   16    9     1     9    3.5614E+05 -2.9740E+04   3.8588E+05  0.000E+00  0.000E+00  0.000E+00  4.47608E+01  3.177E-01  2.000E+01  2.000E+04 -1.487E+00
   1   16   10     1    10    3.8588E+05 -2.9632E+04   4.1552E+05  0.000E+00  0.000E+00  0.000E+00  4.42986E+01  3.327E-01  2.000E+01  2.000E+04 -1.482E+00
   1   16   11     1    11    4.1552E+05 -3.0002E+04   4.4552E+05  0.000E+00  0.000E+00  0.000E+00  4.38359E+01  3.473E-01  2.000E+01  2.000E+04 -1.500E+00
   1   16   12     1    12    4.4552E+05 -3.4886E+04   4.8040E+05  0.000E+00  0.000E+00  0.000E+00  4.33741E+01  3.628E-01  2.000E+01  2.000E+04 -1.744E+00
   1   15   13     1    13    4.8040E+05 -3.3013E+04   5.1342E+05  0.000E+00  0.000E+00  0.000E+00  4.29126E+01  3.785E-01  2.000E+01  2.000E+04 -1.651E+00
   1   14   14     1    14    5.1342E+05 -3.3209E+04   5.4663E+05  0.000E+00  0.000E+00  0.000E+00  4.24503E+01  3.935E-01  2.000E+01  2.000E+04 -1.660E+00
   1   13   15     1    15    5.4663E+05 -3.5647E+04   5.8227E+05  0.000E+00  0.000E+00  0.000E+00  4.19881E+01  4.086E-01  2.000E+01  2.000E+04 -1.782E+00
   1   12   16     1    16    5.8227E+05 -4.2625E+04   6.2490E+05  0.000E+00  0.000E+00  0.000E+00  4.15276E+01  4.254E-01  2.000E+01  2.000E+04 -2.131E+00
   1   12   17     1    17    6.2490E+05 -3.2972E+04   6.5787E+05  0.000E+00  0.000E+00  0.000E+00  4.10662E+01  4.412E-01  2.000E+01  2.000E+04 -1.649E+00
   1   12   18     1    18    6.5787E+05 -3.1444E+04   6.8931E+05  0.000E+00  0.000E+00  0.000E+00  4.06020E+01  4.543E-01  2.000E+01  2.000E+04 -1.572E+00
   1   12   19     1    19    6.8931E+05 -3.5777E+04   7.2509E+05  0.000E+00  0.000E+00  0.000E+00  4.01382E+01  4.678E-01  2.000E+01  2.000E+04 -1.789E+00
   1   13   20     1    20    7.2509E+05 -2.5366E+04   7.5046E+05  0.000E+00  0.000E+00  0.000E+00  3.96730E+01  4.798E-01  2.000E+01  2.000E+04 -1.268E+00
   1   14   21     1    21    7.5046E+05 -1.8124E+04   7.6858E+05  0.000E+00  0.000E+00  0.000E+00  3.92042E+01  4.883E-01  2.000E+01  2.000E+04 -9.062E-01
   1   14   22     1    22    7.6858E+05 -7.5344E+02   7.6933E+05  0.000E+00  0.000E+00  0.000E+00  3.87305E+01  4.919E-01  2.000E+01  2.000E+04 -3.767E-02
   1    9   30     2     1    5.0000E+04 -2.6398E+04   7.6398E+04  0.000E+00  0.000E+00  0.000E+00  4.02584E+01  1.334E-01  2.000E+01  2.000E+04 -1.320E+00
   1    9   29     2     2    7.6398E+04 -2.8840E+04   1.0524E+05  0.000E+00  0.000E+00  0.000E+00  4.00408E+01  1.658E-01  2.000E+01  2.000E+04 -1.442E+00
   1    9   28     2     3    1.0524E+05 -3.3099E+04   1.3834E+05  0.000E+00  0.000E+00  0.000E+00  3.98227E+01  1.977E-01  2.000E+01  2.000E+04 -1.655E+00
   1    9   27     2     4    1.3834E+05 -4.7246E+04   1.8558E+05  0.000E+00  0.000E+00  0.000E+00  3.96095E+01  2.345E-01  2.000E+01  2.000E+04 -2.362E+00
   1   10   26     2     5    1.8558E+05 -3.2389E+04   2.1797E+05  0.000E+00  0.000E+00  0.000E+00  3.93926E+01  2.676E-01  2.000E+01  2.000E+04 -1.619E+00
   1   11   25     2     6    2.1797E+05 -2.2468E+04   2.4044E+05  0.000E+00  0.000E+00  0.000E+00  3.91639E+01  2.889E-01  2.000E+01  2.000E+04 -1.123E+00
   1   12   24     2     7    2.4044E+05 -1.4310E+04   2.5475E+05  0.000E+00  0.000E+00  0.000E+00  3.89276E+01  3.026E-01  2.000E+01  2.000E+04 -7.155E-01
   1   13   23     2     8    2.5475E+05 -9.5611E+03   2.6431E+05  0.000E+00  0.000E+00  0.000E+00  3.86862E+01  3.112E-01  2.000E+01  2.000E+04 -4.781E-01
   1   14   22     2     9    2.6431E+05 -6.5242E+03   2.7084E+05  0.000E+00  0.000E+00  0.000E+00  3.84420E+01  3.170E-01  2.000E+01  2.000E+04 -3.262E-01
   1   14   22     3     1    1.0402E+06 -1.4426E+04   1.0546E+06  0.000E+00  0.000E+00  0.000E+00  3.80469E+01  4.913E-01  2.000E+01  2.000E+04 -7.213E-01
   1   15   23     3     2    1.0546E+06 -2.0977E+04   1.0756E+06  0.000E+00  0.000E+00  0.000E+00  3.71630E+01  4.963E-01  2.000E+01  2.000E+04 -1.049E+00
   1   15   24     3     3    1.0756E+06 -1.3966E+04   1.0895E+06  0.000E+00  0.000E+00  0.000E+00  3.62789E+01  5.012E-01  2.000E+01  2.000E+04 -6.983E-01
   1   15   25     3     4    1.0895E+06 -7.4837E+03   1.0970E+06  0.000E+00  0.000E+00  0.000E+00  3.53930E+01  5.041E-01  2.000E+01  2.000E+04 -3.742E-01
   1   15   26     3     5    1.0970E+06 -1.5467E+04   1.1125E+06  0.000E+00  0.000E+00  0.000E+00  3.45073E+01  5.073E-01  2.000E+01  2.000E+04 -7.734E-01
   1   16   27     3     6    1.1125E+06 -2.7298E+04   1.1398E+06  0.000E+00  0.000E+00  0.000E+00  3.36243E+01  5.132E-01  2.000E+01  2.000E+04 -1.365E+00
   1   17   28     3     7    1.1398E+06 -3.5605E+04   1.1754E+06  0.000E+00  0.000E+00  0.000E+00  3.27439E+01  5.217E-01  2.000E+01  2.000E+04 -1.780E+00
   1   18   29     3     8    1.1754E+06 -4.7144E+04   1.2225E+06  0.000E+00  0.000E+00  0.000E+00  3.18662E+01  5.328E-01  2.000E+01  2.000E+04 -2.357E+00
   1   18   30     3     9    1.2225E+06 -4.3609E+04   1.2661E+06  0.000E+00  0.000E+00  0.000E+00  3.09893E+01  5.448E-01  2.000E+01  2.000E+04 -2.180E+00



1
              HEAD IN LAYER   1 AT END OF TIME STEP   1 IN STRESS PERIOD   10
  ---------------------------------------------------------------------------

          1      2      3      4      5      6      7      8      9     10
         11     12     13     14     15     16     17     18     19     20
         21     22     23     24     25     26     27     28     29     30
 .........................................................................
   1  ****** ****** ****** ****** ****** ****** ****** ****** ****** ******
      ****** ****** ****** ****** ****** ****** ****** ****** ****** ******
      ****** ****** ****** ****** ****** ****** ****** ****** ****** ******
   2  ****** ****** ****** ****** ****** ****** ****** ****** ****** ******
      ****** ****** ****** ****** ****** ****** ****** ****** ****** ******
      ****** ****** ****** ****** ****** ****** ****** ****** ****** ******
   3  ****** ****** ****** ****** ****** ****** ****** ****** ****** ******
      ****** ****** ****** ****** ****** ****** ****** ****** ****** ******
      ****** ****** ****** ****** ****** ****** ****** ****** ****** ******
   4  ****** ****** ****** ****** ****** ****** ****** ****** ****** ******
      ****** ****** ****** ****** ****** ****** ****** ****** ****** ******
      ****** ****** ****** ****** ****** ****** ****** ****** ****** ******
   5  ****** ****** ****** ****** ****** ****** ****** ****** ****** ******
      ****** ****** ****** ****** ****** ****** ****** ****** ****** ******
      ****** ****** ****** ****** ****** ****** ****** ****** ****** ******
   6  ****** ****** ****** ****** ****** ****** ****** ****** ****** ******
      ****** ****** ****** ****** ****** ****** ****** ****** ****** ******
      ****** ****** ****** ****** ****** ****** ****** ****** ****** ******
   7  ****** ****** ****** ****** ****** ****** ****** ****** ****** ******
      ****** ****** ****** ****** ****** ****** ****** ****** ****** ******
      ****** ****** ****** ****** ****** ****** ****** ****** ****** ******
   8  ****** ****** ****** ****** ****** ****** ****** ****** ****** ******
      ****** ****** ****** ****** ****** ****** ****** ****** ****** ******
      ****** ****** ****** ****** ****** ****** ****** ****** ****** ******
   9  ****** ****** ****** ****** ****** ****** ****** ****** ****** ******
      ****** ****** ****** ****** ****** ****** ****** ****** ****** ******
      ****** ****** ****** ****** ****** ****** ****** ****** ****** ******
  10  ****** ****** ****** ****** ****** ****** ****** ****** ****** ******
      ****** ****** ****** ****** ****** ****** ****** ****** ****** ******
      ****** ****** ****** ****** ****** ****** ****** ****** ****** ******
  11  ****** ****** ****** ****** ****** ****** ****** ****** ****** ******
      ****** ****** ****** ****** ****** ****** ****** ****** ****** ******
      ****** ****** ****** ****** ****** ****** ****** ****** ****** ******
  12  ****** ****** ****** ****** ****** ****** ****** ****** ****** ******
      ****** ****** ****** ****** ****** ****** ****** ****** ****** ******
      ****** ****** ****** ****** ****** ****** ****** ****** ****** ******
  13  ****** ****** ****** ****** ****** ****** ****** ****** ****** ******
      ****** ****** ****** ****** ****** ****** ****** ****** ****** ******
      ****** ****** ****** ****** ****** ****** ****** ****** ****** ******
  14  ****** ****** ****** ****** ****** ****** ****** ****** ****** ******
      ****** ****** ****** ****** ****** ****** ****** ****** ****** ******
      ****** ****** ****** ****** ****** ****** ****** ****** ****** ******
  15  ****** ****** ****** ****** ****** ****** ****** ****** ****** ******
      ****** ****** ****** ****** ****** ****** ****** ****** ****** ******
      ****** ****** ****** ****** ****** ****** ****** ****** ****** ******
  16  ****** ****** ****** ****** ****** ****** ****** ****** ****** ******
      ****** ****** ****** ****** ****** ****** ****** ****** ****** ******
      ****** ****** ****** ****** ****** ****** ****** ****** ****** ******
  17  ****** ****** ****** ****** ****** ****** ****** ****** ****** ******
      ****** ****** ****** ****** ****** ****** ****** ****** ****** ******
      ****** ****** ****** ****** ****** ****** ****** ****** ****** ******
  18  ****** ****** ****** ****** ****** ****** ****** ****** ****** ******
      ****** ****** ****** ****** ****** ****** ****** ****** ****** ******
      ****** ****** ****** ****** ****** ****** ****** ****** ****** ******
  19  ****** ****** ****** ****** ****** ****** ****** ****** ****** ******
      ****** ****** ****** ****** ****** ****** ****** ****** ****** ******
      ****** ****** ****** ****** ****** ****** ****** ****** ****** ******
  20  ****** ****** ****** ****** ****** ****** ****** ****** ****** ******
      ****** ****** ****** ****** ****** ****** ****** ****** ****** ******
      ****** ****** ****** ****** ****** ****** ****** ****** ****** ******
  21  ****** ****** ****** ****** ****** ****** ****** ****** ****** ******
      ****** ****** ****** ****** ****** ****** ****** ****** ****** ******
      ****** ****** ****** ****** ****** ****** ****** ****** ****** ******
  22  ****** ****** ****** ****** ****** ****** ****** ****** ****** ******
      ****** ****** ****** ****** ****** ****** ****** ****** ****** ******
      ****** ****** ****** ****** ****** ****** ****** ****** ****** ******
  23  ****** ****** ****** ****** ****** ****** ****** ****** ****** ******
      ****** ****** ****** ****** ****** ****** ****** ****** ****** ******
      ****** ****** ****** ****** ****** ****** ****** ****** ****** ******
  24  ****** ****** ****** ****** ****** ****** ****** ****** ****** ******
      ****** ****** ****** ****** ****** ****** ****** ****** ****** ******
      ****** ****** ****** ****** ****** ****** ****** ****** ****** ******
  25  ****** ****** ****** ****** ****** ****** ****** ****** ****** ******
      ****** ****** ****** ****** ****** ****** ****** ****** ****** ******
      ****** ****** ****** ****** ****** ****** ****** ****** ****** ******

 HEAD WILL BE SAVED ON UNIT   51 AT END OF TIME STEP    1, STRESS PERIOD   10
1
  VOLUMETRIC BUDGET FOR ENTIRE MODEL AT END OF TIME STEP    1, STRESS PERIOD  10
  ------------------------------------------------------------------------------

     CUMULATIVE VOLUMES      L**3       RATES FOR THIS TIME STEP      L**3/T
     ------------------                 ------------------------

           IN:                                      IN:
           ---                                      ---
             STORAGE =    20618067.9607               STORAGE =         476.1916
       CONSTANT HEAD =  1051410323.2741         CONSTANT HEAD =     1145750.9138
               WELLS =           0.0000                 WELLS =           0.0000
            RECHARGE =    23901600.0000              RECHARGE =       55200.0000
      STREAM LEAKAGE =           0.0000        STREAM LEAKAGE =           0.0000

            TOTAL IN =  1095929991.2348              TOTAL IN =     1201427.1053

          OUT:                                     OUT:
          ----                                     ----
             STORAGE =      808408.4745               STORAGE =        2779.6097
       CONSTANT HEAD =           0.0000         CONSTANT HEAD =           0.0000
               WELLS =    49786595.9888                 WELLS =       82500.7500
            RECHARGE =           0.0000              RECHARGE =           0.0000
      STREAM LEAKAGE =  1045334995.5724        STREAM LEAKAGE =     1116146.7153

           TOTAL OUT =  1095930000.0357             TOTAL OUT =     1201427.0750

            IN - OUT =          -8.8009              IN - OUT =       3.0332E-02

 PERCENT DISCREPANCY =          -0.00     PERCENT DISCREPANCY =           0.00






         TIME SUMMARY AT END OF TIME STEP    1 IN STRESS PERIOD   10
                    SECONDS     MINUTES      HOURS       DAYS        YEARS
                    -----------------------------------------------------------
   TIME STEP LENGTH 7.86240E+06 1.31040E+05  2184.0      91.000     0.24914    
 STRESS PERIOD TIME 7.86240E+06 1.31040E+05  2184.0      91.000     0.24914    
         TOTAL TIME 7.88832E+07 1.31472E+06  21912.      913.00      2.4997    
1
1
                            STRESS PERIOD NO.   11, LENGTH =   91.00000    
                            -----------------------------------------------

                              NUMBER OF TIME STEPS =     1

                               MULTIPLIER FOR DELT =     1.500

                            INITIAL TIME STEP SIZE =   91.00000    

 WELL NO.  LAYER   ROW   COL   STRESS RATE         
 --------------------------------------------------
      1      1     12     11      -3484.    
      2      1     16     17     -0.2691E+05

      2 WELLS

                 RECHARGE =   0.00000    

 REUSING STREAM SEGMENT DATA FROM LAST STRESS PERIOD
 
 SOLVING FOR HEAD 


     6 CALLS TO PCG ROUTINE FOR TIME STEP   1 IN STRESS PERIOD   11
    22 TOTAL ITERATIONS

 OUTPUT CONTROL FOR STRESS PERIOD   11   TIME STEP    1
    SAVE BUDGET
    SAVE HEAD FOR ALL LAYERS
    PRINT HEAD FOR ALL LAYERS
 UBDSV2 SAVING "STREAMFLOW OUT  " ON UNIT  50 AT TIME STEP  1, STRESS PERIOD  11



 STREAM LISTING     PERIOD     11   STEP        1

 LAYER ROW COL. STREAM  RCH.  FLOW INTO     FLOW TO   FLOW OUT OF   OVRLND.     DIRECT     STREAM       STREAM     STREAM     STREAM   STREAMBED  STREAMBED
                SEG.NO.  NO.  STRM. RCH.    AQUIFER    STRM. RCH.    RUNOFF     PRECIP       ET          HEAD       DEPTH      WIDTH   CONDCTNC.   GRADIENT

   1   13    1     1     1    1.0000E+05 -2.7437E+04   1.2744E+05  0.000E+00  0.000E+00  0.000E+00  4.84176E+01  1.563E-01  2.000E+01  2.000E+04 -1.372E+00
   1   13    2     1     2    1.2744E+05 -3.7087E+04   1.6452E+05  0.000E+00  0.000E+00  0.000E+00  4.79656E+01  1.815E-01  2.000E+01  2.000E+04 -1.854E+00
   1   14    3     1     3    1.6452E+05 -3.2565E+04   1.9709E+05  0.000E+00  0.000E+00  0.000E+00  4.75132E+01  2.064E-01  2.000E+01  2.000E+04 -1.628E+00
   1   15    4     1     4    1.9709E+05 -3.1808E+04   2.2890E+05  0.000E+00  0.000E+00  0.000E+00  4.70572E+01  2.277E-01  2.000E+01  2.000E+04 -1.590E+00
   1   16    5     1     5    2.2890E+05 -3.3369E+04   2.6227E+05  0.000E+00  0.000E+00  0.000E+00  4.66003E+01  2.480E-01  2.000E+01  2.000E+04 -1.668E+00
   1   16    6     1     6    2.6227E+05 -2.9120E+04   2.9139E+05  0.000E+00  0.000E+00  0.000E+00  4.61415E+01  2.665E-01  2.000E+01  2.000E+04 -1.456E+00
   1   16    7     1     7    2.9139E+05 -2.8902E+04   3.2029E+05  0.000E+00  0.000E+00  0.000E+00  4.56806E+01  2.829E-01  2.000E+01  2.000E+04 -1.445E+00
   1   16    8     1     8    3.2029E+05 -2.9023E+04   3.4931E+05  0.000E+00  0.000E+00  0.000E+00  4.52191E+01  2.987E-01  2.000E+01  2.000E+04 -1.451E+00
   1   16    9     1     9    3.4931E+05 -2.9018E+04   3.7833E+05  0.000E+00  0.000E+00  0.000E+00  4.47571E+01  3.139E-01  2.000E+01  2.000E+04 -1.451E+00
   1   16   10     1    10    3.7833E+05 -2.8921E+04   4.0725E+05  0.000E+00  0.000E+00  0.000E+00  4.42946E+01  3.287E-01  2.000E+01  2.000E+04 -1.446E+00
   1   16   11     1    11    4.0725E+05 -2.9298E+04   4.3655E+05  0.000E+00  0.000E+00  0.000E+00  4.38318E+01  3.431E-01  2.000E+01  2.000E+04 -1.465E+00
   1   16   12     1    12    4.3655E+05 -3.4104E+04   4.7065E+05  0.000E+00  0.000E+00  0.000E+00  4.33697E+01  3.584E-01  2.000E+01  2.000E+04 -1.705E+00
   1   15   13     1    13    4.7065E+05 -3.2166E+04   5.0282E+05  0.000E+00  0.000E+00  0.000E+00  4.29079E+01  3.739E-01  2.000E+01  2.000E+04 -1.608E+00
   1   14   14     1    14    5.0282E+05 -3.2348E+04   5.3517E+05  0.000E+00  0.000E+00  0.000E+00  4.24453E+01  3.885E-01  2.000E+01  2.000E+04 -1.617E+00
   1   13   15     1    15    5.3517E+05 -3.4789E+04   5.6995E+05  0.000E+00  0.000E+00  0.000E+00  4.19830E+01  4.034E-01  2.000E+01  2.000E+04 -1.739E+00
   1   12   16     1    16    5.6995E+05 -4.1769E+04   6.1172E+05  0.000E+00  0.000E+00  0.000E+00  4.15222E+01  4.200E-01  2.000E+01  2.000E+04 -2.088E+00
   1   12   17     1    17    6.1172E+05 -3.2318E+04   6.4404E+05  0.000E+00  0.000E+00  0.000E+00  4.10606E+01  4.356E-01  2.000E+01  2.000E+04 -1.616E+00
   1   12   18     1    18    6.4404E+05 -3.0851E+04   6.7489E+05  0.000E+00  0.000E+00  0.000E+00  4.05963E+01  4.486E-01  2.000E+01  2.000E+04 -1.543E+00
   1   12   19     1    19    6.7489E+05 -3.5191E+04   7.1008E+05  0.000E+00  0.000E+00  0.000E+00  4.01324E+01  4.619E-01  2.000E+01  2.000E+04 -1.760E+00
   1   13   20     1    20    7.1008E+05 -2.4969E+04   7.3505E+05  0.000E+00  0.000E+00  0.000E+00  3.96670E+01  4.739E-01  2.000E+01  2.000E+04 -1.248E+00
   1   14   21     1    21    7.3505E+05 -1.7953E+04   7.5301E+05  0.000E+00  0.000E+00  0.000E+00  3.91982E+01  4.823E-01  2.000E+01  2.000E+04 -8.977E-01
   1   14   22     1    22    7.5301E+05 -1.3824E+03   7.5439E+05  0.000E+00  0.000E+00  0.000E+00  3.87246E+01  4.860E-01  2.000E+01  2.000E+04 -6.912E-02
   1    9   30     2     1    5.0000E+04 -2.6319E+04   7.6319E+04  0.000E+00  0.000E+00  0.000E+00  4.02583E+01  1.333E-01  2.000E+01  2.000E+04 -1.316E+00
   1    9   29     2     2    7.6319E+04 -2.8786E+04   1.0510E+05  0.000E+00  0.000E+00  0.000E+00  4.00406E+01  1.656E-01  2.000E+01  2.000E+04 -1.439E+00
   1    9   28     2     3    1.0510E+05 -3.3068E+04   1.3817E+05  0.000E+00  0.000E+00  0.000E+00  3.98225E+01  1.975E-01  2.000E+01  2.000E+04 -1.653E+00
   1    9   27     2     4    1.3817E+05 -4.7142E+04   1.8531E+05  0.000E+00  0.000E+00  0.000E+00  3.96094E+01  2.344E-01  2.000E+01  2.000E+04 -2.357E+00
   1   10   26     2     5    1.8531E+05 -3.3084E+04   2.1840E+05  0.000E+00  0.000E+00  0.000E+00  3.93927E+01  2.677E-01  2.000E+01  2.000E+04 -1.654E+00
   1   11   25     2     6    2.1840E+05 -2.4721E+04   2.4312E+05  0.000E+00  0.000E+00  0.000E+00  3.91650E+01  2.900E-01  2.000E+01  2.000E+04 -1.236E+00
   1   12   24     2     7    2.4312E+05 -1.8143E+04   2.6126E+05  0.000E+00  0.000E+00  0.000E+00  3.89309E+01  3.059E-01  2.000E+01  2.000E+04 -9.072E-01
   1   13   23     2     8    2.6126E+05 -1.2765E+04   2.7403E+05  0.000E+00  0.000E+00  0.000E+00  3.86920E+01  3.170E-01  2.000E+01  2.000E+04 -6.382E-01
   1   14   22     2     9    2.7403E+05 -6.8959E+03   2.8092E+05  0.000E+00  0.000E+00  0.000E+00  3.84490E+01  3.240E-01  2.000E+01  2.000E+04 -3.448E-01
   1   14   22     3     1    1.0353E+06 -1.4964E+04   1.0503E+06  0.000E+00  0.000E+00  0.000E+00  3.80456E+01  4.900E-01  2.000E+01  2.000E+04 -7.482E-01
   1   15   23     3     2    1.0503E+06 -2.2692E+04   1.0730E+06  0.000E+00  0.000E+00  0.000E+00  3.71620E+01  4.953E-01  2.000E+01  2.000E+04 -1.135E+00
   1   15   24     3     3    1.0730E+06 -1.9162E+04   1.0921E+06  0.000E+00  0.000E+00  0.000E+00  3.62789E+01  5.012E-01  2.000E+01  2.000E+04 -9.581E-01
   1   15   25     3     4    1.0921E+06 -1.8890E+04   1.1110E+06  0.000E+00  0.000E+00  0.000E+00  3.53953E+01  5.064E-01  2.000E+01  2.000E+04 -9.445E-01
   1   15   26     3     5    1.1110E+06 -2.1689E+04   1.1327E+06  0.000E+00  0.000E+00  0.000E+00  3.45120E+01  5.120E-01  2.000E+01  2.000E+04 -1.084E+00
   1   16   27     3     6    1.1327E+06 -2.8799E+04   1.1615E+06  0.000E+00  0.000E+00  0.000E+00  3.36300E+01  5.189E-01  2.000E+01  2.000E+04 -1.440E+00
   1   17   28     3     7    1.1615E+06 -3.5887E+04   1.1974E+06  0.000E+00  0.000E+00  0.000E+00  3.27498E+01  5.276E-01  2.000E+01  2.000E+04 -1.794E+00
   1   18   29     3     8    1.1974E+06 -4.6936E+04   1.2443E+06  0.000E+00  0.000E+00  0.000E+00  3.18720E+01  5.386E-01  2.000E+01  2.000E+04 -2.347E+00
   1   18   30     3     9    1.2443E+06 -4.3452E+04   1.2878E+06  0.000E+00  0.000E+00  0.000E+00  3.09950E+01  5.505E-01  2.000E+01  2.000E+04 -2.173E+00



1
              HEAD IN LAYER   1 AT END OF TIME STEP   1 IN STRESS PERIOD   11
  ---------------------------------------------------------------------------

          1      2      3      4      5      6      7      8      9     10
         11     12     13     14     15     16     17     18     19     20
         21     22     23     24     25     26     27     28     29     30
 .........................................................................
   1  ****** ****** ****** ****** ****** ****** ****** ****** ****** ******
      ****** ****** ****** ****** ****** ****** ****** ****** ****** ******
      ****** ****** ****** ****** ****** ****** ****** ****** ****** ******
   2  ****** ****** ****** ****** ****** ****** ****** ****** ****** ******
      ****** ****** ****** ****** ****** ****** ****** ****** ****** ******
      ****** ****** ****** ****** ****** ****** ****** ****** ****** ******
   3  ****** ****** ****** ****** ****** ****** ****** ****** ****** ******
      ****** ****** ****** ****** ****** ****** ****** ****** ****** ******
      ****** ****** ****** ****** ****** ****** ****** ****** ****** ******
   4  ****** ****** ****** ****** ****** ****** ****** ****** ****** ******
      ****** ****** ****** ****** ****** ****** ****** ****** ****** ******
      ****** ****** ****** ****** ****** ****** ****** ****** ****** ******
   5  ****** ****** ****** ****** ****** ****** ****** ****** ****** ******
      ****** ****** ****** ****** ****** ****** ****** ****** ****** ******
      ****** ****** ****** ****** ****** ****** ****** ****** ****** ******
   6  ****** ****** ****** ****** ****** ****** ****** ****** ****** ******
      ****** ****** ****** ****** ****** ****** ****** ****** ****** ******
      ****** ****** ****** ****** ****** ****** ****** ****** ****** ******
   7  ****** ****** ****** ****** ****** ****** ****** ****** ****** ******
      ****** ****** ****** ****** ****** ****** ****** ****** ****** ******
      ****** ****** ****** ****** ****** ****** ****** ****** ****** ******
   8  ****** ****** ****** ****** ****** ****** ****** ****** ****** ******
      ****** ****** ****** ****** ****** ****** ****** ****** ****** ******
      ****** ****** ****** ****** ****** ****** ****** ****** ****** ******
   9  ****** ****** ****** ****** ****** ****** ****** ****** ****** ******
      ****** ****** ****** ****** ****** ****** ****** ****** ****** ******
      ****** ****** ****** ****** ****** ****** ****** ****** ****** ******
  10  ****** ****** ****** ****** ****** ****** ****** ****** ****** ******
      ****** ****** ****** ****** ****** ****** ****** ****** ****** ******
      ****** ****** ****** ****** ****** ****** ****** ****** ****** ******
  11  ****** ****** ****** ****** ****** ****** ****** ****** ****** ******
      ****** ****** ****** ****** ****** ****** ****** ****** ****** ******
      ****** ****** ****** ****** ****** ****** ****** ****** ****** ******
  12  ****** ****** ****** ****** ****** ****** ****** ****** ****** ******
      ****** ****** ****** ****** ****** ****** ****** ****** ****** ******
      ****** ****** ****** ****** ****** ****** ****** ****** ****** ******
  13  ****** ****** ****** ****** ****** ****** ****** ****** ****** ******
      ****** ****** ****** ****** ****** ****** ****** ****** ****** ******
      ****** ****** ****** ****** ****** ****** ****** ****** ****** ******
  14  ****** ****** ****** ****** ****** ****** ****** ****** ****** ******
      ****** ****** ****** ****** ****** ****** ****** ****** ****** ******
      ****** ****** ****** ****** ****** ****** ****** ****** ****** ******
  15  ****** ****** ****** ****** ****** ****** ****** ****** ****** ******
      ****** ****** ****** ****** ****** ****** ****** ****** ****** ******
      ****** ****** ****** ****** ****** ****** ****** ****** ****** ******
  16  ****** ****** ****** ****** ****** ****** ****** ****** ****** ******
      ****** ****** ****** ****** ****** ****** ****** ****** ****** ******
      ****** ****** ****** ****** ****** ****** ****** ****** ****** ******
  17  ****** ****** ****** ****** ****** ****** ****** ****** ****** ******
      ****** ****** ****** ****** ****** ****** ****** ****** ****** ******
      ****** ****** ****** ****** ****** ****** ****** ****** ****** ******
  18  ****** ****** ****** ****** ****** ****** ****** ****** ****** ******
      ****** ****** ****** ****** ****** ****** ****** ****** ****** ******
      ****** ****** ****** ****** ****** ****** ****** ****** ****** ******
  19  ****** ****** ****** ****** ****** ****** ****** ****** ****** ******
      ****** ****** ****** ****** ****** ****** ****** ****** ****** ******
      ****** ****** ****** ****** ****** ****** ****** ****** ****** ******
  20  ****** ****** ****** ****** ****** ****** ****** ****** ****** ******
      ****** ****** ****** ****** ****** ****** ****** ****** ****** ******
      ****** ****** ****** ****** ****** ****** ****** ****** ****** ******
  21  ****** ****** ****** ****** ****** ****** ****** ****** ****** ******
      ****** ****** ****** ****** ****** ****** ****** ****** ****** ******
      ****** ****** ****** ****** ****** ****** ****** ****** ****** ******
  22  ****** ****** ****** ****** ****** ****** ****** ****** ****** ******
      ****** ****** ****** ****** ****** ****** ****** ****** ****** ******
      ****** ****** ****** ****** ****** ****** ****** ****** ****** ******
  23  ****** ****** ****** ****** ****** ****** ****** ****** ****** ******
      ****** ****** ****** ****** ****** ****** ****** ****** ****** ******
      ****** ****** ****** ****** ****** ****** ****** ****** ****** ******
  24  ****** ****** ****** ****** ****** ****** ****** ****** ****** ******
      ****** ****** ****** ****** ****** ****** ****** ****** ****** ******
      ****** ****** ****** ****** ****** ****** ****** ****** ****** ******
  25  ****** ****** ****** ****** ****** ****** ****** ****** ****** ******
      ****** ****** ****** ****** ****** ****** ****** ****** ****** ******
      ****** ****** ****** ****** ****** ****** ****** ****** ****** ******

 HEAD WILL BE SAVED ON UNIT   51 AT END OF TIME STEP    1, STRESS PERIOD   11
1
  VOLUMETRIC BUDGET FOR ENTIRE MODEL AT END OF TIME STEP    1, STRESS PERIOD  11
  ------------------------------------------------------------------------------

     CUMULATIVE VOLUMES      L**3       RATES FOR THIS TIME STEP      L**3/T
     ------------------                 ------------------------

           IN:                                      IN:
           ---                                      ---
             STORAGE =    20811346.6123               STORAGE =        2123.9412
       CONSTANT HEAD =  1157563379.3750         CONSTANT HEAD =     1166517.1000
               WELLS =           0.0000                 WELLS =           0.0000
            RECHARGE =    23901600.0000              RECHARGE =           0.0000
      STREAM LEAKAGE =           0.0000        STREAM LEAKAGE =           0.0000

            TOTAL IN =  1202276325.9873              TOTAL IN =     1168641.0412

          OUT:                                     OUT:
          ----                                     ----
             STORAGE =      850390.9476               STORAGE =         461.3459
       CONSTANT HEAD =           0.0000         CONSTANT HEAD =           0.0000
               WELLS =    52552825.2964                 WELLS =       30398.1243
            RECHARGE =           0.0000              RECHARGE =           0.0000
      STREAM LEAKAGE =  1148873122.0254        STREAM LEAKAGE =     1137781.6094

           TOTAL OUT =  1202276338.2693             TOTAL OUT =     1168641.0795

            IN - OUT =         -12.2820              IN - OUT =      -3.8254E-02

 PERCENT DISCREPANCY =          -0.00     PERCENT DISCREPANCY =          -0.00






         TIME SUMMARY AT END OF TIME STEP    1 IN STRESS PERIOD   11
                    SECONDS     MINUTES      HOURS       DAYS        YEARS
                    -----------------------------------------------------------
   TIME STEP LENGTH 7.86240E+06 1.31040E+05  2184.0      91.000     0.24914    
 STRESS PERIOD TIME 7.86240E+06 1.31040E+05  2184.0      91.000     0.24914    
         TOTAL TIME 8.67456E+07 1.44576E+06  24096.      1004.0      2.7488    
1
1
                            STRESS PERIOD NO.   12, LENGTH =   91.00000    
                            -----------------------------------------------

                              NUMBER OF TIME STEPS =     1

                               MULTIPLIER FOR DELT =     1.500

                            INITIAL TIME STEP SIZE =   91.00000    

 WELL NO.  LAYER   ROW   COL   STRESS RATE         
 --------------------------------------------------
      1      1     12     11      -3484.    
      2      1     16     17     -0.2675E+05
      3      1     14     25      -8061.    

      3 WELLS

                 RECHARGE =  1.000000E-03

 REUSING STREAM SEGMENT DATA FROM LAST STRESS PERIOD
 
 SOLVING FOR HEAD 


     6 CALLS TO PCG ROUTINE FOR TIME STEP   1 IN STRESS PERIOD   12
    22 TOTAL ITERATIONS

 OUTPUT CONTROL FOR STRESS PERIOD   12   TIME STEP    1
    SAVE BUDGET
    SAVE HEAD FOR ALL LAYERS
    PRINT HEAD FOR ALL LAYERS
 UBDSV2 SAVING "STREAMFLOW OUT  " ON UNIT  50 AT TIME STEP  1, STRESS PERIOD  12



 STREAM LISTING     PERIOD     12   STEP        1

 LAYER ROW COL. STREAM  RCH.  FLOW INTO     FLOW TO   FLOW OUT OF   OVRLND.     DIRECT     STREAM       STREAM     STREAM     STREAM   STREAMBED  STREAMBED
                SEG.NO.  NO.  STRM. RCH.    AQUIFER    STRM. RCH.    RUNOFF     PRECIP       ET          HEAD       DEPTH      WIDTH   CONDCTNC.   GRADIENT

   1   13    1     1     1    1.0000E+05 -2.7830E+04   1.2783E+05  0.000E+00  0.000E+00  0.000E+00  4.84178E+01  1.564E-01  2.000E+01  2.000E+04 -1.392E+00
   1   13    2     1     2    1.2783E+05 -3.7555E+04   1.6539E+05  0.000E+00  0.000E+00  0.000E+00  4.79661E+01  1.820E-01  2.000E+01  2.000E+04 -1.878E+00
   1   14    3     1     3    1.6539E+05 -3.3027E+04   1.9841E+05  0.000E+00  0.000E+00  0.000E+00  4.75139E+01  2.071E-01  2.000E+01  2.000E+04 -1.651E+00
   1   15    4     1     4    1.9841E+05 -3.2255E+04   2.3067E+05  0.000E+00  0.000E+00  0.000E+00  4.70582E+01  2.287E-01  2.000E+01  2.000E+04 -1.613E+00
   1   16    5     1     5    2.3067E+05 -3.3776E+04   2.6444E+05  0.000E+00  0.000E+00  0.000E+00  4.66015E+01  2.492E-01  2.000E+01  2.000E+04 -1.689E+00
   1   16    6     1     6    2.6444E+05 -2.9473E+04   2.9392E+05  0.000E+00  0.000E+00  0.000E+00  4.61428E+01  2.678E-01  2.000E+01  2.000E+04 -1.474E+00
   1   16    7     1     7    2.9392E+05 -2.9251E+04   3.2317E+05  0.000E+00  0.000E+00  0.000E+00  4.56821E+01  2.844E-01  2.000E+01  2.000E+04 -1.463E+00
   1   16    8     1     8    3.2317E+05 -2.9374E+04   3.5254E+05  0.000E+00  0.000E+00  0.000E+00  4.52208E+01  3.003E-01  2.000E+01  2.000E+04 -1.469E+00
   1   16    9     1     9    3.5254E+05 -2.9369E+04   3.8191E+05  0.000E+00  0.000E+00  0.000E+00  4.47589E+01  3.157E-01  2.000E+01  2.000E+04 -1.468E+00
   1   16   10     1    10    3.8191E+05 -2.9272E+04   4.1118E+05  0.000E+00  0.000E+00  0.000E+00  4.42965E+01  3.306E-01  2.000E+01  2.000E+04 -1.464E+00
   1   16   11     1    11    4.1118E+05 -2.9656E+04   4.4084E+05  0.000E+00  0.000E+00  0.000E+00  4.38338E+01  3.451E-01  2.000E+01  2.000E+04 -1.483E+00
   1   16   12     1    12    4.4084E+05 -3.4526E+04   4.7536E+05  0.000E+00  0.000E+00  0.000E+00  4.33719E+01  3.605E-01  2.000E+01  2.000E+04 -1.726E+00
   1   15   13     1    13    4.7536E+05 -3.2631E+04   5.0799E+05  0.000E+00  0.000E+00  0.000E+00  4.29102E+01  3.761E-01  2.000E+01  2.000E+04 -1.632E+00
   1   14   14     1    14    5.0799E+05 -3.2829E+04   5.4082E+05  0.000E+00  0.000E+00  0.000E+00  4.24478E+01  3.910E-01  2.000E+01  2.000E+04 -1.641E+00
   1   13   15     1    15    5.4082E+05 -3.5263E+04   5.7609E+05  0.000E+00  0.000E+00  0.000E+00  4.19855E+01  4.060E-01  2.000E+01  2.000E+04 -1.763E+00
   1   12   16     1    16    5.7609E+05 -4.2219E+04   6.1831E+05  0.000E+00  0.000E+00  0.000E+00  4.15249E+01  4.227E-01  2.000E+01  2.000E+04 -2.111E+00
   1   12   17     1    17    6.1831E+05 -3.2684E+04   6.5099E+05  0.000E+00  0.000E+00  0.000E+00  4.10634E+01  4.384E-01  2.000E+01  2.000E+04 -1.634E+00
   1   12   18     1    18    6.5099E+05 -3.1198E+04   6.8219E+05  0.000E+00  0.000E+00  0.000E+00  4.05992E+01  4.515E-01  2.000E+01  2.000E+04 -1.560E+00
   1   12   19     1    19    6.8219E+05 -3.5558E+04   7.1775E+05  0.000E+00  0.000E+00  0.000E+00  4.01354E+01  4.649E-01  2.000E+01  2.000E+04 -1.778E+00
   1   13   20     1    20    7.1775E+05 -2.5302E+04   7.4305E+05  0.000E+00  0.000E+00  0.000E+00  3.96701E+01  4.769E-01  2.000E+01  2.000E+04 -1.265E+00
   1   14   21     1    21    7.4305E+05 -1.8220E+04   7.6127E+05  0.000E+00  0.000E+00  0.000E+00  3.92013E+01  4.854E-01  2.000E+01  2.000E+04 -9.110E-01
   1   14   22     1    22    7.6127E+05 -1.3715E+03   7.6264E+05  0.000E+00  0.000E+00  0.000E+00  3.87278E+01  4.892E-01  2.000E+01  2.000E+04 -6.858E-02
   1    9   30     2     1    5.0000E+04 -2.6539E+04   7.6539E+04  0.000E+00  0.000E+00  0.000E+00  4.02584E+01  1.334E-01  2.000E+01  2.000E+04 -1.327E+00
   1    9   29     2     2    7.6539E+04 -2.9002E+04   1.0554E+05  0.000E+00  0.000E+00  0.000E+00  4.00410E+01  1.660E-01  2.000E+01  2.000E+04 -1.450E+00
   1    9   28     2     3    1.0554E+05 -3.3286E+04   1.3883E+05  0.000E+00  0.000E+00  0.000E+00  3.98231E+01  1.981E-01  2.000E+01  2.000E+04 -1.664E+00
   1    9   27     2     4    1.3883E+05 -4.7414E+04   1.8624E+05  0.000E+00  0.000E+00  0.000E+00  3.96100E+01  2.350E-01  2.000E+01  2.000E+04 -2.371E+00
   1   10   26     2     5    1.8624E+05 -3.3252E+04   2.1949E+05  0.000E+00  0.000E+00  0.000E+00  3.93935E+01  2.685E-01  2.000E+01  2.000E+04 -1.663E+00
   1   11   25     2     6    2.1949E+05 -2.4647E+04   2.4414E+05  0.000E+00  0.000E+00  0.000E+00  3.91658E+01  2.908E-01  2.000E+01  2.000E+04 -1.232E+00
   1   12   24     2     7    2.4414E+05 -1.7802E+04   2.6194E+05  0.000E+00  0.000E+00  0.000E+00  3.89315E+01  3.065E-01  2.000E+01  2.000E+04 -8.901E-01
   1   13   23     2     8    2.6194E+05 -1.2472E+04   2.7441E+05  0.000E+00  0.000E+00  0.000E+00  3.86924E+01  3.174E-01  2.000E+01  2.000E+04 -6.236E-01
   1   14   22     2     9    2.7441E+05 -6.9430E+03   2.8136E+05  0.000E+00  0.000E+00  0.000E+00  3.84493E+01  3.243E-01  2.000E+01  2.000E+04 -3.471E-01
   1   14   22     3     1    1.0440E+06 -1.4968E+04   1.0590E+06  0.000E+00  0.000E+00  0.000E+00  3.80480E+01  4.925E-01  2.000E+01  2.000E+04 -7.484E-01
   1   15   23     3     2    1.0590E+06 -2.2654E+04   1.0816E+06  0.000E+00  0.000E+00  0.000E+00  3.71644E+01  4.977E-01  2.000E+01  2.000E+04 -1.133E+00
   1   15   24     3     3    1.0816E+06 -1.8554E+04   1.1002E+06  0.000E+00  0.000E+00  0.000E+00  3.62812E+01  5.035E-01  2.000E+01  2.000E+04 -9.277E-01
   1   15   25     3     4    1.1002E+06 -1.7323E+04   1.1175E+06  0.000E+00  0.000E+00  0.000E+00  3.53973E+01  5.084E-01  2.000E+01  2.000E+04 -8.662E-01
   1   15   26     3     5    1.1175E+06 -2.0964E+04   1.1385E+06  0.000E+00  0.000E+00  0.000E+00  3.45137E+01  5.137E-01  2.000E+01  2.000E+04 -1.048E+00
   1   16   27     3     6    1.1385E+06 -2.8834E+04   1.1673E+06  0.000E+00  0.000E+00  0.000E+00  3.36316E+01  5.204E-01  2.000E+01  2.000E+04 -1.442E+00
   1   17   28     3     7    1.1673E+06 -3.6107E+04   1.2034E+06  0.000E+00  0.000E+00  0.000E+00  3.27514E+01  5.292E-01  2.000E+01  2.000E+04 -1.805E+00
   1   18   29     3     8    1.2034E+06 -4.7207E+04   1.2506E+06  0.000E+00  0.000E+00  0.000E+00  3.18736E+01  5.403E-01  2.000E+01  2.000E+04 -2.360E+00
   1   18   30     3     9    1.2506E+06 -4.3677E+04   1.2943E+06  0.000E+00  0.000E+00  0.000E+00  3.09966E+01  5.522E-01  2.000E+01  2.000E+04 -2.184E+00



1
              HEAD IN LAYER   1 AT END OF TIME STEP   1 IN STRESS PERIOD   12
  ---------------------------------------------------------------------------

          1      2      3      4      5      6      7      8      9     10
         11     12     13     14     15     16     17     18     19     20
         21     22     23     24     25     26     27     28     29     30
 .........................................................................
   1  ****** ****** ****** ****** ****** ****** ****** ****** ****** ******
      ****** ****** ****** ****** ****** ****** ****** ****** ****** ******
      ****** ****** ****** ****** ****** ****** ****** ****** ****** ******
   2  ****** ****** ****** ****** ****** ****** ****** ****** ****** ******
      ****** ****** ****** ****** ****** ****** ****** ****** ****** ******
      ****** ****** ****** ****** ****** ****** ****** ****** ****** ******
   3  ****** ****** ****** ****** ****** ****** ****** ****** ****** ******
      ****** ****** ****** ****** ****** ****** ****** ****** ****** ******
      ****** ****** ****** ****** ****** ****** ****** ****** ****** ******
   4  ****** ****** ****** ****** ****** ****** ****** ****** ****** ******
      ****** ****** ****** ****** ****** ****** ****** ****** ****** ******
      ****** ****** ****** ****** ****** ****** ****** ****** ****** ******
   5  ****** ****** ****** ****** ****** ****** ****** ****** ****** ******
      ****** ****** ****** ****** ****** ****** ****** ****** ****** ******
      ****** ****** ****** ****** ****** ****** ****** ****** ****** ******
   6  ****** ****** ****** ****** ****** ****** ****** ****** ****** ******
      ****** ****** ****** ****** ****** ****** ****** ****** ****** ******
      ****** ****** ****** ****** ****** ****** ****** ****** ****** ******
   7  ****** ****** ****** ****** ****** ****** ****** ****** ****** ******
      ****** ****** ****** ****** ****** ****** ****** ****** ****** ******
      ****** ****** ****** ****** ****** ****** ****** ****** ****** ******
   8  ****** ****** ****** ****** ****** ****** ****** ****** ****** ******
      ****** ****** ****** ****** ****** ****** ****** ****** ****** ******
      ****** ****** ****** ****** ****** ****** ****** ****** ****** ******
   9  ****** ****** ****** ****** ****** ****** ****** ****** ****** ******
      ****** ****** ****** ****** ****** ****** ****** ****** ****** ******
      ****** ****** ****** ****** ****** ****** ****** ****** ****** ******
  10  ****** ****** ****** ****** ****** ****** ****** ****** ****** ******
      ****** ****** ****** ****** ****** ****** ****** ****** ****** ******
      ****** ****** ****** ****** ****** ****** ****** ****** ****** ******
  11  ****** ****** ****** ****** ****** ****** ****** ****** ****** ******
      ****** ****** ****** ****** ****** ****** ****** ****** ****** ******
      ****** ****** ****** ****** ****** ****** ****** ****** ****** ******
  12  ****** ****** ****** ****** ****** ****** ****** ****** ****** ******
      ****** ****** ****** ****** ****** ****** ****** ****** ****** ******
      ****** ****** ****** ****** ****** ****** ****** ****** ****** ******
  13  ****** ****** ****** ****** ****** ****** ****** ****** ****** ******
      ****** ****** ****** ****** ****** ****** ****** ****** ****** ******
      ****** ****** ****** ****** ****** ****** ****** ****** ****** ******
  14  ****** ****** ****** ****** ****** ****** ****** ****** ****** ******
      ****** ****** ****** ****** ****** ****** ****** ****** ****** ******
      ****** ****** ****** ****** ****** ****** ****** ****** ****** ******
  15  ****** ****** ****** ****** ****** ****** ****** ****** ****** ******
      ****** ****** ****** ****** ****** ****** ****** ****** ****** ******
      ****** ****** ****** ****** ****** ****** ****** ****** ****** ******
  16  ****** ****** ****** ****** ****** ****** ****** ****** ****** ******
      ****** ****** ****** ****** ****** ****** ****** ****** ****** ******
      ****** ****** ****** ****** ****** ****** ****** ****** ****** ******
  17  ****** ****** ****** ****** ****** ****** ****** ****** ****** ******
      ****** ****** ****** ****** ****** ****** ****** ****** ****** ******
      ****** ****** ****** ****** ****** ****** ****** ****** ****** ******
  18  ****** ****** ****** ****** ****** ****** ****** ****** ****** ******
      ****** ****** ****** ****** ****** ****** ****** ****** ****** ******
      ****** ****** ****** ****** ****** ****** ****** ****** ****** ******
  19  ****** ****** ****** ****** ****** ****** ****** ****** ****** ******
      ****** ****** ****** ****** ****** ****** ****** ****** ****** ******
      ****** ****** ****** ****** ****** ****** ****** ****** ****** ******
  20  ****** ****** ****** ****** ****** ****** ****** ****** ****** ******
      ****** ****** ****** ****** ****** ****** ****** ****** ****** ******
      ****** ****** ****** ****** ****** ****** ****** ****** ****** ******
  21  ****** ****** ****** ****** ****** ****** ****** ****** ****** ******
      ****** ****** ****** ****** ****** ****** ****** ****** ****** ******
      ****** ****** ****** ****** ****** ****** ****** ****** ****** ******
  22  ****** ****** ****** ****** ****** ****** ****** ****** ****** ******
      ****** ****** ****** ****** ****** ****** ****** ****** ****** ******
      ****** ****** ****** ****** ****** ****** ****** ****** ****** ******
  23  ****** ****** ****** ****** ****** ****** ****** ****** ****** ******
      ****** ****** ****** ****** ****** ****** ****** ****** ****** ******
      ****** ****** ****** ****** ****** ****** ****** ****** ****** ******
  24  ****** ****** ****** ****** ****** ****** ****** ****** ****** ******
      ****** ****** ****** ****** ****** ****** ****** ****** ****** ******
      ****** ****** ****** ****** ****** ****** ****** ****** ****** ******
  25  ****** ****** ****** ****** ****** ****** ****** ****** ****** ******
      ****** ****** ****** ****** ****** ****** ****** ****** ****** ******
      ****** ****** ****** ****** ****** ****** ****** ****** ****** ******

 HEAD WILL BE SAVED ON UNIT   51 AT END OF TIME STEP    1, STRESS PERIOD   12
1
  VOLUMETRIC BUDGET FOR ENTIRE MODEL AT END OF TIME STEP    1, STRESS PERIOD  12
  ------------------------------------------------------------------------------

     CUMULATIVE VOLUMES      L**3       RATES FOR THIS TIME STEP      L**3/T
     ------------------                 ------------------------

           IN:                                      IN:
           ---                                      ---
             STORAGE =    20815225.8016               STORAGE =          42.6285
       CONSTANT HEAD =  1262764839.0277         CONSTANT HEAD =     1156059.9962
               WELLS =           0.0000                 WELLS =           0.0000
            RECHARGE =    26413200.0000              RECHARGE =       27600.0000
      STREAM LEAKAGE =           0.0000        STREAM LEAKAGE =           0.0000

            TOTAL IN =  1309993264.8292              TOTAL IN =     1183702.6246

          OUT:                                     OUT:
          ----                                     ----
             STORAGE =      952530.0246               STORAGE =        1122.4074
       CONSTANT HEAD =           0.0000         CONSTANT HEAD =           0.0000
               WELLS =    56037696.5248                 WELLS =       38295.2882
            RECHARGE =           0.0000              RECHARGE =           0.0000
      STREAM LEAKAGE =  1253003048.7173        STREAM LEAKAGE =     1144284.9087

           TOTAL OUT =  1309993275.2668             TOTAL OUT =     1183702.6044

            IN - OUT =         -10.4375              IN - OUT =       2.0269E-02

 PERCENT DISCREPANCY =          -0.00     PERCENT DISCREPANCY =           0.00






         TIME SUMMARY AT END OF TIME STEP    1 IN STRESS PERIOD   12
                    SECONDS     MINUTES      HOURS       DAYS        YEARS
                    -----------------------------------------------------------
   TIME STEP LENGTH 7.86240E+06 1.31040E+05  2184.0      91.000     0.24914    
 STRESS PERIOD TIME 7.86240E+06 1.31040E+05  2184.0      91.000     0.24914    
         TOTAL TIME 9.46080E+07 1.57680E+06  26280.      1095.0      2.9979    
1

 Run end date and time (yyyy/mm/dd hh:mm:ss): 2018/09/25 13:27:50
 Elapsed run time:  0.060 Seconds

