                                  MODFLOW-2005     
      U.S. GEOLOGICAL SURVEY MODULAR FINITE-DIFFERENCE GROUND-WATER FLOW MODEL
                            VERSION 1.11.00 8/8/2013

 LIST FILE: supply2.lst
                         UNIT   10

 OPENING ..\data\supply.dis
 FILE TYPE:DIS   UNIT   11   STATUS:OLD    
 FORMAT:FORMATTED              ACCESS:SEQUENTIAL          

 OPENING ..\data\supply.ba6
 FILE TYPE:BAS6   UNIT   12   STATUS:OLD    
 FORMAT:FORMATTED              ACCESS:SEQUENTIAL          

 OPENING ..\data\supply.bc6
 FILE TYPE:BCF6   UNIT   13   STATUS:OLD    
 FORMAT:FORMATTED              ACCESS:SEQUENTIAL          

 OPENING ..\data\supply.rch
 FILE TYPE:RCH   UNIT   15   STATUS:OLD    
 FORMAT:FORMATTED              ACCESS:SEQUENTIAL          

 OPENING ..\data\supply2.sfr
 FILE TYPE:SFR   UNIT   16   STATUS:OLD    
 FORMAT:FORMATTED              ACCESS:SEQUENTIAL          

 OPENING ..\data\supply.oc
 FILE TYPE:OC   UNIT   17   STATUS:OLD    
 FORMAT:FORMATTED              ACCESS:SEQUENTIAL          

 OPENING ..\data\supply.pcg
 FILE TYPE:PCG   UNIT   18   STATUS:OLD    
 FORMAT:FORMATTED              ACCESS:SEQUENTIAL          

 OPENING supply2.wel
 FILE TYPE:WEL   UNIT   19   STATUS:OLD    
 FORMAT:FORMATTED              ACCESS:SEQUENTIAL          

 OPENING supply2sf.bin
 FILE TYPE:DATA(BINARY)   UNIT   50   STATUS:UNKNOWN
 FORMAT:BINARY                 ACCESS:SEQUENTIAL          

 OPENING supply2hd.bin
 FILE TYPE:DATA(BINARY)   UNIT   51   STATUS:UNKNOWN
 FORMAT:BINARY                 ACCESS:SEQUENTIAL          

 BAS -- BASIC PACKAGE, VERSION 7, 5/2/2005 INPUT READ FROM UNIT   12
 
 MODFLOW was compiled using uniform precision
 Precision of REAL and DOUBLE PRECISION variables:          15

 DISCRETIZATION INPUT DATA READ FROM UNIT   11
    1 LAYERS        25 ROWS        30 COLUMNS
   12 STRESS PERIOD(S) IN SIMULATION
 MODEL TIME UNIT IS DAYS
 MODEL LENGTH UNIT IS UNDEFINED
  Confining bed flag for each layer:
   0

                     DELR =   200.000    

                     DELC =   200.000    

 TOP ELEVATION OF LAYER 1 =  100.0000    

   MODEL LAYER BOTTOM EL. =   0.00000     FOR LAYER   1


 STRESS PERIOD     LENGTH       TIME STEPS     MULTIPLIER FOR DELT    SS FLAG
 ----------------------------------------------------------------------------
        1         92.00000          1                    1.500         TR
        2         91.00000          1                    1.500         TR
        3         91.00000          1                    1.500         TR
        4         91.00000          1                    1.500         TR
        5         92.00000          1                    1.500         TR
        6         91.00000          1                    1.500         TR
        7         91.00000          1                    1.500         TR
        8         91.00000          1                    1.500         TR
        9         92.00000          1                    1.500         TR
       10         91.00000          1                    1.500         TR
       11         91.00000          1                    1.500         TR
       12         91.00000          1                    1.500         TR

 TRANSIENT SIMULATION



 
 #MODOFC transient water supply sample problem                                   
 #                                                                               
 THE FREE FORMAT OPTION HAS BEEN SELECTED



                     BOUNDARY ARRAY FOR LAYER   1
 READING ON UNIT   12 WITH FORMAT: (20I4)              

 AQUIFER HEAD WILL BE SET TO   0.0000     AT ALL NO-FLOW NODES (IBOUND=0).



                       INITIAL HEAD FOR LAYER   1
 READING ON UNIT   12 WITH FORMAT: (10F13.0)           

 OUTPUT CONTROL IS SPECIFIED ONLY AT TIME STEPS FOR WHICH OUTPUT IS DESIRED
 COMPACT CELL-BY-CELL BUDGET FILES WILL BE WRITTEN
 HEAD PRINT FORMAT CODE IS  18    DRAWDOWN PRINT FORMAT CODE IS   0
 HEADS WILL BE SAVED ON UNIT   51    DRAWDOWNS WILL BE SAVED ON UNIT    0

 BCF -- BLOCK-CENTERED FLOW PACKAGE, VERSION 7, 5/2/2005
         INPUT READ FROM UNIT 13
 TRANSIENT SIMULATION
 HEAD AT CELLS THAT CONVERT TO DRY=   0.0000    
 WETTING CAPABILITY IS NOT ACTIVE
      LAYER  LAYER-TYPE CODE     INTERBLOCK T
      --------------------------------------------
         1            0          0 -- HARMONIC    

 COLUMN TO ROW ANISOTROPY =  1.000000    

     PRIMARY STORAGE COEF =  5.000000E-02 FOR LAYER   1

     TRANSMIS. ALONG ROWS =   5000.00     FOR LAYER   1

 WEL -- WELL PACKAGE, VERSION 7, 5/2/2005 INPUT READ FROM UNIT   19
 # Well package input file written by MMProc
 No named parameters
 MAXIMUM OF      5 ACTIVE WELLS AT ONE TIME


     0 Well parameters

 RCH -- RECHARGE PACKAGE, VERSION 7, 5/2/2005 INPUT READ FROM UNIT   15
 No named parameters
 OPTION 1 -- RECHARGE TO TOP LAYER


     0 Recharge parameters

 SFR7 -- STREAMFLOW ROUTING PACKAGE, VERSION 1.0.7, 2013-01-15
         INPUT READ FROM UNIT  16
 #  Supply2 test problem for GWM-VI
 #  The eighth entry in the first data line is ISTCB2 -
 #    Setting this to a negative number indicates that
 #    streamflows out of the reach will be saved to a
 #    binary file.  The absolute value of ISTCB2 is the
 #    unit to which unformatted flows will be written.
 #
 No named parameters
 Segment information will not be 
 read by reach
 No named parameters
 No specifed inflow files


 NUMBER OF STREAM REACHES IS   40

 NUMBER OF STREAM SEGMENTS IS    3

 NUMBER OF STREAM PARAMETERS IS    0

 NUMBER OF STREAM SEGMENTS DEFINED USING PARAMETERS IS              0

 MAXIMUM ERROR FOR STREAM LEAKAGE RATES IS  1.00E-04

 CONSTANT FOR MANNINGS EQUATION IS  1.2839E+05





   STREAM NETWORK DESCRIPTION: 

   LAYER    ROW    COL   SEGMENT   REACH     LENGTH
                          NUMBER   NUMBER    IN CELL        
   --------------------------------------------------
      1     13      1       1        1    2.0000E+02
      1     13      2       1        2    2.0000E+02
      1     14      3       1        3    2.0000E+02
      1     15      4       1        4    2.0000E+02
      1     16      5       1        5    2.0000E+02
      1     16      6       1        6    2.0000E+02
      1     16      7       1        7    2.0000E+02
      1     16      8       1        8    2.0000E+02
      1     16      9       1        9    2.0000E+02
      1     16     10       1       10    2.0000E+02
      1     16     11       1       11    2.0000E+02
      1     16     12       1       12    2.0000E+02
      1     15     13       1       13    2.0000E+02
      1     14     14       1       14    2.0000E+02
      1     13     15       1       15    2.0000E+02
      1     12     16       1       16    2.0000E+02
      1     12     17       1       17    2.0000E+02
      1     12     18       1       18    2.0000E+02
      1     12     19       1       19    2.0000E+02
      1     13     20       1       20    2.0000E+02
      1     14     21       1       21    2.0000E+02
      1     14     22       1       22    2.0000E+02
      1      9     30       2        1    2.0000E+02
      1      9     29       2        2    2.0000E+02
      1      9     28       2        3    2.0000E+02
      1      9     27       2        4    2.0000E+02
      1     10     26       2        5    2.0000E+02
      1     11     25       2        6    2.0000E+02
      1     12     24       2        7    2.0000E+02
      1     13     23       2        8    2.0000E+02
      1     14     22       2        9    2.0000E+02
      1     14     22       3        1    2.0000E+02
      1     15     23       3        2    2.0000E+02
      1     15     24       3        3    2.0000E+02
      1     15     25       3        4    2.0000E+02
      1     15     26       3        5    2.0000E+02
      1     16     27       3        6    2.0000E+02
      1     17     28       3        7    2.0000E+02
      1     18     29       3        8    2.0000E+02
      1     18     30       3        9    2.0000E+02




 PCG -- CONJUGATE-GRADIENT SOLUTION PACKAGE, VERSION 7, 5/2/2005
 MAXIMUM OF    500 CALLS OF SOLUTION ROUTINE
 MAXIMUM OF      5 INTERNAL ITERATIONS PER CALL TO SOLUTION ROUTINE
 MATRIX PRECONDITIONING TYPE :    1



                                    SOLUTION BY THE CONJUGATE-GRADIENT METHOD
                                   -------------------------------------------
                    MAXIMUM NUMBER OF CALLS TO PCG ROUTINE =      500
                        MAXIMUM ITERATIONS PER CALL TO PCG =        5
                               MATRIX PRECONDITIONING TYPE =        1
        RELAXATION FACTOR (ONLY USED WITH PRECOND. TYPE 1) =    0.10000E+01
 PARAMETER OF POLYNOMIAL PRECOND. = 2 (2) OR IS CALCULATED :        0
                         HEAD CHANGE CRITERION FOR CLOSURE =    0.10000E-05
                     RESIDUAL CHANGE CRITERION FOR CLOSURE =    0.10000E+01
            PCG HEAD AND RESIDUAL CHANGE PRINTOUT INTERVAL =        1
     PRINTING FROM SOLVER IS LIMITED(1) OR SUPPRESSED (>1) =        1
                            STEADY-STATE DAMPING PARAMETER =    0.10000E+01
                               TRANSIENT DAMPING PARAMETER =    0.10000E+01
1
                            STRESS PERIOD NO.    1, LENGTH =   92.00000    
                            -----------------------------------------------

                              NUMBER OF TIME STEPS =     1

                               MULTIPLIER FOR DELT =     1.500

                            INITIAL TIME STEP SIZE =   92.00000    

 WELL NO.  LAYER   ROW   COL   STRESS RATE         
 --------------------------------------------------
      1      1     22      9     -0.3717E+05
      2      1     24     11     -0.5000E+05
      3      1     24     23     -0.5500E+05

      3 WELLS

                 RECHARGE =  5.000000E-04



 CLASSIFICATION & COUNT OF STREAM SEGMENTS BASED ON SOURCE OF INFLOW:

                HEADWATER     DIVERSION     RECEIVES TRIBUTARY FLOW
                ---------     ---------     -----------------------
                     2              0               1



                    INPUT DATA FOR EACH STREAM SEGMENT
 ---------------------------------------------------------------------------------------------

 SEGMENT    SEG.     INFLOW   OVERLAND   STREAM    STREAM   ICALC  OUTFLOW  DIVERSION PRIORITY
    NO.    LENGTH     RATE     RUNOFF      ET       PPT.    METH.  TO SEG.  FROM SEG.    NO.

      1  4.400E+03 1.000E+05 0.000E+00 0.000E+00 0.000E+00    1        3        0        0
      2  1.800E+03 5.000E+04 0.000E+00 0.000E+00 0.000E+00    1        3        0        0
      3  1.800E+03 0.000E+00 0.000E+00 0.000E+00 0.000E+00    1        0        0        0


         STREAMBED PROPERTIES AND STREAM DIMENSIONS

 SEGMENT     BED HYD. COND.      BED THICKNESS     ELEV.-TOP OF BED     WIDTH OF STREAM     DEPTH OF STREAM    STREAM ROUGHNESS
    No.     UPPER     LOWER     UPPER     LOWER     UPPER     LOWER     UPPER     LOWER     UPPER     LOWER   CHANNEL      BANK

     1  5.000E+00 5.000E+00 1.000E+00 1.000E+00 4.850E+01 3.800E+01 2.000E+01 2.000E+01                     5.000E-02
     2  5.000E+00 5.000E+00 1.000E+00 1.000E+00 4.025E+01 3.800E+01 2.000E+01 2.000E+01                     5.000E-02
     3  5.000E+00 5.000E+00 1.000E+00 1.000E+00 3.800E+01 3.000E+01 2.000E+01 2.000E+01                     5.000E-02



 
 SOLVING FOR HEAD 


     8 CALLS TO PCG ROUTINE FOR TIME STEP   1 IN STRESS PERIOD    1
    32 TOTAL ITERATIONS

 OUTPUT CONTROL FOR STRESS PERIOD    1   TIME STEP    1
    SAVE BUDGET
    SAVE HEAD FOR ALL LAYERS
    PRINT HEAD FOR ALL LAYERS
 UBDSV2 SAVING "STREAMFLOW OUT  " ON UNIT  50 AT TIME STEP  1, STRESS PERIOD   1



 STREAM LISTING     PERIOD      1   STEP        1

 LAYER ROW COL. STREAM  RCH.  FLOW INTO     FLOW TO   FLOW OUT OF   OVRLND.     DIRECT     STREAM       STREAM     STREAM     STREAM   STREAMBED  STREAMBED
                SEG.NO.  NO.  STRM. RCH.    AQUIFER    STRM. RCH.    RUNOFF     PRECIP       ET          HEAD       DEPTH      WIDTH   CONDCTNC.   GRADIENT

   1   13    1     1     1    1.0000E+05 -3.1492E+04   1.3149E+05  0.000E+00  0.000E+00  0.000E+00  4.84193E+01  1.579E-01  2.000E+01  2.000E+04 -1.575E+00
   1   13    2     1     2    1.3149E+05 -4.1960E+04   1.7345E+05  0.000E+00  0.000E+00  0.000E+00  4.79704E+01  1.863E-01  2.000E+01  2.000E+04 -2.098E+00
   1   14    3     1     3    1.7345E+05 -3.7318E+04   2.1077E+05  0.000E+00  0.000E+00  0.000E+00  4.75208E+01  2.140E-01  2.000E+01  2.000E+04 -1.866E+00
   1   15    4     1     4    2.1077E+05 -3.6131E+04   2.4690E+05  0.000E+00  0.000E+00  0.000E+00  4.70673E+01  2.377E-01  2.000E+01  2.000E+04 -1.807E+00
   1   16    5     1     5    2.4690E+05 -3.6569E+04   2.8347E+05  0.000E+00  0.000E+00  0.000E+00  4.66120E+01  2.597E-01  2.000E+01  2.000E+04 -1.828E+00
   1   16    6     1     6    2.8347E+05 -3.1868E+04   3.1534E+05  0.000E+00  0.000E+00  0.000E+00  4.61543E+01  2.793E-01  2.000E+01  2.000E+04 -1.593E+00
   1   16    7     1     7    3.1534E+05 -3.1545E+04   3.4688E+05  0.000E+00  0.000E+00  0.000E+00  4.56944E+01  2.967E-01  2.000E+01  2.000E+04 -1.577E+00
   1   16    8     1     8    3.4688E+05 -3.1617E+04   3.7850E+05  0.000E+00  0.000E+00  0.000E+00  4.52338E+01  3.134E-01  2.000E+01  2.000E+04 -1.581E+00
   1   16    9     1     9    3.7850E+05 -3.1628E+04   4.1013E+05  0.000E+00  0.000E+00  0.000E+00  4.47727E+01  3.295E-01  2.000E+01  2.000E+04 -1.581E+00
   1   16   10     1    10    4.1013E+05 -3.1655E+04   4.4178E+05  0.000E+00  0.000E+00  0.000E+00  4.43110E+01  3.451E-01  2.000E+01  2.000E+04 -1.583E+00
   1   16   11     1    11    4.4178E+05 -3.2347E+04   4.7413E+05  0.000E+00  0.000E+00  0.000E+00  4.38491E+01  3.604E-01  2.000E+01  2.000E+04 -1.617E+00
   1   16   12     1    12    4.7413E+05 -3.8277E+04   5.1241E+05  0.000E+00  0.000E+00  0.000E+00  4.33882E+01  3.769E-01  2.000E+01  2.000E+04 -1.914E+00
   1   15   13     1    13    5.1241E+05 -3.8388E+04   5.5080E+05  0.000E+00  0.000E+00  0.000E+00  4.29283E+01  3.942E-01  2.000E+01  2.000E+04 -1.919E+00
   1   14   14     1    14    5.5080E+05 -3.9564E+04   5.9036E+05  0.000E+00  0.000E+00  0.000E+00  4.24681E+01  4.113E-01  2.000E+01  2.000E+04 -1.978E+00
   1   13   15     1    15    5.9036E+05 -4.1968E+04   6.3233E+05  0.000E+00  0.000E+00  0.000E+00  4.20082E+01  4.286E-01  2.000E+01  2.000E+04 -2.098E+00
   1   12   16     1    16    6.3233E+05 -4.7881E+04   6.8021E+05  0.000E+00  0.000E+00  0.000E+00  4.15495E+01  4.473E-01  2.000E+01  2.000E+04 -2.394E+00
   1   12   17     1    17    6.8021E+05 -3.7620E+04   7.1783E+05  0.000E+00  0.000E+00  0.000E+00  4.10895E+01  4.645E-01  2.000E+01  2.000E+04 -1.881E+00
   1   12   18     1    18    7.1783E+05 -3.5884E+04   7.5371E+05  0.000E+00  0.000E+00  0.000E+00  4.06268E+01  4.790E-01  2.000E+01  2.000E+04 -1.794E+00
   1   12   19     1    19    7.5371E+05 -4.0344E+04   7.9406E+05  0.000E+00  0.000E+00  0.000E+00  4.01642E+01  4.938E-01  2.000E+01  2.000E+04 -2.017E+00
   1   13   20     1    20    7.9406E+05 -3.0409E+04   8.2447E+05  0.000E+00  0.000E+00  0.000E+00  3.97004E+01  5.072E-01  2.000E+01  2.000E+04 -1.520E+00
   1   14   21     1    21    8.2447E+05 -2.2611E+04   8.4708E+05  0.000E+00  0.000E+00  0.000E+00  3.92330E+01  5.171E-01  2.000E+01  2.000E+04 -1.131E+00
   1   14   22     1    22    8.4708E+05 -2.8817E+03   8.4996E+05  0.000E+00  0.000E+00  0.000E+00  3.87605E+01  5.218E-01  2.000E+01  2.000E+04 -1.441E-01
   1    9   30     2     1    5.0000E+04 -2.9664E+04   7.9664E+04  0.000E+00  0.000E+00  0.000E+00  4.02604E+01  1.354E-01  2.000E+01  2.000E+04 -1.483E+00
   1    9   29     2     2    7.9664E+04 -3.2105E+04   1.1177E+05  0.000E+00  0.000E+00  0.000E+00  4.00461E+01  1.711E-01  2.000E+01  2.000E+04 -1.605E+00
   1    9   28     2     3    1.1177E+05 -3.6430E+04   1.4820E+05  0.000E+00  0.000E+00  0.000E+00  3.98305E+01  2.055E-01  2.000E+01  2.000E+04 -1.822E+00
   1    9   27     2     4    1.4820E+05 -5.1071E+04   1.9927E+05  0.000E+00  0.000E+00  0.000E+00  3.96196E+01  2.446E-01  2.000E+01  2.000E+04 -2.554E+00
   1   10   26     2     5    1.9927E+05 -3.7478E+04   2.3675E+05  0.000E+00  0.000E+00  0.000E+00  3.94053E+01  2.803E-01  2.000E+01  2.000E+04 -1.874E+00
   1   11   25     2     6    2.3675E+05 -2.9084E+04   2.6583E+05  0.000E+00  0.000E+00  0.000E+00  3.91803E+01  3.053E-01  2.000E+01  2.000E+04 -1.454E+00
   1   12   24     2     7    2.6583E+05 -2.2116E+04   2.8795E+05  0.000E+00  0.000E+00  0.000E+00  3.89486E+01  3.236E-01  2.000E+01  2.000E+04 -1.106E+00
   1   13   23     2     8    2.8795E+05 -1.6045E+04   3.0399E+05  0.000E+00  0.000E+00  0.000E+00  3.87118E+01  3.368E-01  2.000E+01  2.000E+04 -8.023E-01
   1   14   22     2     9    3.0399E+05 -8.6882E+03   3.1268E+05  0.000E+00  0.000E+00  0.000E+00  3.84701E+01  3.451E-01  2.000E+01  2.000E+04 -4.344E-01
   1   14   22     3     1    1.1626E+06 -1.6474E+04   1.1791E+06  0.000E+00  0.000E+00  0.000E+00  3.80809E+01  5.253E-01  2.000E+01  2.000E+04 -8.237E-01
   1   15   23     3     2    1.1791E+06 -2.6166E+04   1.2053E+06  0.000E+00  0.000E+00  0.000E+00  3.71977E+01  5.310E-01  2.000E+01  2.000E+04 -1.308E+00
   1   15   24     3     3    1.2053E+06 -2.1969E+04   1.2272E+06  0.000E+00  0.000E+00  0.000E+00  3.63152E+01  5.374E-01  2.000E+01  2.000E+04 -1.098E+00
   1   15   25     3     4    1.2272E+06 -2.1774E+04   1.2490E+06  0.000E+00  0.000E+00  0.000E+00  3.54321E+01  5.432E-01  2.000E+01  2.000E+04 -1.089E+00
   1   15   26     3     5    1.2490E+06 -2.5270E+04   1.2743E+06  0.000E+00  0.000E+00  0.000E+00  3.45494E+01  5.494E-01  2.000E+01  2.000E+04 -1.264E+00
   1   16   27     3     6    1.2743E+06 -3.2806E+04   1.3071E+06  0.000E+00  0.000E+00  0.000E+00  3.36680E+01  5.569E-01  2.000E+01  2.000E+04 -1.640E+00
   1   17   28     3     7    1.3071E+06 -3.9730E+04   1.3468E+06  0.000E+00  0.000E+00  0.000E+00  3.27885E+01  5.663E-01  2.000E+01  2.000E+04 -1.986E+00
   1   18   29     3     8    1.3468E+06 -5.0125E+04   1.3970E+06  0.000E+00  0.000E+00  0.000E+00  3.19110E+01  5.777E-01  2.000E+01  2.000E+04 -2.506E+00
   1   18   30     3     9    1.3970E+06 -4.6331E+04   1.4433E+06  0.000E+00  0.000E+00  0.000E+00  3.10342E+01  5.898E-01  2.000E+01  2.000E+04 -2.317E+00



1
              HEAD IN LAYER   1 AT END OF TIME STEP   1 IN STRESS PERIOD    1
  ---------------------------------------------------------------------------

          1      2      3      4      5      6      7      8      9     10
         11     12     13     14     15     16     17     18     19     20
         21     22     23     24     25     26     27     28     29     30
 .........................................................................
   1  ****** ****** ****** ****** ****** ****** ****** ****** ****** ******
      ****** ****** ****** ****** ****** ****** ****** ****** ****** ******
      ****** ****** ****** ****** ****** ****** ****** ****** ****** ******
   2  ****** ****** ****** ****** ****** ****** ****** ****** ****** ******
      ****** ****** ****** ****** ****** ****** ****** ****** ****** ******
      ****** ****** ****** ****** ****** ****** ****** ****** ****** ******
   3  ****** ****** ****** ****** ****** ****** ****** ****** ****** ******
      ****** ****** ****** ****** ****** ****** ****** ****** ****** ******
      ****** ****** ****** ****** ****** ****** ****** ****** ****** ******
   4  ****** ****** ****** ****** ****** ****** ****** ****** ****** ******
      ****** ****** ****** ****** ****** ****** ****** ****** ****** ******
      ****** ****** ****** ****** ****** ****** ****** ****** ****** ******
   5  ****** ****** ****** ****** ****** ****** ****** ****** ****** ******
      ****** ****** ****** ****** ****** ****** ****** ****** ****** ******
      ****** ****** ****** ****** ****** ****** ****** ****** ****** ******
   6  ****** ****** ****** ****** ****** ****** ****** ****** ****** ******
      ****** ****** ****** ****** ****** ****** ****** ****** ****** ******
      ****** ****** ****** ****** ****** ****** ****** ****** ****** ******
   7  ****** ****** ****** ****** ****** ****** ****** ****** ****** ******
      ****** ****** ****** ****** ****** ****** ****** ****** ****** ******
      ****** ****** ****** ****** ****** ****** ****** ****** ****** ******
   8  ****** ****** ****** ****** ****** ****** ****** ****** ****** ******
      ****** ****** ****** ****** ****** ****** ****** ****** ****** ******
      ****** ****** ****** ****** ****** ****** ****** ****** ****** ******
   9  ****** ****** ****** ****** ****** ****** ****** ****** ****** ******
      ****** ****** ****** ****** ****** ****** ****** ****** ****** ******
      ****** ****** ****** ****** ****** ****** ****** ****** ****** ******
  10  ****** ****** ****** ****** ****** ****** ****** ****** ****** ******
      ****** ****** ****** ****** ****** ****** ****** ****** ****** ******
      ****** ****** ****** ****** ****** ****** ****** ****** ****** ******
  11  ****** ****** ****** ****** ****** ****** ****** ****** ****** ******
      ****** ****** ****** ****** ****** ****** ****** ****** ****** ******
      ****** ****** ****** ****** ****** ****** ****** ****** ****** ******
  12  ****** ****** ****** ****** ****** ****** ****** ****** ****** ******
      ****** ****** ****** ****** ****** ****** ****** ****** ****** ******
      ****** ****** ****** ****** ****** ****** ****** ****** ****** ******
  13  ****** ****** ****** ****** ****** ****** ****** ****** ****** ******
      ****** ****** ****** ****** ****** ****** ****** ****** ****** ******
      ****** ****** ****** ****** ****** ****** ****** ****** ****** ******
  14  ****** ****** ****** ****** ****** ****** ****** ****** ****** ******
      ****** ****** ****** ****** ****** ****** ****** ****** ****** ******
      ****** ****** ****** ****** ****** ****** ****** ****** ****** ******
  15  ****** ****** ****** ****** ****** ****** ****** ****** ****** ******
      ****** ****** ****** ****** ****** ****** ****** ****** ****** ******
      ****** ****** ****** ****** ****** ****** ****** ****** ****** ******
  16  ****** ****** ****** ****** ****** ****** ****** ****** ****** ******
      ****** ****** ****** ****** ****** ****** ****** ****** ****** ******
      ****** ****** ****** ****** ****** ****** ****** ****** ****** ******
  17  ****** ****** ****** ****** ****** ****** ****** ****** ****** ******
      ****** ****** ****** ****** ****** ****** ****** ****** ****** ******
      ****** ****** ****** ****** ****** ****** ****** ****** ****** ******
  18  ****** ****** ****** ****** ****** ****** ****** ****** ****** ******
      ****** ****** ****** ****** ****** ****** ****** ****** ****** ******
      ****** ****** ****** ****** ****** ****** ****** ****** ****** ******
  19  ****** ****** ****** ****** ****** ****** ****** ****** ****** ******
      ****** ****** ****** ****** ****** ****** ****** ****** ****** ******
      ****** ****** ****** ****** ****** ****** ****** ****** ****** ******
  20  ****** ****** ****** ****** ****** ****** ****** ****** ****** ******
      ****** ****** ****** ****** ****** ****** ****** ****** ****** ******
      ****** ****** ****** ****** ****** ****** ****** ****** ****** ******
  21  ****** ****** ****** ****** ****** ****** ****** ****** ****** ******
      ****** ****** ****** ****** ****** ****** ****** ****** ****** ******
      ****** ****** ****** ****** ****** ****** ****** ****** ****** ******
  22  ****** ****** ****** ****** ****** ****** ****** ****** ****** ******
      ****** ****** ****** ****** ****** ****** ****** ****** ****** ******
      ****** ****** ****** ****** ****** ****** ****** ****** ****** ******
  23  ****** ****** ****** ****** ****** ****** ****** ****** ****** ******
      ****** ****** ****** ****** ****** ****** ****** ****** ****** ******
      ****** ****** ****** ****** ****** ****** ****** ****** ****** ******
  24  ****** ****** ****** ****** ****** ****** ****** ****** ****** ******
      ****** ****** ****** ****** ****** ****** ****** ****** ****** ******
      ****** ****** ****** ****** ****** ****** ****** ****** ****** ******
  25  ****** ****** ****** ****** ****** ****** ****** ****** ****** ******
      ****** ****** ****** ****** ****** ****** ****** ****** ****** ******
      ****** ****** ****** ****** ****** ****** ****** ****** ****** ******

 HEAD WILL BE SAVED ON UNIT   51 AT END OF TIME STEP    1, STRESS PERIOD    1
1
  VOLUMETRIC BUDGET FOR ENTIRE MODEL AT END OF TIME STEP    1, STRESS PERIOD   1
  ------------------------------------------------------------------------------

     CUMULATIVE VOLUMES      L**3       RATES FOR THIS TIME STEP      L**3/T
     ------------------                 ------------------------

           IN:                                      IN:
           ---                                      ---
             STORAGE =    19192067.2590               STORAGE =      208609.4267
       CONSTANT HEAD =   111599751.4023         CONSTANT HEAD =     1213040.7761
               WELLS =           0.0000                 WELLS =           0.0000
            RECHARGE =     1269600.0000              RECHARGE =       13800.0000
      STREAM LEAKAGE =           0.0000        STREAM LEAKAGE =           0.0000

            TOTAL IN =   132061418.6614              TOTAL IN =     1435450.2028

          OUT:                                     OUT:
          ----                                     ----
             STORAGE =           0.0000               STORAGE =           0.0000
       CONSTANT HEAD =           0.0000         CONSTANT HEAD =           0.0000
               WELLS =    13079299.2414                 WELLS =      142166.2961
            RECHARGE =           0.0000              RECHARGE =           0.0000
      STREAM LEAKAGE =   118982121.2027        STREAM LEAKAGE =     1293283.9261

           TOTAL OUT =   132061420.4441             TOTAL OUT =     1435450.2222

            IN - OUT =          -1.7827              IN - OUT =      -1.9377E-02

 PERCENT DISCREPANCY =          -0.00     PERCENT DISCREPANCY =          -0.00






         TIME SUMMARY AT END OF TIME STEP    1 IN STRESS PERIOD    1
                    SECONDS     MINUTES      HOURS       DAYS        YEARS
                    -----------------------------------------------------------
   TIME STEP LENGTH 7.94880E+06 1.32480E+05  2208.0      92.000     0.25188    
 STRESS PERIOD TIME 7.94880E+06 1.32480E+05  2208.0      92.000     0.25188    
         TOTAL TIME 7.94880E+06 1.32480E+05  2208.0      92.000     0.25188    
1
1
                            STRESS PERIOD NO.    2, LENGTH =   91.00000    
                            -----------------------------------------------

                              NUMBER OF TIME STEPS =     1

                               MULTIPLIER FOR DELT =     1.500

                            INITIAL TIME STEP SIZE =   91.00000    

 WELL NO.  LAYER   ROW   COL   STRESS RATE         
 --------------------------------------------------
      1      1     22      9     -0.3717E+05
      2      1     24     11     -0.5000E+05
      3      1     24     23     -0.5500E+05

      3 WELLS

                 RECHARGE =  2.000000E-03

 REUSING STREAM SEGMENT DATA FROM LAST STRESS PERIOD
 
 SOLVING FOR HEAD 


     6 CALLS TO PCG ROUTINE FOR TIME STEP   1 IN STRESS PERIOD    2
    24 TOTAL ITERATIONS

 OUTPUT CONTROL FOR STRESS PERIOD    2   TIME STEP    1
    SAVE BUDGET
    SAVE HEAD FOR ALL LAYERS
    PRINT HEAD FOR ALL LAYERS
 UBDSV2 SAVING "STREAMFLOW OUT  " ON UNIT  50 AT TIME STEP  1, STRESS PERIOD   2



 STREAM LISTING     PERIOD      2   STEP        1

 LAYER ROW COL. STREAM  RCH.  FLOW INTO     FLOW TO   FLOW OUT OF   OVRLND.     DIRECT     STREAM       STREAM     STREAM     STREAM   STREAMBED  STREAMBED
                SEG.NO.  NO.  STRM. RCH.    AQUIFER    STRM. RCH.    RUNOFF     PRECIP       ET          HEAD       DEPTH      WIDTH   CONDCTNC.   GRADIENT

   1   13    1     1     1    1.0000E+05 -2.8335E+04   1.2833E+05  0.000E+00  0.000E+00  0.000E+00  4.84180E+01  1.566E-01  2.000E+01  2.000E+04 -1.417E+00
   1   13    2     1     2    1.2833E+05 -3.8230E+04   1.6656E+05  0.000E+00  0.000E+00  0.000E+00  4.79667E+01  1.826E-01  2.000E+01  2.000E+04 -1.911E+00
   1   14    3     1     3    1.6656E+05 -3.3474E+04   2.0004E+05  0.000E+00  0.000E+00  0.000E+00  4.75149E+01  2.081E-01  2.000E+01  2.000E+04 -1.674E+00
   1   15    4     1     4    2.0004E+05 -3.2410E+04   2.3245E+05  0.000E+00  0.000E+00  0.000E+00  4.70593E+01  2.298E-01  2.000E+01  2.000E+04 -1.621E+00
   1   16    5     1     5    2.3245E+05 -3.3313E+04   2.6576E+05  0.000E+00  0.000E+00  0.000E+00  4.66024E+01  2.501E-01  2.000E+01  2.000E+04 -1.666E+00
   1   16    6     1     6    2.6576E+05 -2.8997E+04   2.9476E+05  0.000E+00  0.000E+00  0.000E+00  4.61434E+01  2.684E-01  2.000E+01  2.000E+04 -1.450E+00
   1   16    7     1     7    2.9476E+05 -2.8681E+04   3.2344E+05  0.000E+00  0.000E+00  0.000E+00  4.56824E+01  2.847E-01  2.000E+01  2.000E+04 -1.434E+00
   1   16    8     1     8    3.2344E+05 -2.8728E+04   3.5217E+05  0.000E+00  0.000E+00  0.000E+00  4.52207E+01  3.003E-01  2.000E+01  2.000E+04 -1.436E+00
   1   16    9     1     9    3.5217E+05 -2.8726E+04   3.8089E+05  0.000E+00  0.000E+00  0.000E+00  4.47585E+01  3.153E-01  2.000E+01  2.000E+04 -1.436E+00
   1   16   10     1    10    3.8089E+05 -2.8751E+04   4.0965E+05  0.000E+00  0.000E+00  0.000E+00  4.42959E+01  3.300E-01  2.000E+01  2.000E+04 -1.438E+00
   1   16   11     1    11    4.0965E+05 -2.9402E+04   4.3905E+05  0.000E+00  0.000E+00  0.000E+00  4.38330E+01  3.443E-01  2.000E+01  2.000E+04 -1.470E+00
   1   16   12     1    12    4.3905E+05 -3.4872E+04   4.7392E+05  0.000E+00  0.000E+00  0.000E+00  4.33711E+01  3.597E-01  2.000E+01  2.000E+04 -1.744E+00
   1   15   13     1    13    4.7392E+05 -3.4470E+04   5.0839E+05  0.000E+00  0.000E+00  0.000E+00  4.29100E+01  3.759E-01  2.000E+01  2.000E+04 -1.724E+00
   1   14   14     1    14    5.0839E+05 -3.5471E+04   5.4386E+05  0.000E+00  0.000E+00  0.000E+00  4.24485E+01  3.917E-01  2.000E+01  2.000E+04 -1.774E+00
   1   13   15     1    15    5.4386E+05 -3.7927E+04   5.8179E+05  0.000E+00  0.000E+00  0.000E+00  4.19874E+01  4.079E-01  2.000E+01  2.000E+04 -1.896E+00
   1   12   16     1    16    5.8179E+05 -4.4142E+04   6.2593E+05  0.000E+00  0.000E+00  0.000E+00  4.15278E+01  4.255E-01  2.000E+01  2.000E+04 -2.207E+00
   1   12   17     1    17    6.2593E+05 -3.4507E+04   6.6044E+05  0.000E+00  0.000E+00  0.000E+00  4.10669E+01  4.419E-01  2.000E+01  2.000E+04 -1.725E+00
   1   12   18     1    18    6.6044E+05 -3.2864E+04   6.9330E+05  0.000E+00  0.000E+00  0.000E+00  4.06034E+01  4.556E-01  2.000E+01  2.000E+04 -1.643E+00
   1   12   19     1    19    6.9330E+05 -3.7026E+04   7.3033E+05  0.000E+00  0.000E+00  0.000E+00  4.01401E+01  4.696E-01  2.000E+01  2.000E+04 -1.851E+00
   1   13   20     1    20    7.3033E+05 -2.7132E+04   7.5746E+05  0.000E+00  0.000E+00  0.000E+00  3.96754E+01  4.822E-01  2.000E+01  2.000E+04 -1.357E+00
   1   14   21     1    21    7.5746E+05 -1.9820E+04   7.7728E+05  0.000E+00  0.000E+00  0.000E+00  3.92072E+01  4.913E-01  2.000E+01  2.000E+04 -9.910E-01
   1   14   22     1    22    7.7728E+05 -1.8290E+03   7.7911E+05  0.000E+00  0.000E+00  0.000E+00  3.87341E+01  4.954E-01  2.000E+01  2.000E+04 -9.145E-02
   1    9   30     2     1    5.0000E+04 -2.7010E+04   7.7010E+04  0.000E+00  0.000E+00  0.000E+00  4.02587E+01  1.337E-01  2.000E+01  2.000E+04 -1.350E+00
   1    9   29     2     2    7.7010E+04 -2.9479E+04   1.0649E+05  0.000E+00  0.000E+00  0.000E+00  4.00418E+01  1.668E-01  2.000E+01  2.000E+04 -1.474E+00
   1    9   28     2     3    1.0649E+05 -3.3788E+04   1.4028E+05  0.000E+00  0.000E+00  0.000E+00  3.98242E+01  1.992E-01  2.000E+01  2.000E+04 -1.689E+00
   1    9   27     2     4    1.4028E+05 -4.8036E+04   1.8831E+05  0.000E+00  0.000E+00  0.000E+00  3.96116E+01  2.366E-01  2.000E+01  2.000E+04 -2.402E+00
   1   10   26     2     5    1.8831E+05 -3.4033E+04   2.2235E+05  0.000E+00  0.000E+00  0.000E+00  3.93954E+01  2.704E-01  2.000E+01  2.000E+04 -1.702E+00
   1   11   25     2     6    2.2235E+05 -2.5661E+04   2.4801E+05  0.000E+00  0.000E+00  0.000E+00  3.91684E+01  2.934E-01  2.000E+01  2.000E+04 -1.283E+00
   1   12   24     2     7    2.4801E+05 -1.9014E+04   2.6702E+05  0.000E+00  0.000E+00  0.000E+00  3.89348E+01  3.098E-01  2.000E+01  2.000E+04 -9.507E-01
   1   13   23     2     8    2.6702E+05 -1.3522E+04   2.8054E+05  0.000E+00  0.000E+00  0.000E+00  3.86964E+01  3.214E-01  2.000E+01  2.000E+04 -6.761E-01
   1   14   22     2     9    2.8054E+05 -7.4362E+03   2.8798E+05  0.000E+00  0.000E+00  0.000E+00  3.84537E+01  3.287E-01  2.000E+01  2.000E+04 -3.718E-01
   1   14   22     3     1    1.0671E+06 -1.5419E+04   1.0825E+06  0.000E+00  0.000E+00  0.000E+00  3.80545E+01  4.990E-01  2.000E+01  2.000E+04 -7.710E-01
   1   15   23     3     2    1.0825E+06 -2.3591E+04   1.1061E+06  0.000E+00  0.000E+00  0.000E+00  3.71711E+01  5.044E-01  2.000E+01  2.000E+04 -1.180E+00
   1   15   24     3     3    1.1061E+06 -1.9700E+04   1.1258E+06  0.000E+00  0.000E+00  0.000E+00  3.62881E+01  5.104E-01  2.000E+01  2.000E+04 -9.850E-01
   1   15   25     3     4    1.1258E+06 -1.9376E+04   1.1452E+06  0.000E+00  0.000E+00  0.000E+00  3.54046E+01  5.157E-01  2.000E+01  2.000E+04 -9.688E-01
   1   15   26     3     5    1.1452E+06 -2.2270E+04   1.1674E+06  0.000E+00  0.000E+00  0.000E+00  3.45214E+01  5.214E-01  2.000E+01  2.000E+04 -1.114E+00
   1   16   27     3     6    1.1674E+06 -2.9348E+04   1.1968E+06  0.000E+00  0.000E+00  0.000E+00  3.36394E+01  5.283E-01  2.000E+01  2.000E+04 -1.467E+00
   1   17   28     3     7    1.1968E+06 -3.6333E+04   1.2331E+06  0.000E+00  0.000E+00  0.000E+00  3.27593E+01  5.371E-01  2.000E+01  2.000E+04 -1.817E+00
   1   18   29     3     8    1.2331E+06 -4.7229E+04   1.2804E+06  0.000E+00  0.000E+00  0.000E+00  3.18814E+01  5.481E-01  2.000E+01  2.000E+04 -2.361E+00
   1   18   30     3     9    1.2804E+06 -4.3778E+04   1.3241E+06  0.000E+00  0.000E+00  0.000E+00  3.10044E+01  5.599E-01  2.000E+01  2.000E+04 -2.189E+00



1
              HEAD IN LAYER   1 AT END OF TIME STEP   1 IN STRESS PERIOD    2
  ---------------------------------------------------------------------------

          1      2      3      4      5      6      7      8      9     10
         11     12     13     14     15     16     17     18     19     20
         21     22     23     24     25     26     27     28     29     30
 .........................................................................
   1  ****** ****** ****** ****** ****** ****** ****** ****** ****** ******
      ****** ****** ****** ****** ****** ****** ****** ****** ****** ******
      ****** ****** ****** ****** ****** ****** ****** ****** ****** ******
   2  ****** ****** ****** ****** ****** ****** ****** ****** ****** ******
      ****** ****** ****** ****** ****** ****** ****** ****** ****** ******
      ****** ****** ****** ****** ****** ****** ****** ****** ****** ******
   3  ****** ****** ****** ****** ****** ****** ****** ****** ****** ******
      ****** ****** ****** ****** ****** ****** ****** ****** ****** ******
      ****** ****** ****** ****** ****** ****** ****** ****** ****** ******
   4  ****** ****** ****** ****** ****** ****** ****** ****** ****** ******
      ****** ****** ****** ****** ****** ****** ****** ****** ****** ******
      ****** ****** ****** ****** ****** ****** ****** ****** ****** ******
   5  ****** ****** ****** ****** ****** ****** ****** ****** ****** ******
      ****** ****** ****** ****** ****** ****** ****** ****** ****** ******
      ****** ****** ****** ****** ****** ****** ****** ****** ****** ******
   6  ****** ****** ****** ****** ****** ****** ****** ****** ****** ******
      ****** ****** ****** ****** ****** ****** ****** ****** ****** ******
      ****** ****** ****** ****** ****** ****** ****** ****** ****** ******
   7  ****** ****** ****** ****** ****** ****** ****** ****** ****** ******
      ****** ****** ****** ****** ****** ****** ****** ****** ****** ******
      ****** ****** ****** ****** ****** ****** ****** ****** ****** ******
   8  ****** ****** ****** ****** ****** ****** ****** ****** ****** ******
      ****** ****** ****** ****** ****** ****** ****** ****** ****** ******
      ****** ****** ****** ****** ****** ****** ****** ****** ****** ******
   9  ****** ****** ****** ****** ****** ****** ****** ****** ****** ******
      ****** ****** ****** ****** ****** ****** ****** ****** ****** ******
      ****** ****** ****** ****** ****** ****** ****** ****** ****** ******
  10  ****** ****** ****** ****** ****** ****** ****** ****** ****** ******
      ****** ****** ****** ****** ****** ****** ****** ****** ****** ******
      ****** ****** ****** ****** ****** ****** ****** ****** ****** ******
  11  ****** ****** ****** ****** ****** ****** ****** ****** ****** ******
      ****** ****** ****** ****** ****** ****** ****** ****** ****** ******
      ****** ****** ****** ****** ****** ****** ****** ****** ****** ******
  12  ****** ****** ****** ****** ****** ****** ****** ****** ****** ******
      ****** ****** ****** ****** ****** ****** ****** ****** ****** ******
      ****** ****** ****** ****** ****** ****** ****** ****** ****** ******
  13  ****** ****** ****** ****** ****** ****** ****** ****** ****** ******
      ****** ****** ****** ****** ****** ****** ****** ****** ****** ******
      ****** ****** ****** ****** ****** ****** ****** ****** ****** ******
  14  ****** ****** ****** ****** ****** ****** ****** ****** ****** ******
      ****** ****** ****** ****** ****** ****** ****** ****** ****** ******
      ****** ****** ****** ****** ****** ****** ****** ****** ****** ******
  15  ****** ****** ****** ****** ****** ****** ****** ****** ****** ******
      ****** ****** ****** ****** ****** ****** ****** ****** ****** ******
      ****** ****** ****** ****** ****** ****** ****** ****** ****** ******
  16  ****** ****** ****** ****** ****** ****** ****** ****** ****** ******
      ****** ****** ****** ****** ****** ****** ****** ****** ****** ******
      ****** ****** ****** ****** ****** ****** ****** ****** ****** ******
  17  ****** ****** ****** ****** ****** ****** ****** ****** ****** ******
      ****** ****** ****** ****** ****** ****** ****** ****** ****** ******
      ****** ****** ****** ****** ****** ****** ****** ****** ****** ******
  18  ****** ****** ****** ****** ****** ****** ****** ****** ****** ******
      ****** ****** ****** ****** ****** ****** ****** ****** ****** ******
      ****** ****** ****** ****** ****** ****** ****** ****** ****** ******
  19  ****** ****** ****** ****** ****** ****** ****** ****** ****** ******
      ****** ****** ****** ****** ****** ****** ****** ****** ****** ******
      ****** ****** ****** ****** ****** ****** ****** ****** ****** ******
  20  ****** ****** ****** ****** ****** ****** ****** ****** ****** ******
      ****** ****** ****** ****** ****** ****** ****** ****** ****** ******
      ****** ****** ****** ****** ****** ****** ****** ****** ****** ******
  21  ****** ****** ****** ****** ****** ****** ****** ****** ****** ******
      ****** ****** ****** ****** ****** ****** ****** ****** ****** ******
      ****** ****** ****** ****** ****** ****** ****** ****** ****** ******
  22  ****** ****** ****** ****** ****** ****** ****** ****** ****** ******
      ****** ****** ****** ****** ****** ****** ****** ****** ****** ******
      ****** ****** ****** ****** ****** ****** ****** ****** ****** ******
  23  ****** ****** ****** ****** ****** ****** ****** ****** ****** ******
      ****** ****** ****** ****** ****** ****** ****** ****** ****** ******
      ****** ****** ****** ****** ****** ****** ****** ****** ****** ******
  24  ****** ****** ****** ****** ****** ****** ****** ****** ****** ******
      ****** ****** ****** ****** ****** ****** ****** ****** ****** ******
      ****** ****** ****** ****** ****** ****** ****** ****** ****** ******
  25  ****** ****** ****** ****** ****** ****** ****** ****** ****** ******
      ****** ****** ****** ****** ****** ****** ****** ****** ****** ******
      ****** ****** ****** ****** ****** ****** ****** ****** ****** ******

 HEAD WILL BE SAVED ON UNIT   51 AT END OF TIME STEP    1, STRESS PERIOD    2
1
  VOLUMETRIC BUDGET FOR ENTIRE MODEL AT END OF TIME STEP    1, STRESS PERIOD   2
  ------------------------------------------------------------------------------

     CUMULATIVE VOLUMES      L**3       RATES FOR THIS TIME STEP      L**3/T
     ------------------                 ------------------------

           IN:                                      IN:
           ---                                      ---
             STORAGE =    19870200.9716               STORAGE =        7452.0188
       CONSTANT HEAD =   225681358.9347         CONSTANT HEAD =     1253644.0388
               WELLS =           0.0000                 WELLS =           0.0000
            RECHARGE =     6292800.0000              RECHARGE =       55200.0000
      STREAM LEAKAGE =           0.0000        STREAM LEAKAGE =           0.0000

            TOTAL IN =   251844359.9063              TOTAL IN =     1316296.0576

          OUT:                                     OUT:
          ----                                     ----
             STORAGE =           0.0000               STORAGE =           0.0000
       CONSTANT HEAD =           0.0000         CONSTANT HEAD =           0.0000
               WELLS =    26016432.1866                 WELLS =      142166.2961
            RECHARGE =           0.0000              RECHARGE =           0.0000
      STREAM LEAKAGE =   225827935.1980        STREAM LEAKAGE =     1174129.8241

           TOTAL OUT =   251844367.3847             TOTAL OUT =     1316296.1202

            IN - OUT =          -7.4784              IN - OUT =      -6.2590E-02

 PERCENT DISCREPANCY =          -0.00     PERCENT DISCREPANCY =          -0.00






         TIME SUMMARY AT END OF TIME STEP    1 IN STRESS PERIOD    2
                    SECONDS     MINUTES      HOURS       DAYS        YEARS
                    -----------------------------------------------------------
   TIME STEP LENGTH 7.86240E+06 1.31040E+05  2184.0      91.000     0.24914    
 STRESS PERIOD TIME 7.86240E+06 1.31040E+05  2184.0      91.000     0.24914    
         TOTAL TIME 1.58112E+07 2.63520E+05  4392.0      183.00     0.50103    
1
1
                            STRESS PERIOD NO.    3, LENGTH =   91.00000    
                            -----------------------------------------------

                              NUMBER OF TIME STEPS =     1

                               MULTIPLIER FOR DELT =     1.500

                            INITIAL TIME STEP SIZE =   91.00000    

 WELL NO.  LAYER   ROW   COL   STRESS RATE         
 --------------------------------------------------
      1      1     22      9     -0.3717E+05
      2      1     24     11     -0.5000E+05
      3      1     24     23     -0.5500E+05

      3 WELLS

                 RECHARGE =   0.00000    

 REUSING STREAM SEGMENT DATA FROM LAST STRESS PERIOD
 
 SOLVING FOR HEAD 


     6 CALLS TO PCG ROUTINE FOR TIME STEP   1 IN STRESS PERIOD    3
    23 TOTAL ITERATIONS

 OUTPUT CONTROL FOR STRESS PERIOD    3   TIME STEP    1
    SAVE BUDGET
    SAVE HEAD FOR ALL LAYERS
    PRINT HEAD FOR ALL LAYERS
 UBDSV2 SAVING "STREAMFLOW OUT  " ON UNIT  50 AT TIME STEP  1, STRESS PERIOD   3



 STREAM LISTING     PERIOD      3   STEP        1

 LAYER ROW COL. STREAM  RCH.  FLOW INTO     FLOW TO   FLOW OUT OF   OVRLND.     DIRECT     STREAM       STREAM     STREAM     STREAM   STREAMBED  STREAMBED
                SEG.NO.  NO.  STRM. RCH.    AQUIFER    STRM. RCH.    RUNOFF     PRECIP       ET          HEAD       DEPTH      WIDTH   CONDCTNC.   GRADIENT

   1   13    1     1     1    1.0000E+05 -2.7302E+04   1.2730E+05  0.000E+00  0.000E+00  0.000E+00  4.84176E+01  1.562E-01  2.000E+01  2.000E+04 -1.365E+00
   1   13    2     1     2    1.2730E+05 -3.6988E+04   1.6429E+05  0.000E+00  0.000E+00  0.000E+00  4.79655E+01  1.814E-01  2.000E+01  2.000E+04 -1.849E+00
   1   14    3     1     3    1.6429E+05 -3.2273E+04   1.9656E+05  0.000E+00  0.000E+00  0.000E+00  4.75129E+01  2.061E-01  2.000E+01  2.000E+04 -1.614E+00
   1   15    4     1     4    1.9656E+05 -3.1265E+04   2.2783E+05  0.000E+00  0.000E+00  0.000E+00  4.70567E+01  2.272E-01  2.000E+01  2.000E+04 -1.563E+00
   1   16    5     1     5    2.2783E+05 -3.2290E+04   2.6012E+05  0.000E+00  0.000E+00  0.000E+00  4.65993E+01  2.470E-01  2.000E+01  2.000E+04 -1.615E+00
   1   16    6     1     6    2.6012E+05 -2.8105E+04   2.8822E+05  0.000E+00  0.000E+00  0.000E+00  4.61399E+01  2.649E-01  2.000E+01  2.000E+04 -1.405E+00
   1   16    7     1     7    2.8822E+05 -2.7795E+04   3.1602E+05  0.000E+00  0.000E+00  0.000E+00  4.56786E+01  2.808E-01  2.000E+01  2.000E+04 -1.390E+00
   1   16    8     1     8    3.1602E+05 -2.7838E+04   3.4386E+05  0.000E+00  0.000E+00  0.000E+00  4.52165E+01  2.961E-01  2.000E+01  2.000E+04 -1.392E+00
   1   16    9     1     9    3.4386E+05 -2.7836E+04   3.7169E+05  0.000E+00  0.000E+00  0.000E+00  4.47540E+01  3.108E-01  2.000E+01  2.000E+04 -1.392E+00
   1   16   10     1    10    3.7169E+05 -2.7864E+04   3.9956E+05  0.000E+00  0.000E+00  0.000E+00  4.42910E+01  3.251E-01  2.000E+01  2.000E+04 -1.393E+00
   1   16   11     1    11    3.9956E+05 -2.8504E+04   4.2806E+05  0.000E+00  0.000E+00  0.000E+00  4.38278E+01  3.392E-01  2.000E+01  2.000E+04 -1.425E+00
   1   16   12     1    12    4.2806E+05 -3.3826E+04   4.6189E+05  0.000E+00  0.000E+00  0.000E+00  4.33656E+01  3.543E-01  2.000E+01  2.000E+04 -1.691E+00
   1   15   13     1    13    4.6189E+05 -3.3305E+04   4.9519E+05  0.000E+00  0.000E+00  0.000E+00  4.29042E+01  3.701E-01  2.000E+01  2.000E+04 -1.665E+00
   1   14   14     1    14    4.9519E+05 -3.4262E+04   5.2945E+05  0.000E+00  0.000E+00  0.000E+00  4.24423E+01  3.855E-01  2.000E+01  2.000E+04 -1.713E+00
   1   13   15     1    15    5.2945E+05 -3.6726E+04   5.6618E+05  0.000E+00  0.000E+00  0.000E+00  4.19809E+01  4.013E-01  2.000E+01  2.000E+04 -1.836E+00
   1   12   16     1    16    5.6618E+05 -4.2979E+04   6.0916E+05  0.000E+00  0.000E+00  0.000E+00  4.15209E+01  4.186E-01  2.000E+01  2.000E+04 -2.149E+00
   1   12   17     1    17    6.0916E+05 -3.3580E+04   6.4274E+05  0.000E+00  0.000E+00  0.000E+00  4.10598E+01  4.348E-01  2.000E+01  2.000E+04 -1.679E+00
   1   12   18     1    18    6.4274E+05 -3.1984E+04   6.7472E+05  0.000E+00  0.000E+00  0.000E+00  4.05960E+01  4.483E-01  2.000E+01  2.000E+04 -1.599E+00
   1   12   19     1    19    6.7472E+05 -3.6069E+04   7.1079E+05  0.000E+00  0.000E+00  0.000E+00  4.01325E+01  4.620E-01  2.000E+01  2.000E+04 -1.803E+00
   1   13   20     1    20    7.1079E+05 -2.6245E+04   7.3704E+05  0.000E+00  0.000E+00  0.000E+00  3.96676E+01  4.744E-01  2.000E+01  2.000E+04 -1.312E+00
   1   14   21     1    21    7.3704E+05 -1.9058E+04   7.5610E+05  0.000E+00  0.000E+00  0.000E+00  3.91992E+01  4.832E-01  2.000E+01  2.000E+04 -9.529E-01
   1   14   22     1    22    7.5610E+05 -1.5671E+03   7.5766E+05  0.000E+00  0.000E+00  0.000E+00  3.87259E+01  4.872E-01  2.000E+01  2.000E+04 -7.835E-02
   1    9   30     2     1    5.0000E+04 -2.6342E+04   7.6342E+04  0.000E+00  0.000E+00  0.000E+00  4.02583E+01  1.333E-01  2.000E+01  2.000E+04 -1.317E+00
   1    9   29     2     2    7.6342E+04 -2.8811E+04   1.0515E+05  0.000E+00  0.000E+00  0.000E+00  4.00407E+01  1.657E-01  2.000E+01  2.000E+04 -1.441E+00
   1    9   28     2     3    1.0515E+05 -3.3096E+04   1.3825E+05  0.000E+00  0.000E+00  0.000E+00  3.98226E+01  1.976E-01  2.000E+01  2.000E+04 -1.655E+00
   1    9   27     2     4    1.3825E+05 -4.7183E+04   1.8543E+05  0.000E+00  0.000E+00  0.000E+00  3.96094E+01  2.344E-01  2.000E+01  2.000E+04 -2.359E+00
   1   10   26     2     5    1.8543E+05 -3.3143E+04   2.1857E+05  0.000E+00  0.000E+00  0.000E+00  3.93928E+01  2.678E-01  2.000E+01  2.000E+04 -1.657E+00
   1   11   25     2     6    2.1857E+05 -2.4802E+04   2.4338E+05  0.000E+00  0.000E+00  0.000E+00  3.91652E+01  2.902E-01  2.000E+01  2.000E+04 -1.240E+00
   1   12   24     2     7    2.4338E+05 -1.8248E+04   2.6163E+05  0.000E+00  0.000E+00  0.000E+00  3.89311E+01  3.061E-01  2.000E+01  2.000E+04 -9.124E-01
   1   13   23     2     8    2.6163E+05 -1.2902E+04   2.7453E+05  0.000E+00  0.000E+00  0.000E+00  3.86923E+01  3.173E-01  2.000E+01  2.000E+04 -6.451E-01
   1   14   22     2     9    2.7453E+05 -7.0967E+03   2.8162E+05  0.000E+00  0.000E+00  0.000E+00  3.84494E+01  3.244E-01  2.000E+01  2.000E+04 -3.548E-01
   1   14   22     3     1    1.0393E+06 -1.5150E+04   1.0544E+06  0.000E+00  0.000E+00  0.000E+00  3.80467E+01  4.912E-01  2.000E+01  2.000E+04 -7.575E-01
   1   15   23     3     2    1.0544E+06 -2.2887E+04   1.0773E+06  0.000E+00  0.000E+00  0.000E+00  3.71632E+01  4.965E-01  2.000E+01  2.000E+04 -1.144E+00
   1   15   24     3     3    1.0773E+06 -1.9124E+04   1.0964E+06  0.000E+00  0.000E+00  0.000E+00  3.62801E+01  5.024E-01  2.000E+01  2.000E+04 -9.562E-01
   1   15   25     3     4    1.0964E+06 -1.8806E+04   1.1153E+06  0.000E+00  0.000E+00  0.000E+00  3.53965E+01  5.076E-01  2.000E+01  2.000E+04 -9.403E-01
   1   15   26     3     5    1.1153E+06 -2.1604E+04   1.1369E+06  0.000E+00  0.000E+00  0.000E+00  3.45131E+01  5.131E-01  2.000E+01  2.000E+04 -1.080E+00
   1   16   27     3     6    1.1369E+06 -2.8541E+04   1.1654E+06  0.000E+00  0.000E+00  0.000E+00  3.36311E+01  5.200E-01  2.000E+01  2.000E+04 -1.427E+00
   1   17   28     3     7    1.1654E+06 -3.5508E+04   1.2009E+06  0.000E+00  0.000E+00  0.000E+00  3.27508E+01  5.286E-01  2.000E+01  2.000E+04 -1.775E+00
   1   18   29     3     8    1.2009E+06 -4.6459E+04   1.2474E+06  0.000E+00  0.000E+00  0.000E+00  3.18728E+01  5.395E-01  2.000E+01  2.000E+04 -2.323E+00
   1   18   30     3     9    1.2474E+06 -4.3139E+04   1.2905E+06  0.000E+00  0.000E+00  0.000E+00  3.09957E+01  5.513E-01  2.000E+01  2.000E+04 -2.157E+00



1
              HEAD IN LAYER   1 AT END OF TIME STEP   1 IN STRESS PERIOD    3
  ---------------------------------------------------------------------------

          1      2      3      4      5      6      7      8      9     10
         11     12     13     14     15     16     17     18     19     20
         21     22     23     24     25     26     27     28     29     30
 .........................................................................
   1  ****** ****** ****** ****** ****** ****** ****** ****** ****** ******
      ****** ****** ****** ****** ****** ****** ****** ****** ****** ******
      ****** ****** ****** ****** ****** ****** ****** ****** ****** ******
   2  ****** ****** ****** ****** ****** ****** ****** ****** ****** ******
      ****** ****** ****** ****** ****** ****** ****** ****** ****** ******
      ****** ****** ****** ****** ****** ****** ****** ****** ****** ******
   3  ****** ****** ****** ****** ****** ****** ****** ****** ****** ******
      ****** ****** ****** ****** ****** ****** ****** ****** ****** ******
      ****** ****** ****** ****** ****** ****** ****** ****** ****** ******
   4  ****** ****** ****** ****** ****** ****** ****** ****** ****** ******
      ****** ****** ****** ****** ****** ****** ****** ****** ****** ******
      ****** ****** ****** ****** ****** ****** ****** ****** ****** ******
   5  ****** ****** ****** ****** ****** ****** ****** ****** ****** ******
      ****** ****** ****** ****** ****** ****** ****** ****** ****** ******
      ****** ****** ****** ****** ****** ****** ****** ****** ****** ******
   6  ****** ****** ****** ****** ****** ****** ****** ****** ****** ******
      ****** ****** ****** ****** ****** ****** ****** ****** ****** ******
      ****** ****** ****** ****** ****** ****** ****** ****** ****** ******
   7  ****** ****** ****** ****** ****** ****** ****** ****** ****** ******
      ****** ****** ****** ****** ****** ****** ****** ****** ****** ******
      ****** ****** ****** ****** ****** ****** ****** ****** ****** ******
   8  ****** ****** ****** ****** ****** ****** ****** ****** ****** ******
      ****** ****** ****** ****** ****** ****** ****** ****** ****** ******
      ****** ****** ****** ****** ****** ****** ****** ****** ****** ******
   9  ****** ****** ****** ****** ****** ****** ****** ****** ****** ******
      ****** ****** ****** ****** ****** ****** ****** ****** ****** ******
      ****** ****** ****** ****** ****** ****** ****** ****** ****** ******
  10  ****** ****** ****** ****** ****** ****** ****** ****** ****** ******
      ****** ****** ****** ****** ****** ****** ****** ****** ****** ******
      ****** ****** ****** ****** ****** ****** ****** ****** ****** ******
  11  ****** ****** ****** ****** ****** ****** ****** ****** ****** ******
      ****** ****** ****** ****** ****** ****** ****** ****** ****** ******
      ****** ****** ****** ****** ****** ****** ****** ****** ****** ******
  12  ****** ****** ****** ****** ****** ****** ****** ****** ****** ******
      ****** ****** ****** ****** ****** ****** ****** ****** ****** ******
      ****** ****** ****** ****** ****** ****** ****** ****** ****** ******
  13  ****** ****** ****** ****** ****** ****** ****** ****** ****** ******
      ****** ****** ****** ****** ****** ****** ****** ****** ****** ******
      ****** ****** ****** ****** ****** ****** ****** ****** ****** ******
  14  ****** ****** ****** ****** ****** ****** ****** ****** ****** ******
      ****** ****** ****** ****** ****** ****** ****** ****** ****** ******
      ****** ****** ****** ****** ****** ****** ****** ****** ****** ******
  15  ****** ****** ****** ****** ****** ****** ****** ****** ****** ******
      ****** ****** ****** ****** ****** ****** ****** ****** ****** ******
      ****** ****** ****** ****** ****** ****** ****** ****** ****** ******
  16  ****** ****** ****** ****** ****** ****** ****** ****** ****** ******
      ****** ****** ****** ****** ****** ****** ****** ****** ****** ******
      ****** ****** ****** ****** ****** ****** ****** ****** ****** ******
  17  ****** ****** ****** ****** ****** ****** ****** ****** ****** ******
      ****** ****** ****** ****** ****** ****** ****** ****** ****** ******
      ****** ****** ****** ****** ****** ****** ****** ****** ****** ******
  18  ****** ****** ****** ****** ****** ****** ****** ****** ****** ******
      ****** ****** ****** ****** ****** ****** ****** ****** ****** ******
      ****** ****** ****** ****** ****** ****** ****** ****** ****** ******
  19  ****** ****** ****** ****** ****** ****** ****** ****** ****** ******
      ****** ****** ****** ****** ****** ****** ****** ****** ****** ******
      ****** ****** ****** ****** ****** ****** ****** ****** ****** ******
  20  ****** ****** ****** ****** ****** ****** ****** ****** ****** ******
      ****** ****** ****** ****** ****** ****** ****** ****** ****** ******
      ****** ****** ****** ****** ****** ****** ****** ****** ****** ******
  21  ****** ****** ****** ****** ****** ****** ****** ****** ****** ******
      ****** ****** ****** ****** ****** ****** ****** ****** ****** ******
      ****** ****** ****** ****** ****** ****** ****** ****** ****** ******
  22  ****** ****** ****** ****** ****** ****** ****** ****** ****** ******
      ****** ****** ****** ****** ****** ****** ****** ****** ****** ******
      ****** ****** ****** ****** ****** ****** ****** ****** ****** ******
  23  ****** ****** ****** ****** ****** ****** ****** ****** ****** ******
      ****** ****** ****** ****** ****** ****** ****** ****** ****** ******
      ****** ****** ****** ****** ****** ****** ****** ****** ****** ******
  24  ****** ****** ****** ****** ****** ****** ****** ****** ****** ******
      ****** ****** ****** ****** ****** ****** ****** ****** ****** ******
      ****** ****** ****** ****** ****** ****** ****** ****** ****** ******
  25  ****** ****** ****** ****** ****** ****** ****** ****** ****** ******
      ****** ****** ****** ****** ****** ****** ****** ****** ****** ******
      ****** ****** ****** ****** ****** ****** ****** ****** ****** ******

 HEAD WILL BE SAVED ON UNIT   51 AT END OF TIME STEP    1, STRESS PERIOD    3
1
  VOLUMETRIC BUDGET FOR ENTIRE MODEL AT END OF TIME STEP    1, STRESS PERIOD   3
  ------------------------------------------------------------------------------

     CUMULATIVE VOLUMES      L**3       RATES FOR THIS TIME STEP      L**3/T
     ------------------                 ------------------------

           IN:                                      IN:
           ---                                      ---
             STORAGE =    20147773.2283               STORAGE =        3050.2446
       CONSTANT HEAD =   342126849.5210         CONSTANT HEAD =     1279620.7757
               WELLS =           0.0000                 WELLS =           0.0000
            RECHARGE =     6292800.0000              RECHARGE =           0.0000
      STREAM LEAKAGE =           0.0000        STREAM LEAKAGE =           0.0000

            TOTAL IN =   368567422.7493              TOTAL IN =     1282671.0203

          OUT:                                     OUT:
          ----                                     ----
             STORAGE =           0.0000               STORAGE =           0.0000
       CONSTANT HEAD =           0.0000         CONSTANT HEAD =           0.0000
               WELLS =    38953565.1319                 WELLS =      142166.2961
            RECHARGE =           0.0000              RECHARGE =           0.0000
      STREAM LEAKAGE =   329613869.0216        STREAM LEAKAGE =     1140504.7673

           TOTAL OUT =   368567434.1534             TOTAL OUT =     1282671.0634

            IN - OUT =         -11.4041              IN - OUT =      -4.3140E-02

 PERCENT DISCREPANCY =          -0.00     PERCENT DISCREPANCY =          -0.00






         TIME SUMMARY AT END OF TIME STEP    1 IN STRESS PERIOD    3
                    SECONDS     MINUTES      HOURS       DAYS        YEARS
                    -----------------------------------------------------------
   TIME STEP LENGTH 7.86240E+06 1.31040E+05  2184.0      91.000     0.24914    
 STRESS PERIOD TIME 7.86240E+06 1.31040E+05  2184.0      91.000     0.24914    
         TOTAL TIME 2.36736E+07 3.94560E+05  6576.0      274.00     0.75017    
1
1
                            STRESS PERIOD NO.    4, LENGTH =   91.00000    
                            -----------------------------------------------

                              NUMBER OF TIME STEPS =     1

                               MULTIPLIER FOR DELT =     1.500

                            INITIAL TIME STEP SIZE =   91.00000    

 WELL NO.  LAYER   ROW   COL   STRESS RATE         
 --------------------------------------------------
      1      1     22      9     -0.3717E+05
      2      1     24     11     -0.5000E+05
      3      1     24     23     -0.5500E+05

      3 WELLS

                 RECHARGE =  1.000000E-03

 REUSING STREAM SEGMENT DATA FROM LAST STRESS PERIOD
 
 SOLVING FOR HEAD 


     6 CALLS TO PCG ROUTINE FOR TIME STEP   1 IN STRESS PERIOD    4
    22 TOTAL ITERATIONS

 OUTPUT CONTROL FOR STRESS PERIOD    4   TIME STEP    1
    SAVE BUDGET
    SAVE HEAD FOR ALL LAYERS
    PRINT HEAD FOR ALL LAYERS
 UBDSV2 SAVING "STREAMFLOW OUT  " ON UNIT  50 AT TIME STEP  1, STRESS PERIOD   4



 STREAM LISTING     PERIOD      4   STEP        1

 LAYER ROW COL. STREAM  RCH.  FLOW INTO     FLOW TO   FLOW OUT OF   OVRLND.     DIRECT     STREAM       STREAM     STREAM     STREAM   STREAMBED  STREAMBED
                SEG.NO.  NO.  STRM. RCH.    AQUIFER    STRM. RCH.    RUNOFF     PRECIP       ET          HEAD       DEPTH      WIDTH   CONDCTNC.   GRADIENT

   1   13    1     1     1    1.0000E+05 -2.7682E+04   1.2768E+05  0.000E+00  0.000E+00  0.000E+00  4.84177E+01  1.564E-01  2.000E+01  2.000E+04 -1.384E+00
   1   13    2     1     2    1.2768E+05 -3.7439E+04   1.6512E+05  0.000E+00  0.000E+00  0.000E+00  4.79659E+01  1.818E-01  2.000E+01  2.000E+04 -1.872E+00
   1   14    3     1     3    1.6512E+05 -3.2722E+04   1.9784E+05  0.000E+00  0.000E+00  0.000E+00  4.75137E+01  2.068E-01  2.000E+01  2.000E+04 -1.636E+00
   1   15    4     1     4    1.9784E+05 -3.1700E+04   2.2954E+05  0.000E+00  0.000E+00  0.000E+00  4.70577E+01  2.281E-01  2.000E+01  2.000E+04 -1.585E+00
   1   16    5     1     5    2.2954E+05 -3.2687E+04   2.6223E+05  0.000E+00  0.000E+00  0.000E+00  4.66005E+01  2.482E-01  2.000E+01  2.000E+04 -1.634E+00
   1   16    6     1     6    2.6223E+05 -2.8449E+04   2.9068E+05  0.000E+00  0.000E+00  0.000E+00  4.61413E+01  2.663E-01  2.000E+01  2.000E+04 -1.422E+00
   1   16    7     1     7    2.9068E+05 -2.8135E+04   3.1881E+05  0.000E+00  0.000E+00  0.000E+00  4.56800E+01  2.823E-01  2.000E+01  2.000E+04 -1.407E+00
   1   16    8     1     8    3.1881E+05 -2.8178E+04   3.4699E+05  0.000E+00  0.000E+00  0.000E+00  4.52181E+01  2.977E-01  2.000E+01  2.000E+04 -1.409E+00
   1   16    9     1     9    3.4699E+05 -2.8176E+04   3.7517E+05  0.000E+00  0.000E+00  0.000E+00  4.47557E+01  3.125E-01  2.000E+01  2.000E+04 -1.409E+00
   1   16   10     1    10    3.7517E+05 -2.8204E+04   4.0337E+05  0.000E+00  0.000E+00  0.000E+00  4.42929E+01  3.269E-01  2.000E+01  2.000E+04 -1.410E+00
   1   16   11     1    11    4.0337E+05 -2.8849E+04   4.3222E+05  0.000E+00  0.000E+00  0.000E+00  4.38298E+01  3.411E-01  2.000E+01  2.000E+04 -1.442E+00
   1   16   12     1    12    4.3222E+05 -3.4229E+04   4.6645E+05  0.000E+00  0.000E+00  0.000E+00  4.33677E+01  3.563E-01  2.000E+01  2.000E+04 -1.711E+00
   1   15   13     1    13    4.6645E+05 -3.3747E+04   5.0020E+05  0.000E+00  0.000E+00  0.000E+00  4.29064E+01  3.723E-01  2.000E+01  2.000E+04 -1.687E+00
   1   14   14     1    14    5.0020E+05 -3.4716E+04   5.3491E+05  0.000E+00  0.000E+00  0.000E+00  4.24447E+01  3.879E-01  2.000E+01  2.000E+04 -1.736E+00
   1   13   15     1    15    5.3491E+05 -3.7175E+04   5.7209E+05  0.000E+00  0.000E+00  0.000E+00  4.19834E+01  4.038E-01  2.000E+01  2.000E+04 -1.859E+00
   1   12   16     1    16    5.7209E+05 -4.3411E+04   6.1550E+05  0.000E+00  0.000E+00  0.000E+00  4.15235E+01  4.212E-01  2.000E+01  2.000E+04 -2.171E+00
   1   12   17     1    17    6.1550E+05 -3.3931E+04   6.4943E+05  0.000E+00  0.000E+00  0.000E+00  4.10625E+01  4.375E-01  2.000E+01  2.000E+04 -1.697E+00
   1   12   18     1    18    6.4943E+05 -3.2322E+04   6.8175E+05  0.000E+00  0.000E+00  0.000E+00  4.05988E+01  4.511E-01  2.000E+01  2.000E+04 -1.616E+00
   1   12   19     1    19    6.8175E+05 -3.6439E+04   7.1819E+05  0.000E+00  0.000E+00  0.000E+00  4.01354E+01  4.649E-01  2.000E+01  2.000E+04 -1.822E+00
   1   13   20     1    20    7.1819E+05 -2.6595E+04   7.4479E+05  0.000E+00  0.000E+00  0.000E+00  3.96705E+01  4.774E-01  2.000E+01  2.000E+04 -1.330E+00
   1   14   21     1    21    7.4479E+05 -1.9361E+04   7.6415E+05  0.000E+00  0.000E+00  0.000E+00  3.92022E+01  4.863E-01  2.000E+01  2.000E+04 -9.680E-01
   1   14   22     1    22    7.6415E+05 -1.6754E+03   7.6582E+05  0.000E+00  0.000E+00  0.000E+00  3.87290E+01  4.904E-01  2.000E+01  2.000E+04 -8.377E-02
   1    9   30     2     1    5.0000E+04 -2.6620E+04   7.6620E+04  0.000E+00  0.000E+00  0.000E+00  4.02585E+01  1.335E-01  2.000E+01  2.000E+04 -1.331E+00
   1    9   29     2     2    7.6620E+04 -2.9089E+04   1.0571E+05  0.000E+00  0.000E+00  0.000E+00  4.00411E+01  1.661E-01  2.000E+01  2.000E+04 -1.454E+00
   1    9   28     2     3    1.0571E+05 -3.3382E+04   1.3909E+05  0.000E+00  0.000E+00  0.000E+00  3.98233E+01  1.983E-01  2.000E+01  2.000E+04 -1.669E+00
   1    9   27     2     4    1.3909E+05 -4.7531E+04   1.8662E+05  0.000E+00  0.000E+00  0.000E+00  3.96103E+01  2.353E-01  2.000E+01  2.000E+04 -2.377E+00
   1   10   26     2     5    1.8662E+05 -3.3505E+04   2.2013E+05  0.000E+00  0.000E+00  0.000E+00  3.93939E+01  2.689E-01  2.000E+01  2.000E+04 -1.675E+00
   1   11   25     2     6    2.2013E+05 -2.5151E+04   2.4528E+05  0.000E+00  0.000E+00  0.000E+00  3.91665E+01  2.915E-01  2.000E+01  2.000E+04 -1.258E+00
   1   12   24     2     7    2.4528E+05 -1.8560E+04   2.6384E+05  0.000E+00  0.000E+00  0.000E+00  3.89326E+01  3.076E-01  2.000E+01  2.000E+04 -9.280E-01
   1   13   23     2     8    2.6384E+05 -1.3156E+04   2.7699E+05  0.000E+00  0.000E+00  0.000E+00  3.86940E+01  3.190E-01  2.000E+01  2.000E+04 -6.578E-01
   1   14   22     2     9    2.7699E+05 -7.2321E+03   2.8423E+05  0.000E+00  0.000E+00  0.000E+00  3.84512E+01  3.262E-01  2.000E+01  2.000E+04 -3.616E-01
   1   14   22     3     1    1.0500E+06 -1.5260E+04   1.0653E+06  0.000E+00  0.000E+00  0.000E+00  3.80498E+01  4.942E-01  2.000E+01  2.000E+04 -7.630E-01
   1   15   23     3     2    1.0653E+06 -2.3171E+04   1.0885E+06  0.000E+00  0.000E+00  0.000E+00  3.71662E+01  4.996E-01  2.000E+01  2.000E+04 -1.159E+00
   1   15   24     3     3    1.0885E+06 -1.9361E+04   1.1078E+06  0.000E+00  0.000E+00  0.000E+00  3.62833E+01  5.055E-01  2.000E+01  2.000E+04 -9.681E-01
   1   15   25     3     4    1.1078E+06 -1.9043E+04   1.1269E+06  0.000E+00  0.000E+00  0.000E+00  3.53996E+01  5.108E-01  2.000E+01  2.000E+04 -9.521E-01
   1   15   26     3     5    1.1269E+06 -2.1881E+04   1.1488E+06  0.000E+00  0.000E+00  0.000E+00  3.45164E+01  5.164E-01  2.000E+01  2.000E+04 -1.094E+00
   1   16   27     3     6    1.1488E+06 -2.8874E+04   1.1776E+06  0.000E+00  0.000E+00  0.000E+00  3.36343E+01  5.232E-01  2.000E+01  2.000E+04 -1.444E+00
   1   17   28     3     7    1.1776E+06 -3.5848E+04   1.2135E+06  0.000E+00  0.000E+00  0.000E+00  3.27541E+01  5.319E-01  2.000E+01  2.000E+04 -1.792E+00
   1   18   29     3     8    1.2135E+06 -4.6778E+04   1.2603E+06  0.000E+00  0.000E+00  0.000E+00  3.18762E+01  5.429E-01  2.000E+01  2.000E+04 -2.339E+00
   1   18   30     3     9    1.2603E+06 -4.3406E+04   1.3037E+06  0.000E+00  0.000E+00  0.000E+00  3.09991E+01  5.547E-01  2.000E+01  2.000E+04 -2.170E+00



1
              HEAD IN LAYER   1 AT END OF TIME STEP   1 IN STRESS PERIOD    4
  ---------------------------------------------------------------------------

          1      2      3      4      5      6      7      8      9     10
         11     12     13     14     15     16     17     18     19     20
         21     22     23     24     25     26     27     28     29     30
 .........................................................................
   1  ****** ****** ****** ****** ****** ****** ****** ****** ****** ******
      ****** ****** ****** ****** ****** ****** ****** ****** ****** ******
      ****** ****** ****** ****** ****** ****** ****** ****** ****** ******
   2  ****** ****** ****** ****** ****** ****** ****** ****** ****** ******
      ****** ****** ****** ****** ****** ****** ****** ****** ****** ******
      ****** ****** ****** ****** ****** ****** ****** ****** ****** ******
   3  ****** ****** ****** ****** ****** ****** ****** ****** ****** ******
      ****** ****** ****** ****** ****** ****** ****** ****** ****** ******
      ****** ****** ****** ****** ****** ****** ****** ****** ****** ******
   4  ****** ****** ****** ****** ****** ****** ****** ****** ****** ******
      ****** ****** ****** ****** ****** ****** ****** ****** ****** ******
      ****** ****** ****** ****** ****** ****** ****** ****** ****** ******
   5  ****** ****** ****** ****** ****** ****** ****** ****** ****** ******
      ****** ****** ****** ****** ****** ****** ****** ****** ****** ******
      ****** ****** ****** ****** ****** ****** ****** ****** ****** ******
   6  ****** ****** ****** ****** ****** ****** ****** ****** ****** ******
      ****** ****** ****** ****** ****** ****** ****** ****** ****** ******
      ****** ****** ****** ****** ****** ****** ****** ****** ****** ******
   7  ****** ****** ****** ****** ****** ****** ****** ****** ****** ******
      ****** ****** ****** ****** ****** ****** ****** ****** ****** ******
      ****** ****** ****** ****** ****** ****** ****** ****** ****** ******
   8  ****** ****** ****** ****** ****** ****** ****** ****** ****** ******
      ****** ****** ****** ****** ****** ****** ****** ****** ****** ******
      ****** ****** ****** ****** ****** ****** ****** ****** ****** ******
   9  ****** ****** ****** ****** ****** ****** ****** ****** ****** ******
      ****** ****** ****** ****** ****** ****** ****** ****** ****** ******
      ****** ****** ****** ****** ****** ****** ****** ****** ****** ******
  10  ****** ****** ****** ****** ****** ****** ****** ****** ****** ******
      ****** ****** ****** ****** ****** ****** ****** ****** ****** ******
      ****** ****** ****** ****** ****** ****** ****** ****** ****** ******
  11  ****** ****** ****** ****** ****** ****** ****** ****** ****** ******
      ****** ****** ****** ****** ****** ****** ****** ****** ****** ******
      ****** ****** ****** ****** ****** ****** ****** ****** ****** ******
  12  ****** ****** ****** ****** ****** ****** ****** ****** ****** ******
      ****** ****** ****** ****** ****** ****** ****** ****** ****** ******
      ****** ****** ****** ****** ****** ****** ****** ****** ****** ******
  13  ****** ****** ****** ****** ****** ****** ****** ****** ****** ******
      ****** ****** ****** ****** ****** ****** ****** ****** ****** ******
      ****** ****** ****** ****** ****** ****** ****** ****** ****** ******
  14  ****** ****** ****** ****** ****** ****** ****** ****** ****** ******
      ****** ****** ****** ****** ****** ****** ****** ****** ****** ******
      ****** ****** ****** ****** ****** ****** ****** ****** ****** ******
  15  ****** ****** ****** ****** ****** ****** ****** ****** ****** ******
      ****** ****** ****** ****** ****** ****** ****** ****** ****** ******
      ****** ****** ****** ****** ****** ****** ****** ****** ****** ******
  16  ****** ****** ****** ****** ****** ****** ****** ****** ****** ******
      ****** ****** ****** ****** ****** ****** ****** ****** ****** ******
      ****** ****** ****** ****** ****** ****** ****** ****** ****** ******
  17  ****** ****** ****** ****** ****** ****** ****** ****** ****** ******
      ****** ****** ****** ****** ****** ****** ****** ****** ****** ******
      ****** ****** ****** ****** ****** ****** ****** ****** ****** ******
  18  ****** ****** ****** ****** ****** ****** ****** ****** ****** ******
      ****** ****** ****** ****** ****** ****** ****** ****** ****** ******
      ****** ****** ****** ****** ****** ****** ****** ****** ****** ******
  19  ****** ****** ****** ****** ****** ****** ****** ****** ****** ******
      ****** ****** ****** ****** ****** ****** ****** ****** ****** ******
      ****** ****** ****** ****** ****** ****** ****** ****** ****** ******
  20  ****** ****** ****** ****** ****** ****** ****** ****** ****** ******
      ****** ****** ****** ****** ****** ****** ****** ****** ****** ******
      ****** ****** ****** ****** ****** ****** ****** ****** ****** ******
  21  ****** ****** ****** ****** ****** ****** ****** ****** ****** ******
      ****** ****** ****** ****** ****** ****** ****** ****** ****** ******
      ****** ****** ****** ****** ****** ****** ****** ****** ****** ******
  22  ****** ****** ****** ****** ****** ****** ****** ****** ****** ******
      ****** ****** ****** ****** ****** ****** ****** ****** ****** ******
      ****** ****** ****** ****** ****** ****** ****** ****** ****** ******
  23  ****** ****** ****** ****** ****** ****** ****** ****** ****** ******
      ****** ****** ****** ****** ****** ****** ****** ****** ****** ******
      ****** ****** ****** ****** ****** ****** ****** ****** ****** ******
  24  ****** ****** ****** ****** ****** ****** ****** ****** ****** ******
      ****** ****** ****** ****** ****** ****** ****** ****** ****** ******
      ****** ****** ****** ****** ****** ****** ****** ****** ****** ******
  25  ****** ****** ****** ****** ****** ****** ****** ****** ****** ******
      ****** ****** ****** ****** ****** ****** ****** ****** ****** ******
      ****** ****** ****** ****** ****** ****** ****** ****** ****** ******

 HEAD WILL BE SAVED ON UNIT   51 AT END OF TIME STEP    1, STRESS PERIOD    4
1
  VOLUMETRIC BUDGET FOR ENTIRE MODEL AT END OF TIME STEP    1, STRESS PERIOD   4
  ------------------------------------------------------------------------------

     CUMULATIVE VOLUMES      L**3       RATES FOR THIS TIME STEP      L**3/T
     ------------------                 ------------------------

           IN:                                      IN:
           ---                                      ---
             STORAGE =    20147773.2283               STORAGE =           0.0000
       CONSTANT HEAD =   457639703.2898         CONSTANT HEAD =     1269372.0194
               WELLS =           0.0000                 WELLS =           0.0000
            RECHARGE =     8804400.0000              RECHARGE =       27600.0000
      STREAM LEAKAGE =           0.0000        STREAM LEAKAGE =           0.0000

            TOTAL IN =   486591876.5181              TOTAL IN =     1296972.0194

          OUT:                                     OUT:
          ----                                     ----
             STORAGE =      103353.5566               STORAGE =        1135.7534
       CONSTANT HEAD =           0.0000         CONSTANT HEAD =           0.0000
               WELLS =    51890698.0771                 WELLS =      142166.2961
            RECHARGE =           0.0000              RECHARGE =           0.0000
      STREAM LEAKAGE =   434597834.4607        STREAM LEAKAGE =     1153669.9499

           TOTAL OUT =   486591886.0944             TOTAL OUT =     1296971.9994

            IN - OUT =          -9.5763              IN - OUT =       2.0086E-02

 PERCENT DISCREPANCY =          -0.00     PERCENT DISCREPANCY =           0.00






         TIME SUMMARY AT END OF TIME STEP    1 IN STRESS PERIOD    4
                    SECONDS     MINUTES      HOURS       DAYS        YEARS
                    -----------------------------------------------------------
   TIME STEP LENGTH 7.86240E+06 1.31040E+05  2184.0      91.000     0.24914    
 STRESS PERIOD TIME 7.86240E+06 1.31040E+05  2184.0      91.000     0.24914    
         TOTAL TIME 3.15360E+07 5.25600E+05  8760.0      365.00     0.99932    
1
1
                            STRESS PERIOD NO.    5, LENGTH =   92.00000    
                            -----------------------------------------------

                              NUMBER OF TIME STEPS =     1

                               MULTIPLIER FOR DELT =     1.500

                            INITIAL TIME STEP SIZE =   92.00000    

 WELL NO.  LAYER   ROW   COL   STRESS RATE         
 --------------------------------------------------
      1      1     22      9     -0.3717E+05
      2      1     24     11     -0.5000E+05
      3      1     24     23     -0.5500E+05

      3 WELLS

                 RECHARGE =  5.000000E-04

 REUSING STREAM SEGMENT DATA FROM LAST STRESS PERIOD
 
 SOLVING FOR HEAD 


     5 CALLS TO PCG ROUTINE FOR TIME STEP   1 IN STRESS PERIOD    5
    20 TOTAL ITERATIONS

 OUTPUT CONTROL FOR STRESS PERIOD    5   TIME STEP    1
    SAVE BUDGET
    SAVE HEAD FOR ALL LAYERS
    PRINT HEAD FOR ALL LAYERS
 UBDSV2 SAVING "STREAMFLOW OUT  " ON UNIT  50 AT TIME STEP  1, STRESS PERIOD   5



 STREAM LISTING     PERIOD      5   STEP        1

 LAYER ROW COL. STREAM  RCH.  FLOW INTO     FLOW TO   FLOW OUT OF   OVRLND.     DIRECT     STREAM       STREAM     STREAM     STREAM   STREAMBED  STREAMBED
                SEG.NO.  NO.  STRM. RCH.    AQUIFER    STRM. RCH.    RUNOFF     PRECIP       ET          HEAD       DEPTH      WIDTH   CONDCTNC.   GRADIENT

   1   13    1     1     1    1.0000E+05 -2.7483E+04   1.2748E+05  0.000E+00  0.000E+00  0.000E+00  4.84176E+01  1.563E-01  2.000E+01  2.000E+04 -1.374E+00
   1   13    2     1     2    1.2748E+05 -3.7202E+04   1.6468E+05  0.000E+00  0.000E+00  0.000E+00  4.79657E+01  1.816E-01  2.000E+01  2.000E+04 -1.860E+00
   1   14    3     1     3    1.6468E+05 -3.2488E+04   1.9717E+05  0.000E+00  0.000E+00  0.000E+00  4.75133E+01  2.065E-01  2.000E+01  2.000E+04 -1.624E+00
   1   15    4     1     4    1.9717E+05 -3.1474E+04   2.2865E+05  0.000E+00  0.000E+00  0.000E+00  4.70572E+01  2.276E-01  2.000E+01  2.000E+04 -1.574E+00
   1   16    5     1     5    2.2865E+05 -3.2482E+04   2.6113E+05  0.000E+00  0.000E+00  0.000E+00  4.65998E+01  2.476E-01  2.000E+01  2.000E+04 -1.624E+00
   1   16    6     1     6    2.6113E+05 -2.8271E+04   2.8940E+05  0.000E+00  0.000E+00  0.000E+00  4.61406E+01  2.656E-01  2.000E+01  2.000E+04 -1.414E+00
   1   16    7     1     7    2.8940E+05 -2.7959E+04   3.1736E+05  0.000E+00  0.000E+00  0.000E+00  4.56793E+01  2.815E-01  2.000E+01  2.000E+04 -1.398E+00
   1   16    8     1     8    3.1736E+05 -2.8002E+04   3.4536E+05  0.000E+00  0.000E+00  0.000E+00  4.52173E+01  2.968E-01  2.000E+01  2.000E+04 -1.400E+00
   1   16    9     1     9    3.4536E+05 -2.8000E+04   3.7336E+05  0.000E+00  0.000E+00  0.000E+00  4.47548E+01  3.116E-01  2.000E+01  2.000E+04 -1.400E+00
   1   16   10     1    10    3.7336E+05 -2.8028E+04   4.0139E+05  0.000E+00  0.000E+00  0.000E+00  4.42919E+01  3.260E-01  2.000E+01  2.000E+04 -1.401E+00
   1   16   11     1    11    4.0139E+05 -2.8670E+04   4.3006E+05  0.000E+00  0.000E+00  0.000E+00  4.38287E+01  3.401E-01  2.000E+01  2.000E+04 -1.434E+00
   1   16   12     1    12    4.3006E+05 -3.4021E+04   4.6408E+05  0.000E+00  0.000E+00  0.000E+00  4.33666E+01  3.553E-01  2.000E+01  2.000E+04 -1.701E+00
   1   15   13     1    13    4.6408E+05 -3.3518E+04   4.9760E+05  0.000E+00  0.000E+00  0.000E+00  4.29052E+01  3.711E-01  2.000E+01  2.000E+04 -1.676E+00
   1   14   14     1    14    4.9760E+05 -3.4480E+04   5.3208E+05  0.000E+00  0.000E+00  0.000E+00  4.24435E+01  3.867E-01  2.000E+01  2.000E+04 -1.724E+00
   1   13   15     1    15    5.3208E+05 -3.6941E+04   5.6902E+05  0.000E+00  0.000E+00  0.000E+00  4.19821E+01  4.025E-01  2.000E+01  2.000E+04 -1.847E+00
   1   12   16     1    16    5.6902E+05 -4.3186E+04   6.1220E+05  0.000E+00  0.000E+00  0.000E+00  4.15221E+01  4.199E-01  2.000E+01  2.000E+04 -2.159E+00
   1   12   17     1    17    6.1220E+05 -3.3749E+04   6.4595E+05  0.000E+00  0.000E+00  0.000E+00  4.10611E+01  4.361E-01  2.000E+01  2.000E+04 -1.687E+00
   1   12   18     1    18    6.4595E+05 -3.2147E+04   6.7810E+05  0.000E+00  0.000E+00  0.000E+00  4.05974E+01  4.496E-01  2.000E+01  2.000E+04 -1.607E+00
   1   12   19     1    19    6.7810E+05 -3.6248E+04   7.1435E+05  0.000E+00  0.000E+00  0.000E+00  4.01339E+01  4.634E-01  2.000E+01  2.000E+04 -1.812E+00
   1   13   20     1    20    7.1435E+05 -2.6415E+04   7.4076E+05  0.000E+00  0.000E+00  0.000E+00  3.96690E+01  4.758E-01  2.000E+01  2.000E+04 -1.321E+00
   1   14   21     1    21    7.4076E+05 -1.9205E+04   7.5997E+05  0.000E+00  0.000E+00  0.000E+00  3.92006E+01  4.847E-01  2.000E+01  2.000E+04 -9.603E-01
   1   14   22     1    22    7.5997E+05 -1.6202E+03   7.6159E+05  0.000E+00  0.000E+00  0.000E+00  3.87274E+01  4.887E-01  2.000E+01  2.000E+04 -8.101E-02
   1    9   30     2     1    5.0000E+04 -2.6479E+04   7.6479E+04  0.000E+00  0.000E+00  0.000E+00  4.02584E+01  1.334E-01  2.000E+01  2.000E+04 -1.324E+00
   1    9   29     2     2    7.6479E+04 -2.8947E+04   1.0543E+05  0.000E+00  0.000E+00  0.000E+00  4.00409E+01  1.659E-01  2.000E+01  2.000E+04 -1.447E+00
   1    9   28     2     3    1.0543E+05 -3.3237E+04   1.3866E+05  0.000E+00  0.000E+00  0.000E+00  3.98229E+01  1.979E-01  2.000E+01  2.000E+04 -1.662E+00
   1    9   27     2     4    1.3866E+05 -4.7353E+04   1.8602E+05  0.000E+00  0.000E+00  0.000E+00  3.96099E+01  2.349E-01  2.000E+01  2.000E+04 -2.368E+00
   1   10   26     2     5    1.8602E+05 -3.3320E+04   2.1934E+05  0.000E+00  0.000E+00  0.000E+00  3.93933E+01  2.683E-01  2.000E+01  2.000E+04 -1.666E+00
   1   11   25     2     6    2.1934E+05 -2.4973E+04   2.4431E+05  0.000E+00  0.000E+00  0.000E+00  3.91658E+01  2.908E-01  2.000E+01  2.000E+04 -1.249E+00
   1   12   24     2     7    2.4431E+05 -1.8401E+04   2.6271E+05  0.000E+00  0.000E+00  0.000E+00  3.89319E+01  3.069E-01  2.000E+01  2.000E+04 -9.200E-01
   1   13   23     2     8    2.6271E+05 -1.3026E+04   2.7574E+05  0.000E+00  0.000E+00  0.000E+00  3.86932E+01  3.182E-01  2.000E+01  2.000E+04 -6.513E-01
   1   14   22     2     9    2.7574E+05 -7.1626E+03   2.8290E+05  0.000E+00  0.000E+00  0.000E+00  3.84503E+01  3.253E-01  2.000E+01  2.000E+04 -3.581E-01
   1   14   22     3     1    1.0445E+06 -1.5204E+04   1.0597E+06  0.000E+00  0.000E+00  0.000E+00  3.80482E+01  4.926E-01  2.000E+01  2.000E+04 -7.602E-01
   1   15   23     3     2    1.0597E+06 -2.3026E+04   1.0827E+06  0.000E+00  0.000E+00  0.000E+00  3.71647E+01  4.980E-01  2.000E+01  2.000E+04 -1.151E+00
   1   15   24     3     3    1.0827E+06 -1.9241E+04   1.1020E+06  0.000E+00  0.000E+00  0.000E+00  3.62816E+01  5.039E-01  2.000E+01  2.000E+04 -9.620E-01
   1   15   25     3     4    1.1020E+06 -1.8922E+04   1.1209E+06  0.000E+00  0.000E+00  0.000E+00  3.53980E+01  5.091E-01  2.000E+01  2.000E+04 -9.461E-01
   1   15   26     3     5    1.1209E+06 -2.1741E+04   1.1426E+06  0.000E+00  0.000E+00  0.000E+00  3.45147E+01  5.147E-01  2.000E+01  2.000E+04 -1.087E+00
   1   16   27     3     6    1.1426E+06 -2.8705E+04   1.1713E+06  0.000E+00  0.000E+00  0.000E+00  3.36327E+01  5.215E-01  2.000E+01  2.000E+04 -1.435E+00
   1   17   28     3     7    1.1713E+06 -3.5675E+04   1.2070E+06  0.000E+00  0.000E+00  0.000E+00  3.27524E+01  5.302E-01  2.000E+01  2.000E+04 -1.784E+00
   1   18   29     3     8    1.2070E+06 -4.6616E+04   1.2536E+06  0.000E+00  0.000E+00  0.000E+00  3.18745E+01  5.411E-01  2.000E+01  2.000E+04 -2.331E+00
   1   18   30     3     9    1.2536E+06 -4.3270E+04   1.2969E+06  0.000E+00  0.000E+00  0.000E+00  3.09974E+01  5.529E-01  2.000E+01  2.000E+04 -2.164E+00



1
              HEAD IN LAYER   1 AT END OF TIME STEP   1 IN STRESS PERIOD    5
  ---------------------------------------------------------------------------

          1      2      3      4      5      6      7      8      9     10
         11     12     13     14     15     16     17     18     19     20
         21     22     23     24     25     26     27     28     29     30
 .........................................................................
   1  ****** ****** ****** ****** ****** ****** ****** ****** ****** ******
      ****** ****** ****** ****** ****** ****** ****** ****** ****** ******
      ****** ****** ****** ****** ****** ****** ****** ****** ****** ******
   2  ****** ****** ****** ****** ****** ****** ****** ****** ****** ******
      ****** ****** ****** ****** ****** ****** ****** ****** ****** ******
      ****** ****** ****** ****** ****** ****** ****** ****** ****** ******
   3  ****** ****** ****** ****** ****** ****** ****** ****** ****** ******
      ****** ****** ****** ****** ****** ****** ****** ****** ****** ******
      ****** ****** ****** ****** ****** ****** ****** ****** ****** ******
   4  ****** ****** ****** ****** ****** ****** ****** ****** ****** ******
      ****** ****** ****** ****** ****** ****** ****** ****** ****** ******
      ****** ****** ****** ****** ****** ****** ****** ****** ****** ******
   5  ****** ****** ****** ****** ****** ****** ****** ****** ****** ******
      ****** ****** ****** ****** ****** ****** ****** ****** ****** ******
      ****** ****** ****** ****** ****** ****** ****** ****** ****** ******
   6  ****** ****** ****** ****** ****** ****** ****** ****** ****** ******
      ****** ****** ****** ****** ****** ****** ****** ****** ****** ******
      ****** ****** ****** ****** ****** ****** ****** ****** ****** ******
   7  ****** ****** ****** ****** ****** ****** ****** ****** ****** ******
      ****** ****** ****** ****** ****** ****** ****** ****** ****** ******
      ****** ****** ****** ****** ****** ****** ****** ****** ****** ******
   8  ****** ****** ****** ****** ****** ****** ****** ****** ****** ******
      ****** ****** ****** ****** ****** ****** ****** ****** ****** ******
      ****** ****** ****** ****** ****** ****** ****** ****** ****** ******
   9  ****** ****** ****** ****** ****** ****** ****** ****** ****** ******
      ****** ****** ****** ****** ****** ****** ****** ****** ****** ******
      ****** ****** ****** ****** ****** ****** ****** ****** ****** ******
  10  ****** ****** ****** ****** ****** ****** ****** ****** ****** ******
      ****** ****** ****** ****** ****** ****** ****** ****** ****** ******
      ****** ****** ****** ****** ****** ****** ****** ****** ****** ******
  11  ****** ****** ****** ****** ****** ****** ****** ****** ****** ******
      ****** ****** ****** ****** ****** ****** ****** ****** ****** ******
      ****** ****** ****** ****** ****** ****** ****** ****** ****** ******
  12  ****** ****** ****** ****** ****** ****** ****** ****** ****** ******
      ****** ****** ****** ****** ****** ****** ****** ****** ****** ******
      ****** ****** ****** ****** ****** ****** ****** ****** ****** ******
  13  ****** ****** ****** ****** ****** ****** ****** ****** ****** ******
      ****** ****** ****** ****** ****** ****** ****** ****** ****** ******
      ****** ****** ****** ****** ****** ****** ****** ****** ****** ******
  14  ****** ****** ****** ****** ****** ****** ****** ****** ****** ******
      ****** ****** ****** ****** ****** ****** ****** ****** ****** ******
      ****** ****** ****** ****** ****** ****** ****** ****** ****** ******
  15  ****** ****** ****** ****** ****** ****** ****** ****** ****** ******
      ****** ****** ****** ****** ****** ****** ****** ****** ****** ******
      ****** ****** ****** ****** ****** ****** ****** ****** ****** ******
  16  ****** ****** ****** ****** ****** ****** ****** ****** ****** ******
      ****** ****** ****** ****** ****** ****** ****** ****** ****** ******
      ****** ****** ****** ****** ****** ****** ****** ****** ****** ******
  17  ****** ****** ****** ****** ****** ****** ****** ****** ****** ******
      ****** ****** ****** ****** ****** ****** ****** ****** ****** ******
      ****** ****** ****** ****** ****** ****** ****** ****** ****** ******
  18  ****** ****** ****** ****** ****** ****** ****** ****** ****** ******
      ****** ****** ****** ****** ****** ****** ****** ****** ****** ******
      ****** ****** ****** ****** ****** ****** ****** ****** ****** ******
  19  ****** ****** ****** ****** ****** ****** ****** ****** ****** ******
      ****** ****** ****** ****** ****** ****** ****** ****** ****** ******
      ****** ****** ****** ****** ****** ****** ****** ****** ****** ******
  20  ****** ****** ****** ****** ****** ****** ****** ****** ****** ******
      ****** ****** ****** ****** ****** ****** ****** ****** ****** ******
      ****** ****** ****** ****** ****** ****** ****** ****** ****** ******
  21  ****** ****** ****** ****** ****** ****** ****** ****** ****** ******
      ****** ****** ****** ****** ****** ****** ****** ****** ****** ******
      ****** ****** ****** ****** ****** ****** ****** ****** ****** ******
  22  ****** ****** ****** ****** ****** ****** ****** ****** ****** ******
      ****** ****** ****** ****** ****** ****** ****** ****** ****** ******
      ****** ****** ****** ****** ****** ****** ****** ****** ****** ******
  23  ****** ****** ****** ****** ****** ****** ****** ****** ****** ******
      ****** ****** ****** ****** ****** ****** ****** ****** ****** ******
      ****** ****** ****** ****** ****** ****** ****** ****** ****** ******
  24  ****** ****** ****** ****** ****** ****** ****** ****** ****** ******
      ****** ****** ****** ****** ****** ****** ****** ****** ****** ******
      ****** ****** ****** ****** ****** ****** ****** ****** ****** ******
  25  ****** ****** ****** ****** ****** ****** ****** ****** ****** ******
      ****** ****** ****** ****** ****** ****** ****** ****** ****** ******
      ****** ****** ****** ****** ****** ****** ****** ****** ****** ******

 HEAD WILL BE SAVED ON UNIT   51 AT END OF TIME STEP    1, STRESS PERIOD    5
1
  VOLUMETRIC BUDGET FOR ENTIRE MODEL AT END OF TIME STEP    1, STRESS PERIOD   5
  ------------------------------------------------------------------------------

     CUMULATIVE VOLUMES      L**3       RATES FOR THIS TIME STEP      L**3/T
     ------------------                 ------------------------

           IN:                                      IN:
           ---                                      ---
             STORAGE =    20201681.1745               STORAGE =         585.9559
       CONSTANT HEAD =   574909068.4509         CONSTANT HEAD =     1274667.0126
               WELLS =           0.0000                 WELLS =           0.0000
            RECHARGE =    10074000.0000              RECHARGE =       13800.0000
      STREAM LEAKAGE =           0.0000        STREAM LEAKAGE =           0.0000

            TOTAL IN =   605184749.6253              TOTAL IN =     1289052.9686

          OUT:                                     OUT:
          ----                                     ----
             STORAGE =      103353.5566               STORAGE =           0.0000
       CONSTANT HEAD =           0.0000         CONSTANT HEAD =           0.0000
               WELLS =    64969997.3185                 WELLS =      142166.2961
            RECHARGE =           0.0000              RECHARGE =           0.0000
      STREAM LEAKAGE =   540111410.1559        STREAM LEAKAGE =     1146886.6923

           TOTAL OUT =   605184761.0309             TOTAL OUT =     1289052.9884

            IN - OUT =         -11.4056              IN - OUT =      -1.9883E-02

 PERCENT DISCREPANCY =          -0.00     PERCENT DISCREPANCY =          -0.00






         TIME SUMMARY AT END OF TIME STEP    1 IN STRESS PERIOD    5
                    SECONDS     MINUTES      HOURS       DAYS        YEARS
                    -----------------------------------------------------------
   TIME STEP LENGTH 7.94880E+06 1.32480E+05  2208.0      92.000     0.25188    
 STRESS PERIOD TIME 7.94880E+06 1.32480E+05  2208.0      92.000     0.25188    
         TOTAL TIME 3.94848E+07 6.58080E+05  10968.      457.00      1.2512    
1
1
                            STRESS PERIOD NO.    6, LENGTH =   91.00000    
                            -----------------------------------------------

                              NUMBER OF TIME STEPS =     1

                               MULTIPLIER FOR DELT =     1.500

                            INITIAL TIME STEP SIZE =   91.00000    

 WELL NO.  LAYER   ROW   COL   STRESS RATE         
 --------------------------------------------------
      1      1     22      9     -0.3717E+05
      2      1     24     11     -0.5000E+05
      3      1     24     23     -0.5500E+05

      3 WELLS

                 RECHARGE =  2.000000E-03

 REUSING STREAM SEGMENT DATA FROM LAST STRESS PERIOD
 
 SOLVING FOR HEAD 


     6 CALLS TO PCG ROUTINE FOR TIME STEP   1 IN STRESS PERIOD    6
    22 TOTAL ITERATIONS

 OUTPUT CONTROL FOR STRESS PERIOD    6   TIME STEP    1
    SAVE BUDGET
    SAVE HEAD FOR ALL LAYERS
    PRINT HEAD FOR ALL LAYERS
 UBDSV2 SAVING "STREAMFLOW OUT  " ON UNIT  50 AT TIME STEP  1, STRESS PERIOD   6



 STREAM LISTING     PERIOD      6   STEP        1

 LAYER ROW COL. STREAM  RCH.  FLOW INTO     FLOW TO   FLOW OUT OF   OVRLND.     DIRECT     STREAM       STREAM     STREAM     STREAM   STREAMBED  STREAMBED
                SEG.NO.  NO.  STRM. RCH.    AQUIFER    STRM. RCH.    RUNOFF     PRECIP       ET          HEAD       DEPTH      WIDTH   CONDCTNC.   GRADIENT

   1   13    1     1     1    1.0000E+05 -2.8135E+04   1.2814E+05  0.000E+00  0.000E+00  0.000E+00  4.84179E+01  1.565E-01  2.000E+01  2.000E+04 -1.407E+00
   1   13    2     1     2    1.2814E+05 -3.7981E+04   1.6612E+05  0.000E+00  0.000E+00  0.000E+00  4.79665E+01  1.824E-01  2.000E+01  2.000E+04 -1.899E+00
   1   14    3     1     3    1.6612E+05 -3.3250E+04   1.9937E+05  0.000E+00  0.000E+00  0.000E+00  4.75145E+01  2.077E-01  2.000E+01  2.000E+04 -1.662E+00
   1   15    4     1     4    1.9937E+05 -3.2206E+04   2.3157E+05  0.000E+00  0.000E+00  0.000E+00  4.70588E+01  2.293E-01  2.000E+01  2.000E+04 -1.610E+00
   1   16    5     1     5    2.3157E+05 -3.3143E+04   2.6472E+05  0.000E+00  0.000E+00  0.000E+00  4.66018E+01  2.495E-01  2.000E+01  2.000E+04 -1.657E+00
   1   16    6     1     6    2.6472E+05 -2.8846E+04   2.9356E+05  0.000E+00  0.000E+00  0.000E+00  4.61428E+01  2.678E-01  2.000E+01  2.000E+04 -1.442E+00
   1   16    7     1     7    2.9356E+05 -2.8528E+04   3.2209E+05  0.000E+00  0.000E+00  0.000E+00  4.56817E+01  2.840E-01  2.000E+01  2.000E+04 -1.426E+00
   1   16    8     1     8    3.2209E+05 -2.8573E+04   3.5066E+05  0.000E+00  0.000E+00  0.000E+00  4.52200E+01  2.995E-01  2.000E+01  2.000E+04 -1.429E+00
   1   16    9     1     9    3.5066E+05 -2.8571E+04   3.7923E+05  0.000E+00  0.000E+00  0.000E+00  4.47577E+01  3.145E-01  2.000E+01  2.000E+04 -1.429E+00
   1   16   10     1    10    3.7923E+05 -2.8597E+04   4.0783E+05  0.000E+00  0.000E+00  0.000E+00  4.42950E+01  3.291E-01  2.000E+01  2.000E+04 -1.430E+00
   1   16   11     1    11    4.0783E+05 -2.9247E+04   4.3708E+05  0.000E+00  0.000E+00  0.000E+00  4.38320E+01  3.434E-01  2.000E+01  2.000E+04 -1.462E+00
   1   16   12     1    12    4.3708E+05 -3.4693E+04   4.7177E+05  0.000E+00  0.000E+00  0.000E+00  4.33701E+01  3.588E-01  2.000E+01  2.000E+04 -1.735E+00
   1   15   13     1    13    4.7177E+05 -3.4260E+04   5.0603E+05  0.000E+00  0.000E+00  0.000E+00  4.29089E+01  3.748E-01  2.000E+01  2.000E+04 -1.713E+00
   1   14   14     1    14    5.0603E+05 -3.5246E+04   5.4127E+05  0.000E+00  0.000E+00  0.000E+00  4.24474E+01  3.906E-01  2.000E+01  2.000E+04 -1.762E+00
   1   13   15     1    15    5.4127E+05 -3.7702E+04   5.7898E+05  0.000E+00  0.000E+00  0.000E+00  4.19863E+01  4.067E-01  2.000E+01  2.000E+04 -1.885E+00
   1   12   16     1    16    5.7898E+05 -4.3920E+04   6.2290E+05  0.000E+00  0.000E+00  0.000E+00  4.15265E+01  4.242E-01  2.000E+01  2.000E+04 -2.196E+00
   1   12   17     1    17    6.2290E+05 -3.4340E+04   6.5724E+05  0.000E+00  0.000E+00  0.000E+00  4.10656E+01  4.406E-01  2.000E+01  2.000E+04 -1.717E+00
   1   12   18     1    18    6.5724E+05 -3.2712E+04   6.8995E+05  0.000E+00  0.000E+00  0.000E+00  4.06020E+01  4.543E-01  2.000E+01  2.000E+04 -1.636E+00
   1   12   19     1    19    6.8995E+05 -3.6864E+04   7.2681E+05  0.000E+00  0.000E+00  0.000E+00  4.01387E+01  4.683E-01  2.000E+01  2.000E+04 -1.843E+00
   1   13   20     1    20    7.2681E+05 -2.6992E+04   7.5380E+05  0.000E+00  0.000E+00  0.000E+00  3.96740E+01  4.808E-01  2.000E+01  2.000E+04 -1.350E+00
   1   14   21     1    21    7.5380E+05 -1.9702E+04   7.7351E+05  0.000E+00  0.000E+00  0.000E+00  3.92058E+01  4.898E-01  2.000E+01  2.000E+04 -9.851E-01
   1   14   22     1    22    7.7351E+05 -1.7944E+03   7.7530E+05  0.000E+00  0.000E+00  0.000E+00  3.87326E+01  4.940E-01  2.000E+01  2.000E+04 -8.972E-02
   1    9   30     2     1    5.0000E+04 -2.6924E+04   7.6924E+04  0.000E+00  0.000E+00  0.000E+00  4.02587E+01  1.337E-01  2.000E+01  2.000E+04 -1.346E+00
   1    9   29     2     2    7.6924E+04 -2.9393E+04   1.0632E+05  0.000E+00  0.000E+00  0.000E+00  4.00416E+01  1.666E-01  2.000E+01  2.000E+04 -1.470E+00
   1    9   28     2     3    1.0632E+05 -3.3697E+04   1.4001E+05  0.000E+00  0.000E+00  0.000E+00  3.98240E+01  1.990E-01  2.000E+01  2.000E+04 -1.685E+00
   1    9   27     2     4    1.4001E+05 -4.7918E+04   1.8793E+05  0.000E+00  0.000E+00  0.000E+00  3.96113E+01  2.363E-01  2.000E+01  2.000E+04 -2.396E+00
   1   10   26     2     5    1.8793E+05 -3.3906E+04   2.2184E+05  0.000E+00  0.000E+00  0.000E+00  3.93951E+01  2.701E-01  2.000E+01  2.000E+04 -1.695E+00
   1   11   25     2     6    2.2184E+05 -2.5538E+04   2.4738E+05  0.000E+00  0.000E+00  0.000E+00  3.91679E+01  2.929E-01  2.000E+01  2.000E+04 -1.277E+00
   1   12   24     2     7    2.4738E+05 -1.8906E+04   2.6628E+05  0.000E+00  0.000E+00  0.000E+00  3.89343E+01  3.093E-01  2.000E+01  2.000E+04 -9.453E-01
   1   13   23     2     8    2.6628E+05 -1.3437E+04   2.7972E+05  0.000E+00  0.000E+00  0.000E+00  3.86958E+01  3.208E-01  2.000E+01  2.000E+04 -6.718E-01
   1   14   22     2     9    2.7972E+05 -7.3844E+03   2.8710E+05  0.000E+00  0.000E+00  0.000E+00  3.84531E+01  3.281E-01  2.000E+01  2.000E+04 -3.692E-01
   1   14   22     3     1    1.0624E+06 -1.5382E+04   1.0778E+06  0.000E+00  0.000E+00  0.000E+00  3.80532E+01  4.977E-01  2.000E+01  2.000E+04 -7.691E-01
   1   15   23     3     2    1.0778E+06 -2.3487E+04   1.1013E+06  0.000E+00  0.000E+00  0.000E+00  3.71698E+01  5.031E-01  2.000E+01  2.000E+04 -1.174E+00
   1   15   24     3     3    1.1013E+06 -1.9622E+04   1.1209E+06  0.000E+00  0.000E+00  0.000E+00  3.62868E+01  5.090E-01  2.000E+01  2.000E+04 -9.811E-01
   1   15   25     3     4    1.1209E+06 -1.9301E+04   1.1402E+06  0.000E+00  0.000E+00  0.000E+00  3.54033E+01  5.144E-01  2.000E+01  2.000E+04 -9.651E-01
   1   15   26     3     5    1.1402E+06 -2.2181E+04   1.1624E+06  0.000E+00  0.000E+00  0.000E+00  3.45200E+01  5.200E-01  2.000E+01  2.000E+04 -1.109E+00
   1   16   27     3     6    1.1624E+06 -2.9237E+04   1.1916E+06  0.000E+00  0.000E+00  0.000E+00  3.36381E+01  5.269E-01  2.000E+01  2.000E+04 -1.462E+00
   1   17   28     3     7    1.1916E+06 -3.6221E+04   1.2278E+06  0.000E+00  0.000E+00  0.000E+00  3.27579E+01  5.357E-01  2.000E+01  2.000E+04 -1.811E+00
   1   18   29     3     8    1.2278E+06 -4.7129E+04   1.2750E+06  0.000E+00  0.000E+00  0.000E+00  3.18800E+01  5.467E-01  2.000E+01  2.000E+04 -2.356E+00
   1   18   30     3     9    1.2750E+06 -4.3697E+04   1.3187E+06  0.000E+00  0.000E+00  0.000E+00  3.10029E+01  5.585E-01  2.000E+01  2.000E+04 -2.185E+00



1
              HEAD IN LAYER   1 AT END OF TIME STEP   1 IN STRESS PERIOD    6
  ---------------------------------------------------------------------------

          1      2      3      4      5      6      7      8      9     10
         11     12     13     14     15     16     17     18     19     20
         21     22     23     24     25     26     27     28     29     30
 .........................................................................
   1  ****** ****** ****** ****** ****** ****** ****** ****** ****** ******
      ****** ****** ****** ****** ****** ****** ****** ****** ****** ******
      ****** ****** ****** ****** ****** ****** ****** ****** ****** ******
   2  ****** ****** ****** ****** ****** ****** ****** ****** ****** ******
      ****** ****** ****** ****** ****** ****** ****** ****** ****** ******
      ****** ****** ****** ****** ****** ****** ****** ****** ****** ******
   3  ****** ****** ****** ****** ****** ****** ****** ****** ****** ******
      ****** ****** ****** ****** ****** ****** ****** ****** ****** ******
      ****** ****** ****** ****** ****** ****** ****** ****** ****** ******
   4  ****** ****** ****** ****** ****** ****** ****** ****** ****** ******
      ****** ****** ****** ****** ****** ****** ****** ****** ****** ******
      ****** ****** ****** ****** ****** ****** ****** ****** ****** ******
   5  ****** ****** ****** ****** ****** ****** ****** ****** ****** ******
      ****** ****** ****** ****** ****** ****** ****** ****** ****** ******
      ****** ****** ****** ****** ****** ****** ****** ****** ****** ******
   6  ****** ****** ****** ****** ****** ****** ****** ****** ****** ******
      ****** ****** ****** ****** ****** ****** ****** ****** ****** ******
      ****** ****** ****** ****** ****** ****** ****** ****** ****** ******
   7  ****** ****** ****** ****** ****** ****** ****** ****** ****** ******
      ****** ****** ****** ****** ****** ****** ****** ****** ****** ******
      ****** ****** ****** ****** ****** ****** ****** ****** ****** ******
   8  ****** ****** ****** ****** ****** ****** ****** ****** ****** ******
      ****** ****** ****** ****** ****** ****** ****** ****** ****** ******
      ****** ****** ****** ****** ****** ****** ****** ****** ****** ******
   9  ****** ****** ****** ****** ****** ****** ****** ****** ****** ******
      ****** ****** ****** ****** ****** ****** ****** ****** ****** ******
      ****** ****** ****** ****** ****** ****** ****** ****** ****** ******
  10  ****** ****** ****** ****** ****** ****** ****** ****** ****** ******
      ****** ****** ****** ****** ****** ****** ****** ****** ****** ******
      ****** ****** ****** ****** ****** ****** ****** ****** ****** ******
  11  ****** ****** ****** ****** ****** ****** ****** ****** ****** ******
      ****** ****** ****** ****** ****** ****** ****** ****** ****** ******
      ****** ****** ****** ****** ****** ****** ****** ****** ****** ******
  12  ****** ****** ****** ****** ****** ****** ****** ****** ****** ******
      ****** ****** ****** ****** ****** ****** ****** ****** ****** ******
      ****** ****** ****** ****** ****** ****** ****** ****** ****** ******
  13  ****** ****** ****** ****** ****** ****** ****** ****** ****** ******
      ****** ****** ****** ****** ****** ****** ****** ****** ****** ******
      ****** ****** ****** ****** ****** ****** ****** ****** ****** ******
  14  ****** ****** ****** ****** ****** ****** ****** ****** ****** ******
      ****** ****** ****** ****** ****** ****** ****** ****** ****** ******
      ****** ****** ****** ****** ****** ****** ****** ****** ****** ******
  15  ****** ****** ****** ****** ****** ****** ****** ****** ****** ******
      ****** ****** ****** ****** ****** ****** ****** ****** ****** ******
      ****** ****** ****** ****** ****** ****** ****** ****** ****** ******
  16  ****** ****** ****** ****** ****** ****** ****** ****** ****** ******
      ****** ****** ****** ****** ****** ****** ****** ****** ****** ******
      ****** ****** ****** ****** ****** ****** ****** ****** ****** ******
  17  ****** ****** ****** ****** ****** ****** ****** ****** ****** ******
      ****** ****** ****** ****** ****** ****** ****** ****** ****** ******
      ****** ****** ****** ****** ****** ****** ****** ****** ****** ******
  18  ****** ****** ****** ****** ****** ****** ****** ****** ****** ******
      ****** ****** ****** ****** ****** ****** ****** ****** ****** ******
      ****** ****** ****** ****** ****** ****** ****** ****** ****** ******
  19  ****** ****** ****** ****** ****** ****** ****** ****** ****** ******
      ****** ****** ****** ****** ****** ****** ****** ****** ****** ******
      ****** ****** ****** ****** ****** ****** ****** ****** ****** ******
  20  ****** ****** ****** ****** ****** ****** ****** ****** ****** ******
      ****** ****** ****** ****** ****** ****** ****** ****** ****** ******
      ****** ****** ****** ****** ****** ****** ****** ****** ****** ******
  21  ****** ****** ****** ****** ****** ****** ****** ****** ****** ******
      ****** ****** ****** ****** ****** ****** ****** ****** ****** ******
      ****** ****** ****** ****** ****** ****** ****** ****** ****** ******
  22  ****** ****** ****** ****** ****** ****** ****** ****** ****** ******
      ****** ****** ****** ****** ****** ****** ****** ****** ****** ******
      ****** ****** ****** ****** ****** ****** ****** ****** ****** ******
  23  ****** ****** ****** ****** ****** ****** ****** ****** ****** ******
      ****** ****** ****** ****** ****** ****** ****** ****** ****** ******
      ****** ****** ****** ****** ****** ****** ****** ****** ****** ******
  24  ****** ****** ****** ****** ****** ****** ****** ****** ****** ******
      ****** ****** ****** ****** ****** ****** ****** ****** ****** ******
      ****** ****** ****** ****** ****** ****** ****** ****** ****** ******
  25  ****** ****** ****** ****** ****** ****** ****** ****** ****** ******
      ****** ****** ****** ****** ****** ****** ****** ****** ****** ******
      ****** ****** ****** ****** ****** ****** ****** ****** ****** ******

 HEAD WILL BE SAVED ON UNIT   51 AT END OF TIME STEP    1, STRESS PERIOD    6
1
  VOLUMETRIC BUDGET FOR ENTIRE MODEL AT END OF TIME STEP    1, STRESS PERIOD   6
  ------------------------------------------------------------------------------

     CUMULATIVE VOLUMES      L**3       RATES FOR THIS TIME STEP      L**3/T
     ------------------                 ------------------------

           IN:                                      IN:
           ---                                      ---
             STORAGE =    20201681.1745               STORAGE =           0.0000
       CONSTANT HEAD =   689347464.1734         CONSTANT HEAD =     1257564.7882
               WELLS =           0.0000                 WELLS =           0.0000
            RECHARGE =    15097200.0000              RECHARGE =       55200.0000
      STREAM LEAKAGE =           0.0000        STREAM LEAKAGE =           0.0000

            TOTAL IN =   724646345.3478              TOTAL IN =     1312764.7882

          OUT:                                     OUT:
          ----                                     ----
             STORAGE =      279709.2424               STORAGE =        1937.9746
       CONSTANT HEAD =           0.0000         CONSTANT HEAD =           0.0000
               WELLS =    77907130.2637                 WELLS =      142166.2961
            RECHARGE =           0.0000              RECHARGE =           0.0000
      STREAM LEAKAGE =   646459514.1955        STREAM LEAKAGE =     1168660.4840

           TOTAL OUT =   724646353.7017             TOTAL OUT =     1312764.7546

            IN - OUT =          -8.3539              IN - OUT =       3.3535E-02

 PERCENT DISCREPANCY =          -0.00     PERCENT DISCREPANCY =           0.00






         TIME SUMMARY AT END OF TIME STEP    1 IN STRESS PERIOD    6
                    SECONDS     MINUTES      HOURS       DAYS        YEARS
                    -----------------------------------------------------------
   TIME STEP LENGTH 7.86240E+06 1.31040E+05  2184.0      91.000     0.24914    
 STRESS PERIOD TIME 7.86240E+06 1.31040E+05  2184.0      91.000     0.24914    
         TOTAL TIME 4.73472E+07 7.89120E+05  13152.      548.00      1.5003    
1
1
                            STRESS PERIOD NO.    7, LENGTH =   91.00000    
                            -----------------------------------------------

                              NUMBER OF TIME STEPS =     1

                               MULTIPLIER FOR DELT =     1.500

                            INITIAL TIME STEP SIZE =   91.00000    

 WELL NO.  LAYER   ROW   COL   STRESS RATE         
 --------------------------------------------------
      1      1     22      9     -0.3717E+05
      2      1     24     11     -0.5000E+05
      3      1     24     23     -0.5000E+05

      3 WELLS

                 RECHARGE =   0.00000    

 REUSING STREAM SEGMENT DATA FROM LAST STRESS PERIOD
 
 SOLVING FOR HEAD 


     6 CALLS TO PCG ROUTINE FOR TIME STEP   1 IN STRESS PERIOD    7
    22 TOTAL ITERATIONS

 OUTPUT CONTROL FOR STRESS PERIOD    7   TIME STEP    1
    SAVE BUDGET
    SAVE HEAD FOR ALL LAYERS
    PRINT HEAD FOR ALL LAYERS
 UBDSV2 SAVING "STREAMFLOW OUT  " ON UNIT  50 AT TIME STEP  1, STRESS PERIOD   7



 STREAM LISTING     PERIOD      7   STEP        1

 LAYER ROW COL. STREAM  RCH.  FLOW INTO     FLOW TO   FLOW OUT OF   OVRLND.     DIRECT     STREAM       STREAM     STREAM     STREAM   STREAMBED  STREAMBED
                SEG.NO.  NO.  STRM. RCH.    AQUIFER    STRM. RCH.    RUNOFF     PRECIP       ET          HEAD       DEPTH      WIDTH   CONDCTNC.   GRADIENT

   1   13    1     1     1    1.0000E+05 -2.7289E+04   1.2729E+05  0.000E+00  0.000E+00  0.000E+00  4.84176E+01  1.562E-01  2.000E+01  2.000E+04 -1.364E+00
   1   13    2     1     2    1.2729E+05 -3.6971E+04   1.6426E+05  0.000E+00  0.000E+00  0.000E+00  4.79654E+01  1.814E-01  2.000E+01  2.000E+04 -1.849E+00
   1   14    3     1     3    1.6426E+05 -3.2259E+04   1.9652E+05  0.000E+00  0.000E+00  0.000E+00  4.75129E+01  2.061E-01  2.000E+01  2.000E+04 -1.613E+00
   1   15    4     1     4    1.9652E+05 -3.1253E+04   2.2777E+05  0.000E+00  0.000E+00  0.000E+00  4.70567E+01  2.271E-01  2.000E+01  2.000E+04 -1.563E+00
   1   16    5     1     5    2.2777E+05 -3.2281E+04   2.6005E+05  0.000E+00  0.000E+00  0.000E+00  4.65993E+01  2.470E-01  2.000E+01  2.000E+04 -1.614E+00
   1   16    6     1     6    2.6005E+05 -2.8097E+04   2.8815E+05  0.000E+00  0.000E+00  0.000E+00  4.61399E+01  2.649E-01  2.000E+01  2.000E+04 -1.405E+00
   1   16    7     1     7    2.8815E+05 -2.7788E+04   3.1594E+05  0.000E+00  0.000E+00  0.000E+00  4.56785E+01  2.808E-01  2.000E+01  2.000E+04 -1.389E+00
   1   16    8     1     8    3.1594E+05 -2.7831E+04   3.4377E+05  0.000E+00  0.000E+00  0.000E+00  4.52165E+01  2.960E-01  2.000E+01  2.000E+04 -1.392E+00
   1   16    9     1     9    3.4377E+05 -2.7830E+04   3.7160E+05  0.000E+00  0.000E+00  0.000E+00  4.47539E+01  3.108E-01  2.000E+01  2.000E+04 -1.391E+00
   1   16   10     1    10    3.7160E+05 -2.7859E+04   3.9946E+05  0.000E+00  0.000E+00  0.000E+00  4.42910E+01  3.251E-01  2.000E+01  2.000E+04 -1.393E+00
   1   16   11     1    11    3.9946E+05 -2.8501E+04   4.2796E+05  0.000E+00  0.000E+00  0.000E+00  4.38277E+01  3.391E-01  2.000E+01  2.000E+04 -1.425E+00
   1   16   12     1    12    4.2796E+05 -3.3828E+04   4.6179E+05  0.000E+00  0.000E+00  0.000E+00  4.33656E+01  3.542E-01  2.000E+01  2.000E+04 -1.691E+00
   1   15   13     1    13    4.6179E+05 -3.3305E+04   4.9509E+05  0.000E+00  0.000E+00  0.000E+00  4.29041E+01  3.700E-01  2.000E+01  2.000E+04 -1.665E+00
   1   14   14     1    14    4.9509E+05 -3.4260E+04   5.2935E+05  0.000E+00  0.000E+00  0.000E+00  4.24423E+01  3.855E-01  2.000E+01  2.000E+04 -1.713E+00
   1   13   15     1    15    5.2935E+05 -3.6722E+04   5.6607E+05  0.000E+00  0.000E+00  0.000E+00  4.19808E+01  4.013E-01  2.000E+01  2.000E+04 -1.836E+00
   1   12   16     1    16    5.6607E+05 -4.2971E+04   6.0904E+05  0.000E+00  0.000E+00  0.000E+00  4.15208E+01  4.186E-01  2.000E+01  2.000E+04 -2.149E+00
   1   12   17     1    17    6.0904E+05 -3.3577E+04   6.4262E+05  0.000E+00  0.000E+00  0.000E+00  4.10597E+01  4.347E-01  2.000E+01  2.000E+04 -1.679E+00
   1   12   18     1    18    6.4262E+05 -3.1983E+04   6.7460E+05  0.000E+00  0.000E+00  0.000E+00  4.05960E+01  4.482E-01  2.000E+01  2.000E+04 -1.599E+00
   1   12   19     1    19    6.7460E+05 -3.6067E+04   7.1067E+05  0.000E+00  0.000E+00  0.000E+00  4.01324E+01  4.620E-01  2.000E+01  2.000E+04 -1.803E+00
   1   13   20     1    20    7.1067E+05 -2.6253E+04   7.3692E+05  0.000E+00  0.000E+00  0.000E+00  3.96675E+01  4.743E-01  2.000E+01  2.000E+04 -1.313E+00
   1   14   21     1    21    7.3692E+05 -1.9078E+04   7.5600E+05  0.000E+00  0.000E+00  0.000E+00  3.91991E+01  4.832E-01  2.000E+01  2.000E+04 -9.539E-01
   1   14   22     1    22    7.5600E+05 -1.5750E+03   7.5758E+05  0.000E+00  0.000E+00  0.000E+00  3.87258E+01  4.872E-01  2.000E+01  2.000E+04 -7.875E-02
   1    9   30     2     1    5.0000E+04 -2.6340E+04   7.6340E+04  0.000E+00  0.000E+00  0.000E+00  4.02583E+01  1.333E-01  2.000E+01  2.000E+04 -1.317E+00
   1    9   29     2     2    7.6340E+04 -2.8808E+04   1.0515E+05  0.000E+00  0.000E+00  0.000E+00  4.00407E+01  1.657E-01  2.000E+01  2.000E+04 -1.440E+00
   1    9   28     2     3    1.0515E+05 -3.3093E+04   1.3824E+05  0.000E+00  0.000E+00  0.000E+00  3.98226E+01  1.976E-01  2.000E+01  2.000E+04 -1.655E+00
   1    9   27     2     4    1.3824E+05 -4.7179E+04   1.8542E+05  0.000E+00  0.000E+00  0.000E+00  3.96094E+01  2.344E-01  2.000E+01  2.000E+04 -2.359E+00
   1   10   26     2     5    1.8542E+05 -3.3140E+04   2.1856E+05  0.000E+00  0.000E+00  0.000E+00  3.93928E+01  2.678E-01  2.000E+01  2.000E+04 -1.657E+00
   1   11   25     2     6    2.1856E+05 -2.4799E+04   2.4336E+05  0.000E+00  0.000E+00  0.000E+00  3.91652E+01  2.902E-01  2.000E+01  2.000E+04 -1.240E+00
   1   12   24     2     7    2.4336E+05 -1.8247E+04   2.6161E+05  0.000E+00  0.000E+00  0.000E+00  3.89311E+01  3.061E-01  2.000E+01  2.000E+04 -9.123E-01
   1   13   23     2     8    2.6161E+05 -1.2904E+04   2.7451E+05  0.000E+00  0.000E+00  0.000E+00  3.86923E+01  3.173E-01  2.000E+01  2.000E+04 -6.452E-01
   1   14   22     2     9    2.7451E+05 -7.1041E+03   2.8161E+05  0.000E+00  0.000E+00  0.000E+00  3.84494E+01  3.244E-01  2.000E+01  2.000E+04 -3.552E-01
   1   14   22     3     1    1.0392E+06 -1.5158E+04   1.0543E+06  0.000E+00  0.000E+00  0.000E+00  3.80467E+01  4.911E-01  2.000E+01  2.000E+04 -7.579E-01
   1   15   23     3     2    1.0543E+06 -2.2926E+04   1.0773E+06  0.000E+00  0.000E+00  0.000E+00  3.71632E+01  4.965E-01  2.000E+01  2.000E+04 -1.146E+00
   1   15   24     3     3    1.0773E+06 -1.9154E+04   1.0964E+06  0.000E+00  0.000E+00  0.000E+00  3.62801E+01  5.023E-01  2.000E+01  2.000E+04 -9.577E-01
   1   15   25     3     4    1.0964E+06 -1.8831E+04   1.1153E+06  0.000E+00  0.000E+00  0.000E+00  3.53965E+01  5.076E-01  2.000E+01  2.000E+04 -9.415E-01
   1   15   26     3     5    1.1153E+06 -2.1624E+04   1.1369E+06  0.000E+00  0.000E+00  0.000E+00  3.45131E+01  5.131E-01  2.000E+01  2.000E+04 -1.081E+00
   1   16   27     3     6    1.1369E+06 -2.8576E+04   1.1655E+06  0.000E+00  0.000E+00  0.000E+00  3.36311E+01  5.200E-01  2.000E+01  2.000E+04 -1.429E+00
   1   17   28     3     7    1.1655E+06 -3.5550E+04   1.2010E+06  0.000E+00  0.000E+00  0.000E+00  3.27508E+01  5.286E-01  2.000E+01  2.000E+04 -1.777E+00
   1   18   29     3     8    1.2010E+06 -4.6507E+04   1.2475E+06  0.000E+00  0.000E+00  0.000E+00  3.18729E+01  5.395E-01  2.000E+01  2.000E+04 -2.325E+00
   1   18   30     3     9    1.2475E+06 -4.3169E+04   1.2907E+06  0.000E+00  0.000E+00  0.000E+00  3.09958E+01  5.513E-01  2.000E+01  2.000E+04 -2.158E+00



1
              HEAD IN LAYER   1 AT END OF TIME STEP   1 IN STRESS PERIOD    7
  ---------------------------------------------------------------------------

          1      2      3      4      5      6      7      8      9     10
         11     12     13     14     15     16     17     18     19     20
         21     22     23     24     25     26     27     28     29     30
 .........................................................................
   1  ****** ****** ****** ****** ****** ****** ****** ****** ****** ******
      ****** ****** ****** ****** ****** ****** ****** ****** ****** ******
      ****** ****** ****** ****** ****** ****** ****** ****** ****** ******
   2  ****** ****** ****** ****** ****** ****** ****** ****** ****** ******
      ****** ****** ****** ****** ****** ****** ****** ****** ****** ******
      ****** ****** ****** ****** ****** ****** ****** ****** ****** ******
   3  ****** ****** ****** ****** ****** ****** ****** ****** ****** ******
      ****** ****** ****** ****** ****** ****** ****** ****** ****** ******
      ****** ****** ****** ****** ****** ****** ****** ****** ****** ******
   4  ****** ****** ****** ****** ****** ****** ****** ****** ****** ******
      ****** ****** ****** ****** ****** ****** ****** ****** ****** ******
      ****** ****** ****** ****** ****** ****** ****** ****** ****** ******
   5  ****** ****** ****** ****** ****** ****** ****** ****** ****** ******
      ****** ****** ****** ****** ****** ****** ****** ****** ****** ******
      ****** ****** ****** ****** ****** ****** ****** ****** ****** ******
   6  ****** ****** ****** ****** ****** ****** ****** ****** ****** ******
      ****** ****** ****** ****** ****** ****** ****** ****** ****** ******
      ****** ****** ****** ****** ****** ****** ****** ****** ****** ******
   7  ****** ****** ****** ****** ****** ****** ****** ****** ****** ******
      ****** ****** ****** ****** ****** ****** ****** ****** ****** ******
      ****** ****** ****** ****** ****** ****** ****** ****** ****** ******
   8  ****** ****** ****** ****** ****** ****** ****** ****** ****** ******
      ****** ****** ****** ****** ****** ****** ****** ****** ****** ******
      ****** ****** ****** ****** ****** ****** ****** ****** ****** ******
   9  ****** ****** ****** ****** ****** ****** ****** ****** ****** ******
      ****** ****** ****** ****** ****** ****** ****** ****** ****** ******
      ****** ****** ****** ****** ****** ****** ****** ****** ****** ******
  10  ****** ****** ****** ****** ****** ****** ****** ****** ****** ******
      ****** ****** ****** ****** ****** ****** ****** ****** ****** ******
      ****** ****** ****** ****** ****** ****** ****** ****** ****** ******
  11  ****** ****** ****** ****** ****** ****** ****** ****** ****** ******
      ****** ****** ****** ****** ****** ****** ****** ****** ****** ******
      ****** ****** ****** ****** ****** ****** ****** ****** ****** ******
  12  ****** ****** ****** ****** ****** ****** ****** ****** ****** ******
      ****** ****** ****** ****** ****** ****** ****** ****** ****** ******
      ****** ****** ****** ****** ****** ****** ****** ****** ****** ******
  13  ****** ****** ****** ****** ****** ****** ****** ****** ****** ******
      ****** ****** ****** ****** ****** ****** ****** ****** ****** ******
      ****** ****** ****** ****** ****** ****** ****** ****** ****** ******
  14  ****** ****** ****** ****** ****** ****** ****** ****** ****** ******
      ****** ****** ****** ****** ****** ****** ****** ****** ****** ******
      ****** ****** ****** ****** ****** ****** ****** ****** ****** ******
  15  ****** ****** ****** ****** ****** ****** ****** ****** ****** ******
      ****** ****** ****** ****** ****** ****** ****** ****** ****** ******
      ****** ****** ****** ****** ****** ****** ****** ****** ****** ******
  16  ****** ****** ****** ****** ****** ****** ****** ****** ****** ******
      ****** ****** ****** ****** ****** ****** ****** ****** ****** ******
      ****** ****** ****** ****** ****** ****** ****** ****** ****** ******
  17  ****** ****** ****** ****** ****** ****** ****** ****** ****** ******
      ****** ****** ****** ****** ****** ****** ****** ****** ****** ******
      ****** ****** ****** ****** ****** ****** ****** ****** ****** ******
  18  ****** ****** ****** ****** ****** ****** ****** ****** ****** ******
      ****** ****** ****** ****** ****** ****** ****** ****** ****** ******
      ****** ****** ****** ****** ****** ****** ****** ****** ****** ******
  19  ****** ****** ****** ****** ****** ****** ****** ****** ****** ******
      ****** ****** ****** ****** ****** ****** ****** ****** ****** ******
      ****** ****** ****** ****** ****** ****** ****** ****** ****** ******
  20  ****** ****** ****** ****** ****** ****** ****** ****** ****** ******
      ****** ****** ****** ****** ****** ****** ****** ****** ****** ******
      ****** ****** ****** ****** ****** ****** ****** ****** ****** ******
  21  ****** ****** ****** ****** ****** ****** ****** ****** ****** ******
      ****** ****** ****** ****** ****** ****** ****** ****** ****** ******
      ****** ****** ****** ****** ****** ****** ****** ****** ****** ******
  22  ****** ****** ****** ****** ****** ****** ****** ****** ****** ******
      ****** ****** ****** ****** ****** ****** ****** ****** ****** ******
      ****** ****** ****** ****** ****** ****** ****** ****** ****** ******
  23  ****** ****** ****** ****** ****** ****** ****** ****** ****** ******
      ****** ****** ****** ****** ****** ****** ****** ****** ****** ******
      ****** ****** ****** ****** ****** ****** ****** ****** ****** ******
  24  ****** ****** ****** ****** ****** ****** ****** ****** ****** ******
      ****** ****** ****** ****** ****** ****** ****** ****** ****** ******
      ****** ****** ****** ****** ****** ****** ****** ****** ****** ******
  25  ****** ****** ****** ****** ****** ****** ****** ****** ****** ******
      ****** ****** ****** ****** ****** ****** ****** ****** ****** ******
      ****** ****** ****** ****** ****** ****** ****** ****** ****** ******

 HEAD WILL BE SAVED ON UNIT   51 AT END OF TIME STEP    1, STRESS PERIOD    7
1
  VOLUMETRIC BUDGET FOR ENTIRE MODEL AT END OF TIME STEP    1, STRESS PERIOD   7
  ------------------------------------------------------------------------------

     CUMULATIVE VOLUMES      L**3       RATES FOR THIS TIME STEP      L**3/T
     ------------------                 ------------------------

           IN:                                      IN:
           ---                                      ---
             STORAGE =    20422736.2463               STORAGE =        2429.1766
       CONSTANT HEAD =   805411799.2827         CONSTANT HEAD =     1275432.2539
               WELLS =           0.0000                 WELLS =           0.0000
            RECHARGE =    15097200.0000              RECHARGE =           0.0000
      STREAM LEAKAGE =           0.0000        STREAM LEAKAGE =           0.0000

            TOTAL IN =   840931735.5291              TOTAL IN =     1277861.4306

          OUT:                                     OUT:
          ----                                     ----
             STORAGE =      280644.2813               STORAGE =          10.2752
       CONSTANT HEAD =           0.0000         CONSTANT HEAD =           0.0000
               WELLS =    90389217.7090                 WELLS =      137165.7961
            RECHARGE =           0.0000              RECHARGE =           0.0000
      STREAM LEAKAGE =   750261885.9961        STREAM LEAKAGE =     1140685.4044

           TOTAL OUT =   840931747.9864             TOTAL OUT =     1277861.4757

            IN - OUT =         -12.4573              IN - OUT =      -4.5093E-02

 PERCENT DISCREPANCY =          -0.00     PERCENT DISCREPANCY =          -0.00






         TIME SUMMARY AT END OF TIME STEP    1 IN STRESS PERIOD    7
                    SECONDS     MINUTES      HOURS       DAYS        YEARS
                    -----------------------------------------------------------
   TIME STEP LENGTH 7.86240E+06 1.31040E+05  2184.0      91.000     0.24914    
 STRESS PERIOD TIME 7.86240E+06 1.31040E+05  2184.0      91.000     0.24914    
         TOTAL TIME 5.52096E+07 9.20160E+05  15336.      639.00      1.7495    
1
1
                            STRESS PERIOD NO.    8, LENGTH =   91.00000    
                            -----------------------------------------------

                              NUMBER OF TIME STEPS =     1

                               MULTIPLIER FOR DELT =     1.500

                            INITIAL TIME STEP SIZE =   91.00000    

 WELL NO.  LAYER   ROW   COL   STRESS RATE         
 --------------------------------------------------
      1      1     22      9     -0.3717E+05
      2      1     24     11     -0.5000E+05
      3      1     24     23     -0.5000E+05

      3 WELLS

                 RECHARGE =  1.000000E-03

 REUSING STREAM SEGMENT DATA FROM LAST STRESS PERIOD
 
 SOLVING FOR HEAD 


     6 CALLS TO PCG ROUTINE FOR TIME STEP   1 IN STRESS PERIOD    8
    22 TOTAL ITERATIONS

 OUTPUT CONTROL FOR STRESS PERIOD    8   TIME STEP    1
    SAVE BUDGET
    SAVE HEAD FOR ALL LAYERS
    PRINT HEAD FOR ALL LAYERS
 UBDSV2 SAVING "STREAMFLOW OUT  " ON UNIT  50 AT TIME STEP  1, STRESS PERIOD   8



 STREAM LISTING     PERIOD      8   STEP        1

 LAYER ROW COL. STREAM  RCH.  FLOW INTO     FLOW TO   FLOW OUT OF   OVRLND.     DIRECT     STREAM       STREAM     STREAM     STREAM   STREAMBED  STREAMBED
                SEG.NO.  NO.  STRM. RCH.    AQUIFER    STRM. RCH.    RUNOFF     PRECIP       ET          HEAD       DEPTH      WIDTH   CONDCTNC.   GRADIENT

   1   13    1     1     1    1.0000E+05 -2.7682E+04   1.2768E+05  0.000E+00  0.000E+00  0.000E+00  4.84177E+01  1.564E-01  2.000E+01  2.000E+04 -1.384E+00
   1   13    2     1     2    1.2768E+05 -3.7438E+04   1.6512E+05  0.000E+00  0.000E+00  0.000E+00  4.79659E+01  1.818E-01  2.000E+01  2.000E+04 -1.872E+00
   1   14    3     1     3    1.6512E+05 -3.2721E+04   1.9784E+05  0.000E+00  0.000E+00  0.000E+00  4.75137E+01  2.068E-01  2.000E+01  2.000E+04 -1.636E+00
   1   15    4     1     4    1.9784E+05 -3.1700E+04   2.2954E+05  0.000E+00  0.000E+00  0.000E+00  4.70577E+01  2.281E-01  2.000E+01  2.000E+04 -1.585E+00
   1   16    5     1     5    2.2954E+05 -3.2687E+04   2.6223E+05  0.000E+00  0.000E+00  0.000E+00  4.66005E+01  2.482E-01  2.000E+01  2.000E+04 -1.634E+00
   1   16    6     1     6    2.6223E+05 -2.8449E+04   2.9068E+05  0.000E+00  0.000E+00  0.000E+00  4.61413E+01  2.663E-01  2.000E+01  2.000E+04 -1.422E+00
   1   16    7     1     7    2.9068E+05 -2.8136E+04   3.1881E+05  0.000E+00  0.000E+00  0.000E+00  4.56800E+01  2.823E-01  2.000E+01  2.000E+04 -1.407E+00
   1   16    8     1     8    3.1881E+05 -2.8180E+04   3.4699E+05  0.000E+00  0.000E+00  0.000E+00  4.52181E+01  2.977E-01  2.000E+01  2.000E+04 -1.409E+00
   1   16    9     1     9    3.4699E+05 -2.8179E+04   3.7517E+05  0.000E+00  0.000E+00  0.000E+00  4.47557E+01  3.125E-01  2.000E+01  2.000E+04 -1.409E+00
   1   16   10     1    10    3.7517E+05 -2.8207E+04   4.0338E+05  0.000E+00  0.000E+00  0.000E+00  4.42929E+01  3.269E-01  2.000E+01  2.000E+04 -1.410E+00
   1   16   11     1    11    4.0338E+05 -2.8855E+04   4.3223E+05  0.000E+00  0.000E+00  0.000E+00  4.38298E+01  3.411E-01  2.000E+01  2.000E+04 -1.443E+00
   1   16   12     1    12    4.3223E+05 -3.4241E+04   4.6647E+05  0.000E+00  0.000E+00  0.000E+00  4.33677E+01  3.564E-01  2.000E+01  2.000E+04 -1.712E+00
   1   15   13     1    13    4.6647E+05 -3.3758E+04   5.0023E+05  0.000E+00  0.000E+00  0.000E+00  4.29064E+01  3.723E-01  2.000E+01  2.000E+04 -1.688E+00
   1   14   14     1    14    5.0023E+05 -3.4727E+04   5.3496E+05  0.000E+00  0.000E+00  0.000E+00  4.24447E+01  3.879E-01  2.000E+01  2.000E+04 -1.736E+00
   1   13   15     1    15    5.3496E+05 -3.7185E+04   5.7214E+05  0.000E+00  0.000E+00  0.000E+00  4.19834E+01  4.038E-01  2.000E+01  2.000E+04 -1.859E+00
   1   12   16     1    16    5.7214E+05 -4.3416E+04   6.1556E+05  0.000E+00  0.000E+00  0.000E+00  4.15235E+01  4.212E-01  2.000E+01  2.000E+04 -2.171E+00
   1   12   17     1    17    6.1556E+05 -3.3938E+04   6.4950E+05  0.000E+00  0.000E+00  0.000E+00  4.10625E+01  4.375E-01  2.000E+01  2.000E+04 -1.697E+00
   1   12   18     1    18    6.4950E+05 -3.2329E+04   6.8183E+05  0.000E+00  0.000E+00  0.000E+00  4.05988E+01  4.511E-01  2.000E+01  2.000E+04 -1.616E+00
   1   12   19     1    19    6.8183E+05 -3.6446E+04   7.1827E+05  0.000E+00  0.000E+00  0.000E+00  4.01354E+01  4.649E-01  2.000E+01  2.000E+04 -1.822E+00
   1   13   20     1    20    7.1827E+05 -2.6612E+04   7.4488E+05  0.000E+00  0.000E+00  0.000E+00  3.96706E+01  4.774E-01  2.000E+01  2.000E+04 -1.331E+00
   1   14   21     1    21    7.4488E+05 -1.9388E+04   7.6427E+05  0.000E+00  0.000E+00  0.000E+00  3.92023E+01  4.863E-01  2.000E+01  2.000E+04 -9.694E-01
   1   14   22     1    22    7.6427E+05 -1.6853E+03   7.6596E+05  0.000E+00  0.000E+00  0.000E+00  3.87290E+01  4.904E-01  2.000E+01  2.000E+04 -8.427E-02
   1    9   30     2     1    5.0000E+04 -2.6621E+04   7.6621E+04  0.000E+00  0.000E+00  0.000E+00  4.02585E+01  1.335E-01  2.000E+01  2.000E+04 -1.331E+00
   1    9   29     2     2    7.6621E+04 -2.9090E+04   1.0571E+05  0.000E+00  0.000E+00  0.000E+00  4.00411E+01  1.661E-01  2.000E+01  2.000E+04 -1.454E+00
   1    9   28     2     3    1.0571E+05 -3.3383E+04   1.3909E+05  0.000E+00  0.000E+00  0.000E+00  3.98233E+01  1.983E-01  2.000E+01  2.000E+04 -1.669E+00
   1    9   27     2     4    1.3909E+05 -4.7532E+04   1.8663E+05  0.000E+00  0.000E+00  0.000E+00  3.96103E+01  2.353E-01  2.000E+01  2.000E+04 -2.377E+00
   1   10   26     2     5    1.8663E+05 -3.3506E+04   2.2013E+05  0.000E+00  0.000E+00  0.000E+00  3.93939E+01  2.689E-01  2.000E+01  2.000E+04 -1.675E+00
   1   11   25     2     6    2.2013E+05 -2.5153E+04   2.4529E+05  0.000E+00  0.000E+00  0.000E+00  3.91665E+01  2.915E-01  2.000E+01  2.000E+04 -1.258E+00
   1   12   24     2     7    2.4529E+05 -1.8564E+04   2.6385E+05  0.000E+00  0.000E+00  0.000E+00  3.89326E+01  3.076E-01  2.000E+01  2.000E+04 -9.282E-01
   1   13   23     2     8    2.6385E+05 -1.3162E+04   2.7701E+05  0.000E+00  0.000E+00  0.000E+00  3.86940E+01  3.190E-01  2.000E+01  2.000E+04 -6.581E-01
   1   14   22     2     9    2.7701E+05 -7.2427E+03   2.8425E+05  0.000E+00  0.000E+00  0.000E+00  3.84512E+01  3.262E-01  2.000E+01  2.000E+04 -3.621E-01
   1   14   22     3     1    1.0502E+06 -1.5270E+04   1.0655E+06  0.000E+00  0.000E+00  0.000E+00  3.80498E+01  4.943E-01  2.000E+01  2.000E+04 -7.635E-01
   1   15   23     3     2    1.0655E+06 -2.3217E+04   1.0887E+06  0.000E+00  0.000E+00  0.000E+00  3.71663E+01  4.996E-01  2.000E+01  2.000E+04 -1.161E+00
   1   15   24     3     3    1.0887E+06 -1.9396E+04   1.1081E+06  0.000E+00  0.000E+00  0.000E+00  3.62833E+01  5.055E-01  2.000E+01  2.000E+04 -9.698E-01
   1   15   25     3     4    1.1081E+06 -1.9072E+04   1.1272E+06  0.000E+00  0.000E+00  0.000E+00  3.53997E+01  5.108E-01  2.000E+01  2.000E+04 -9.536E-01
   1   15   26     3     5    1.1272E+06 -2.1905E+04   1.1491E+06  0.000E+00  0.000E+00  0.000E+00  3.45164E+01  5.164E-01  2.000E+01  2.000E+04 -1.095E+00
   1   16   27     3     6    1.1491E+06 -2.8914E+04   1.1780E+06  0.000E+00  0.000E+00  0.000E+00  3.36344E+01  5.233E-01  2.000E+01  2.000E+04 -1.446E+00
   1   17   28     3     7    1.1780E+06 -3.5897E+04   1.2139E+06  0.000E+00  0.000E+00  0.000E+00  3.27542E+01  5.320E-01  2.000E+01  2.000E+04 -1.795E+00
   1   18   29     3     8    1.2139E+06 -4.6833E+04   1.2607E+06  0.000E+00  0.000E+00  0.000E+00  3.18763E+01  5.430E-01  2.000E+01  2.000E+04 -2.342E+00
   1   18   30     3     9    1.2607E+06 -4.3442E+04   1.3042E+06  0.000E+00  0.000E+00  0.000E+00  3.09992E+01  5.548E-01  2.000E+01  2.000E+04 -2.172E+00



1
              HEAD IN LAYER   1 AT END OF TIME STEP   1 IN STRESS PERIOD    8
  ---------------------------------------------------------------------------

          1      2      3      4      5      6      7      8      9     10
         11     12     13     14     15     16     17     18     19     20
         21     22     23     24     25     26     27     28     29     30
 .........................................................................
   1  ****** ****** ****** ****** ****** ****** ****** ****** ****** ******
      ****** ****** ****** ****** ****** ****** ****** ****** ****** ******
      ****** ****** ****** ****** ****** ****** ****** ****** ****** ******
   2  ****** ****** ****** ****** ****** ****** ****** ****** ****** ******
      ****** ****** ****** ****** ****** ****** ****** ****** ****** ******
      ****** ****** ****** ****** ****** ****** ****** ****** ****** ******
   3  ****** ****** ****** ****** ****** ****** ****** ****** ****** ******
      ****** ****** ****** ****** ****** ****** ****** ****** ****** ******
      ****** ****** ****** ****** ****** ****** ****** ****** ****** ******
   4  ****** ****** ****** ****** ****** ****** ****** ****** ****** ******
      ****** ****** ****** ****** ****** ****** ****** ****** ****** ******
      ****** ****** ****** ****** ****** ****** ****** ****** ****** ******
   5  ****** ****** ****** ****** ****** ****** ****** ****** ****** ******
      ****** ****** ****** ****** ****** ****** ****** ****** ****** ******
      ****** ****** ****** ****** ****** ****** ****** ****** ****** ******
   6  ****** ****** ****** ****** ****** ****** ****** ****** ****** ******
      ****** ****** ****** ****** ****** ****** ****** ****** ****** ******
      ****** ****** ****** ****** ****** ****** ****** ****** ****** ******
   7  ****** ****** ****** ****** ****** ****** ****** ****** ****** ******
      ****** ****** ****** ****** ****** ****** ****** ****** ****** ******
      ****** ****** ****** ****** ****** ****** ****** ****** ****** ******
   8  ****** ****** ****** ****** ****** ****** ****** ****** ****** ******
      ****** ****** ****** ****** ****** ****** ****** ****** ****** ******
      ****** ****** ****** ****** ****** ****** ****** ****** ****** ******
   9  ****** ****** ****** ****** ****** ****** ****** ****** ****** ******
      ****** ****** ****** ****** ****** ****** ****** ****** ****** ******
      ****** ****** ****** ****** ****** ****** ****** ****** ****** ******
  10  ****** ****** ****** ****** ****** ****** ****** ****** ****** ******
      ****** ****** ****** ****** ****** ****** ****** ****** ****** ******
      ****** ****** ****** ****** ****** ****** ****** ****** ****** ******
  11  ****** ****** ****** ****** ****** ****** ****** ****** ****** ******
      ****** ****** ****** ****** ****** ****** ****** ****** ****** ******
      ****** ****** ****** ****** ****** ****** ****** ****** ****** ******
  12  ****** ****** ****** ****** ****** ****** ****** ****** ****** ******
      ****** ****** ****** ****** ****** ****** ****** ****** ****** ******
      ****** ****** ****** ****** ****** ****** ****** ****** ****** ******
  13  ****** ****** ****** ****** ****** ****** ****** ****** ****** ******
      ****** ****** ****** ****** ****** ****** ****** ****** ****** ******
      ****** ****** ****** ****** ****** ****** ****** ****** ****** ******
  14  ****** ****** ****** ****** ****** ****** ****** ****** ****** ******
      ****** ****** ****** ****** ****** ****** ****** ****** ****** ******
      ****** ****** ****** ****** ****** ****** ****** ****** ****** ******
  15  ****** ****** ****** ****** ****** ****** ****** ****** ****** ******
      ****** ****** ****** ****** ****** ****** ****** ****** ****** ******
      ****** ****** ****** ****** ****** ****** ****** ****** ****** ******
  16  ****** ****** ****** ****** ****** ****** ****** ****** ****** ******
      ****** ****** ****** ****** ****** ****** ****** ****** ****** ******
      ****** ****** ****** ****** ****** ****** ****** ****** ****** ******
  17  ****** ****** ****** ****** ****** ****** ****** ****** ****** ******
      ****** ****** ****** ****** ****** ****** ****** ****** ****** ******
      ****** ****** ****** ****** ****** ****** ****** ****** ****** ******
  18  ****** ****** ****** ****** ****** ****** ****** ****** ****** ******
      ****** ****** ****** ****** ****** ****** ****** ****** ****** ******
      ****** ****** ****** ****** ****** ****** ****** ****** ****** ******
  19  ****** ****** ****** ****** ****** ****** ****** ****** ****** ******
      ****** ****** ****** ****** ****** ****** ****** ****** ****** ******
      ****** ****** ****** ****** ****** ****** ****** ****** ****** ******
  20  ****** ****** ****** ****** ****** ****** ****** ****** ****** ******
      ****** ****** ****** ****** ****** ****** ****** ****** ****** ******
      ****** ****** ****** ****** ****** ****** ****** ****** ****** ******
  21  ****** ****** ****** ****** ****** ****** ****** ****** ****** ******
      ****** ****** ****** ****** ****** ****** ****** ****** ****** ******
      ****** ****** ****** ****** ****** ****** ****** ****** ****** ******
  22  ****** ****** ****** ****** ****** ****** ****** ****** ****** ******
      ****** ****** ****** ****** ****** ****** ****** ****** ****** ******
      ****** ****** ****** ****** ****** ****** ****** ****** ****** ******
  23  ****** ****** ****** ****** ****** ****** ****** ****** ****** ******
      ****** ****** ****** ****** ****** ****** ****** ****** ****** ******
      ****** ****** ****** ****** ****** ****** ****** ****** ****** ******
  24  ****** ****** ****** ****** ****** ****** ****** ****** ****** ******
      ****** ****** ****** ****** ****** ****** ****** ****** ****** ******
      ****** ****** ****** ****** ****** ****** ****** ****** ****** ******
  25  ****** ****** ****** ****** ****** ****** ****** ****** ****** ******
      ****** ****** ****** ****** ****** ****** ****** ****** ****** ******
      ****** ****** ****** ****** ****** ****** ****** ****** ****** ******

 HEAD WILL BE SAVED ON UNIT   51 AT END OF TIME STEP    1, STRESS PERIOD    8
1
  VOLUMETRIC BUDGET FOR ENTIRE MODEL AT END OF TIME STEP    1, STRESS PERIOD   8
  ------------------------------------------------------------------------------

     CUMULATIVE VOLUMES      L**3       RATES FOR THIS TIME STEP      L**3/T
     ------------------                 ------------------------

           IN:                                      IN:
           ---                                      ---
             STORAGE =    20422736.2463               STORAGE =           0.0000
       CONSTANT HEAD =   920517453.9325         CONSTANT HEAD =     1264897.3038
               WELLS =           0.0000                 WELLS =           0.0000
            RECHARGE =    17608800.0000              RECHARGE =       27600.0000
      STREAM LEAKAGE =           0.0000        STREAM LEAKAGE =           0.0000

            TOTAL IN =   958548990.1788              TOTAL IN =     1292497.3038

          OUT:                                     OUT:
          ----                                     ----
             STORAGE =      387352.7002               STORAGE =        1172.6200
       CONSTANT HEAD =           0.0000         CONSTANT HEAD =           0.0000
               WELLS =   102871305.1543                 WELLS =      137165.7961
            RECHARGE =           0.0000              RECHARGE =           0.0000
      STREAM LEAKAGE =   855290342.9001        STREAM LEAKAGE =     1154158.8671

           TOTAL OUT =   958549000.7545             TOTAL OUT =     1292497.2832

            IN - OUT =         -10.5757              IN - OUT =       2.0677E-02

 PERCENT DISCREPANCY =          -0.00     PERCENT DISCREPANCY =           0.00






         TIME SUMMARY AT END OF TIME STEP    1 IN STRESS PERIOD    8
                    SECONDS     MINUTES      HOURS       DAYS        YEARS
                    -----------------------------------------------------------
   TIME STEP LENGTH 7.86240E+06 1.31040E+05  2184.0      91.000     0.24914    
 STRESS PERIOD TIME 7.86240E+06 1.31040E+05  2184.0      91.000     0.24914    
         TOTAL TIME 6.30720E+07 1.05120E+06  17520.      730.00      1.9986    
1
1
                            STRESS PERIOD NO.    9, LENGTH =   92.00000    
                            -----------------------------------------------

                              NUMBER OF TIME STEPS =     1

                               MULTIPLIER FOR DELT =     1.500

                            INITIAL TIME STEP SIZE =   92.00000    

 WELL NO.  LAYER   ROW   COL   STRESS RATE         
 --------------------------------------------------
      1      1     22      9     -0.3717E+05
      2      1     24     11     -0.5000E+05
      3      1     24     23     -0.5000E+05

      3 WELLS

                 RECHARGE =  5.000000E-04

 REUSING STREAM SEGMENT DATA FROM LAST STRESS PERIOD
 
 SOLVING FOR HEAD 


     5 CALLS TO PCG ROUTINE FOR TIME STEP   1 IN STRESS PERIOD    9
    20 TOTAL ITERATIONS

 OUTPUT CONTROL FOR STRESS PERIOD    9   TIME STEP    1
    SAVE BUDGET
    SAVE HEAD FOR ALL LAYERS
    PRINT HEAD FOR ALL LAYERS
 UBDSV2 SAVING "STREAMFLOW OUT  " ON UNIT  50 AT TIME STEP  1, STRESS PERIOD   9



 STREAM LISTING     PERIOD      9   STEP        1

 LAYER ROW COL. STREAM  RCH.  FLOW INTO     FLOW TO   FLOW OUT OF   OVRLND.     DIRECT     STREAM       STREAM     STREAM     STREAM   STREAMBED  STREAMBED
                SEG.NO.  NO.  STRM. RCH.    AQUIFER    STRM. RCH.    RUNOFF     PRECIP       ET          HEAD       DEPTH      WIDTH   CONDCTNC.   GRADIENT

   1   13    1     1     1    1.0000E+05 -2.7483E+04   1.2748E+05  0.000E+00  0.000E+00  0.000E+00  4.84176E+01  1.563E-01  2.000E+01  2.000E+04 -1.374E+00
   1   13    2     1     2    1.2748E+05 -3.7202E+04   1.6469E+05  0.000E+00  0.000E+00  0.000E+00  4.79657E+01  1.816E-01  2.000E+01  2.000E+04 -1.860E+00
   1   14    3     1     3    1.6469E+05 -3.2488E+04   1.9717E+05  0.000E+00  0.000E+00  0.000E+00  4.75133E+01  2.065E-01  2.000E+01  2.000E+04 -1.624E+00
   1   15    4     1     4    1.9717E+05 -3.1474E+04   2.2865E+05  0.000E+00  0.000E+00  0.000E+00  4.70572E+01  2.276E-01  2.000E+01  2.000E+04 -1.574E+00
   1   16    5     1     5    2.2865E+05 -3.2483E+04   2.6113E+05  0.000E+00  0.000E+00  0.000E+00  4.65998E+01  2.476E-01  2.000E+01  2.000E+04 -1.624E+00
   1   16    6     1     6    2.6113E+05 -2.8272E+04   2.8940E+05  0.000E+00  0.000E+00  0.000E+00  4.61406E+01  2.656E-01  2.000E+01  2.000E+04 -1.414E+00
   1   16    7     1     7    2.8940E+05 -2.7960E+04   3.1736E+05  0.000E+00  0.000E+00  0.000E+00  4.56793E+01  2.815E-01  2.000E+01  2.000E+04 -1.398E+00
   1   16    8     1     8    3.1736E+05 -2.8004E+04   3.4537E+05  0.000E+00  0.000E+00  0.000E+00  4.52173E+01  2.968E-01  2.000E+01  2.000E+04 -1.400E+00
   1   16    9     1     9    3.4537E+05 -2.8003E+04   3.7337E+05  0.000E+00  0.000E+00  0.000E+00  4.47548E+01  3.116E-01  2.000E+01  2.000E+04 -1.400E+00
   1   16   10     1    10    3.7337E+05 -2.8032E+04   4.0140E+05  0.000E+00  0.000E+00  0.000E+00  4.42919E+01  3.260E-01  2.000E+01  2.000E+04 -1.402E+00
   1   16   11     1    11    4.0140E+05 -2.8677E+04   4.3008E+05  0.000E+00  0.000E+00  0.000E+00  4.38287E+01  3.401E-01  2.000E+01  2.000E+04 -1.434E+00
   1   16   12     1    12    4.3008E+05 -3.4033E+04   4.6411E+05  0.000E+00  0.000E+00  0.000E+00  4.33666E+01  3.553E-01  2.000E+01  2.000E+04 -1.702E+00
   1   15   13     1    13    4.6411E+05 -3.3530E+04   4.9764E+05  0.000E+00  0.000E+00  0.000E+00  4.29052E+01  3.711E-01  2.000E+01  2.000E+04 -1.677E+00
   1   14   14     1    14    4.9764E+05 -3.4492E+04   5.3213E+05  0.000E+00  0.000E+00  0.000E+00  4.24435E+01  3.867E-01  2.000E+01  2.000E+04 -1.725E+00
   1   13   15     1    15    5.3213E+05 -3.6952E+04   5.6908E+05  0.000E+00  0.000E+00  0.000E+00  4.19821E+01  4.026E-01  2.000E+01  2.000E+04 -1.848E+00
   1   12   16     1    16    5.6908E+05 -4.3192E+04   6.1228E+05  0.000E+00  0.000E+00  0.000E+00  4.15222E+01  4.199E-01  2.000E+01  2.000E+04 -2.160E+00
   1   12   17     1    17    6.1228E+05 -3.3756E+04   6.4603E+05  0.000E+00  0.000E+00  0.000E+00  4.10611E+01  4.361E-01  2.000E+01  2.000E+04 -1.688E+00
   1   12   18     1    18    6.4603E+05 -3.2155E+04   6.7819E+05  0.000E+00  0.000E+00  0.000E+00  4.05974E+01  4.497E-01  2.000E+01  2.000E+04 -1.608E+00
   1   12   19     1    19    6.7819E+05 -3.6256E+04   7.1444E+05  0.000E+00  0.000E+00  0.000E+00  4.01339E+01  4.635E-01  2.000E+01  2.000E+04 -1.813E+00
   1   13   20     1    20    7.1444E+05 -2.6432E+04   7.4087E+05  0.000E+00  0.000E+00  0.000E+00  3.96690E+01  4.759E-01  2.000E+01  2.000E+04 -1.322E+00
   1   14   21     1    21    7.4087E+05 -1.9233E+04   7.6011E+05  0.000E+00  0.000E+00  0.000E+00  3.92007E+01  4.848E-01  2.000E+01  2.000E+04 -9.617E-01
   1   14   22     1    22    7.6011E+05 -1.6303E+03   7.6174E+05  0.000E+00  0.000E+00  0.000E+00  3.87274E+01  4.888E-01  2.000E+01  2.000E+04 -8.151E-02
   1    9   30     2     1    5.0000E+04 -2.6480E+04   7.6480E+04  0.000E+00  0.000E+00  0.000E+00  4.02584E+01  1.334E-01  2.000E+01  2.000E+04 -1.324E+00
   1    9   29     2     2    7.6480E+04 -2.8949E+04   1.0543E+05  0.000E+00  0.000E+00  0.000E+00  4.00409E+01  1.659E-01  2.000E+01  2.000E+04 -1.447E+00
   1    9   28     2     3    1.0543E+05 -3.3238E+04   1.3867E+05  0.000E+00  0.000E+00  0.000E+00  3.98229E+01  1.979E-01  2.000E+01  2.000E+04 -1.662E+00
   1    9   27     2     4    1.3867E+05 -4.7354E+04   1.8602E+05  0.000E+00  0.000E+00  0.000E+00  3.96099E+01  2.349E-01  2.000E+01  2.000E+04 -2.368E+00
   1   10   26     2     5    1.8602E+05 -3.3322E+04   2.1934E+05  0.000E+00  0.000E+00  0.000E+00  3.93933E+01  2.683E-01  2.000E+01  2.000E+04 -1.666E+00
   1   11   25     2     6    2.1934E+05 -2.4975E+04   2.4432E+05  0.000E+00  0.000E+00  0.000E+00  3.91659E+01  2.909E-01  2.000E+01  2.000E+04 -1.249E+00
   1   12   24     2     7    2.4432E+05 -1.8405E+04   2.6272E+05  0.000E+00  0.000E+00  0.000E+00  3.89319E+01  3.069E-01  2.000E+01  2.000E+04 -9.202E-01
   1   13   23     2     8    2.6272E+05 -1.3033E+04   2.7576E+05  0.000E+00  0.000E+00  0.000E+00  3.86932E+01  3.182E-01  2.000E+01  2.000E+04 -6.516E-01
   1   14   22     2     9    2.7576E+05 -7.1734E+03   2.8293E+05  0.000E+00  0.000E+00  0.000E+00  3.84503E+01  3.253E-01  2.000E+01  2.000E+04 -3.587E-01
   1   14   22     3     1    1.0447E+06 -1.5214E+04   1.0599E+06  0.000E+00  0.000E+00  0.000E+00  3.80482E+01  4.927E-01  2.000E+01  2.000E+04 -7.607E-01
   1   15   23     3     2    1.0599E+06 -2.3072E+04   1.0830E+06  0.000E+00  0.000E+00  0.000E+00  3.71647E+01  4.981E-01  2.000E+01  2.000E+04 -1.154E+00
   1   15   24     3     3    1.0830E+06 -1.9276E+04   1.1022E+06  0.000E+00  0.000E+00  0.000E+00  3.62817E+01  5.039E-01  2.000E+01  2.000E+04 -9.638E-01
   1   15   25     3     4    1.1022E+06 -1.8952E+04   1.1212E+06  0.000E+00  0.000E+00  0.000E+00  3.53981E+01  5.092E-01  2.000E+01  2.000E+04 -9.476E-01
   1   15   26     3     5    1.1212E+06 -2.1765E+04   1.1429E+06  0.000E+00  0.000E+00  0.000E+00  3.45148E+01  5.148E-01  2.000E+01  2.000E+04 -1.088E+00
   1   16   27     3     6    1.1429E+06 -2.8746E+04   1.1717E+06  0.000E+00  0.000E+00  0.000E+00  3.36328E+01  5.216E-01  2.000E+01  2.000E+04 -1.437E+00
   1   17   28     3     7    1.1717E+06 -3.5725E+04   1.2074E+06  0.000E+00  0.000E+00  0.000E+00  3.27525E+01  5.303E-01  2.000E+01  2.000E+04 -1.786E+00
   1   18   29     3     8    1.2074E+06 -4.6671E+04   1.2541E+06  0.000E+00  0.000E+00  0.000E+00  3.18746E+01  5.413E-01  2.000E+01  2.000E+04 -2.334E+00
   1   18   30     3     9    1.2541E+06 -4.3306E+04   1.2974E+06  0.000E+00  0.000E+00  0.000E+00  3.09975E+01  5.530E-01  2.000E+01  2.000E+04 -2.165E+00



1
              HEAD IN LAYER   1 AT END OF TIME STEP   1 IN STRESS PERIOD    9
  ---------------------------------------------------------------------------

          1      2      3      4      5      6      7      8      9     10
         11     12     13     14     15     16     17     18     19     20
         21     22     23     24     25     26     27     28     29     30
 .........................................................................
   1  ****** ****** ****** ****** ****** ****** ****** ****** ****** ******
      ****** ****** ****** ****** ****** ****** ****** ****** ****** ******
      ****** ****** ****** ****** ****** ****** ****** ****** ****** ******
   2  ****** ****** ****** ****** ****** ****** ****** ****** ****** ******
      ****** ****** ****** ****** ****** ****** ****** ****** ****** ******
      ****** ****** ****** ****** ****** ****** ****** ****** ****** ******
   3  ****** ****** ****** ****** ****** ****** ****** ****** ****** ******
      ****** ****** ****** ****** ****** ****** ****** ****** ****** ******
      ****** ****** ****** ****** ****** ****** ****** ****** ****** ******
   4  ****** ****** ****** ****** ****** ****** ****** ****** ****** ******
      ****** ****** ****** ****** ****** ****** ****** ****** ****** ******
      ****** ****** ****** ****** ****** ****** ****** ****** ****** ******
   5  ****** ****** ****** ****** ****** ****** ****** ****** ****** ******
      ****** ****** ****** ****** ****** ****** ****** ****** ****** ******
      ****** ****** ****** ****** ****** ****** ****** ****** ****** ******
   6  ****** ****** ****** ****** ****** ****** ****** ****** ****** ******
      ****** ****** ****** ****** ****** ****** ****** ****** ****** ******
      ****** ****** ****** ****** ****** ****** ****** ****** ****** ******
   7  ****** ****** ****** ****** ****** ****** ****** ****** ****** ******
      ****** ****** ****** ****** ****** ****** ****** ****** ****** ******
      ****** ****** ****** ****** ****** ****** ****** ****** ****** ******
   8  ****** ****** ****** ****** ****** ****** ****** ****** ****** ******
      ****** ****** ****** ****** ****** ****** ****** ****** ****** ******
      ****** ****** ****** ****** ****** ****** ****** ****** ****** ******
   9  ****** ****** ****** ****** ****** ****** ****** ****** ****** ******
      ****** ****** ****** ****** ****** ****** ****** ****** ****** ******
      ****** ****** ****** ****** ****** ****** ****** ****** ****** ******
  10  ****** ****** ****** ****** ****** ****** ****** ****** ****** ******
      ****** ****** ****** ****** ****** ****** ****** ****** ****** ******
      ****** ****** ****** ****** ****** ****** ****** ****** ****** ******
  11  ****** ****** ****** ****** ****** ****** ****** ****** ****** ******
      ****** ****** ****** ****** ****** ****** ****** ****** ****** ******
      ****** ****** ****** ****** ****** ****** ****** ****** ****** ******
  12  ****** ****** ****** ****** ****** ****** ****** ****** ****** ******
      ****** ****** ****** ****** ****** ****** ****** ****** ****** ******
      ****** ****** ****** ****** ****** ****** ****** ****** ****** ******
  13  ****** ****** ****** ****** ****** ****** ****** ****** ****** ******
      ****** ****** ****** ****** ****** ****** ****** ****** ****** ******
      ****** ****** ****** ****** ****** ****** ****** ****** ****** ******
  14  ****** ****** ****** ****** ****** ****** ****** ****** ****** ******
      ****** ****** ****** ****** ****** ****** ****** ****** ****** ******
      ****** ****** ****** ****** ****** ****** ****** ****** ****** ******
  15  ****** ****** ****** ****** ****** ****** ****** ****** ****** ******
      ****** ****** ****** ****** ****** ****** ****** ****** ****** ******
      ****** ****** ****** ****** ****** ****** ****** ****** ****** ******
  16  ****** ****** ****** ****** ****** ****** ****** ****** ****** ******
      ****** ****** ****** ****** ****** ****** ****** ****** ****** ******
      ****** ****** ****** ****** ****** ****** ****** ****** ****** ******
  17  ****** ****** ****** ****** ****** ****** ****** ****** ****** ******
      ****** ****** ****** ****** ****** ****** ****** ****** ****** ******
      ****** ****** ****** ****** ****** ****** ****** ****** ****** ******
  18  ****** ****** ****** ****** ****** ****** ****** ****** ****** ******
      ****** ****** ****** ****** ****** ****** ****** ****** ****** ******
      ****** ****** ****** ****** ****** ****** ****** ****** ****** ******
  19  ****** ****** ****** ****** ****** ****** ****** ****** ****** ******
      ****** ****** ****** ****** ****** ****** ****** ****** ****** ******
      ****** ****** ****** ****** ****** ****** ****** ****** ****** ******
  20  ****** ****** ****** ****** ****** ****** ****** ****** ****** ******
      ****** ****** ****** ****** ****** ****** ****** ****** ****** ******
      ****** ****** ****** ****** ****** ****** ****** ****** ****** ******
  21  ****** ****** ****** ****** ****** ****** ****** ****** ****** ******
      ****** ****** ****** ****** ****** ****** ****** ****** ****** ******
      ****** ****** ****** ****** ****** ****** ****** ****** ****** ******
  22  ****** ****** ****** ****** ****** ****** ****** ****** ****** ******
      ****** ****** ****** ****** ****** ****** ****** ****** ****** ******
      ****** ****** ****** ****** ****** ****** ****** ****** ****** ******
  23  ****** ****** ****** ****** ****** ****** ****** ****** ****** ******
      ****** ****** ****** ****** ****** ****** ****** ****** ****** ******
      ****** ****** ****** ****** ****** ****** ****** ****** ****** ******
  24  ****** ****** ****** ****** ****** ****** ****** ****** ****** ******
      ****** ****** ****** ****** ****** ****** ****** ****** ****** ******
      ****** ****** ****** ****** ****** ****** ****** ****** ****** ******
  25  ****** ****** ****** ****** ****** ****** ****** ****** ****** ******
      ****** ****** ****** ****** ****** ****** ****** ****** ****** ******
      ****** ****** ****** ****** ****** ****** ****** ****** ****** ******

 HEAD WILL BE SAVED ON UNIT   51 AT END OF TIME STEP    1, STRESS PERIOD    9
1
  VOLUMETRIC BUDGET FOR ENTIRE MODEL AT END OF TIME STEP    1, STRESS PERIOD   9
  ------------------------------------------------------------------------------

     CUMULATIVE VOLUMES      L**3       RATES FOR THIS TIME STEP      L**3/T
     ------------------                 ------------------------

           IN:                                      IN:
           ---                                      ---
             STORAGE =    20476433.8429               STORAGE =         583.6695
       CONSTANT HEAD =  1037373641.7118         CONSTANT HEAD =     1270175.9541
               WELLS =           0.0000                 WELLS =           0.0000
            RECHARGE =    18878400.0000              RECHARGE =       13800.0000
      STREAM LEAKAGE =           0.0000        STREAM LEAKAGE =           0.0000

            TOTAL IN =  1076728475.5547              TOTAL IN =     1284559.6237

          OUT:                                     OUT:
          ----                                     ----
             STORAGE =      387352.7002               STORAGE =           0.0000
       CONSTANT HEAD =           0.0000         CONSTANT HEAD =           0.0000
               WELLS =   115490558.3956                 WELLS =      137165.7961
            RECHARGE =           0.0000              RECHARGE =           0.0000
      STREAM LEAKAGE =   960850576.8574        STREAM LEAKAGE =     1147393.8474

           TOTAL OUT =  1076728487.9532             TOTAL OUT =     1284559.6435

            IN - OUT =         -12.3985              IN - OUT =      -1.9813E-02

 PERCENT DISCREPANCY =          -0.00     PERCENT DISCREPANCY =          -0.00






         TIME SUMMARY AT END OF TIME STEP    1 IN STRESS PERIOD    9
                    SECONDS     MINUTES      HOURS       DAYS        YEARS
                    -----------------------------------------------------------
   TIME STEP LENGTH 7.94880E+06 1.32480E+05  2208.0      92.000     0.25188    
 STRESS PERIOD TIME 7.94880E+06 1.32480E+05  2208.0      92.000     0.25188    
         TOTAL TIME 7.10208E+07 1.18368E+06  19728.      822.00      2.2505    
1
1
                            STRESS PERIOD NO.   10, LENGTH =   91.00000    
                            -----------------------------------------------

                              NUMBER OF TIME STEPS =     1

                               MULTIPLIER FOR DELT =     1.500

                            INITIAL TIME STEP SIZE =   91.00000    

 WELL NO.  LAYER   ROW   COL   STRESS RATE         
 --------------------------------------------------
      1      1     22      9     -0.3717E+05
      2      1     24     11     -0.5000E+05
      3      1     24     23     -0.5000E+05

      3 WELLS

                 RECHARGE =  2.000000E-03

 REUSING STREAM SEGMENT DATA FROM LAST STRESS PERIOD
 
 SOLVING FOR HEAD 


     6 CALLS TO PCG ROUTINE FOR TIME STEP   1 IN STRESS PERIOD   10
    22 TOTAL ITERATIONS

 OUTPUT CONTROL FOR STRESS PERIOD   10   TIME STEP    1
    SAVE BUDGET
    SAVE HEAD FOR ALL LAYERS
    PRINT HEAD FOR ALL LAYERS
 UBDSV2 SAVING "STREAMFLOW OUT  " ON UNIT  50 AT TIME STEP  1, STRESS PERIOD  10



 STREAM LISTING     PERIOD     10   STEP        1

 LAYER ROW COL. STREAM  RCH.  FLOW INTO     FLOW TO   FLOW OUT OF   OVRLND.     DIRECT     STREAM       STREAM     STREAM     STREAM   STREAMBED  STREAMBED
                SEG.NO.  NO.  STRM. RCH.    AQUIFER    STRM. RCH.    RUNOFF     PRECIP       ET          HEAD       DEPTH      WIDTH   CONDCTNC.   GRADIENT

   1   13    1     1     1    1.0000E+05 -2.8136E+04   1.2814E+05  0.000E+00  0.000E+00  0.000E+00  4.84179E+01  1.565E-01  2.000E+01  2.000E+04 -1.407E+00
   1   13    2     1     2    1.2814E+05 -3.7981E+04   1.6612E+05  0.000E+00  0.000E+00  0.000E+00  4.79665E+01  1.824E-01  2.000E+01  2.000E+04 -1.899E+00
   1   14    3     1     3    1.6612E+05 -3.3250E+04   1.9937E+05  0.000E+00  0.000E+00  0.000E+00  4.75145E+01  2.077E-01  2.000E+01  2.000E+04 -1.663E+00
   1   15    4     1     4    1.9937E+05 -3.2207E+04   2.3157E+05  0.000E+00  0.000E+00  0.000E+00  4.70588E+01  2.293E-01  2.000E+01  2.000E+04 -1.610E+00
   1   16    5     1     5    2.3157E+05 -3.3144E+04   2.6472E+05  0.000E+00  0.000E+00  0.000E+00  4.66018E+01  2.495E-01  2.000E+01  2.000E+04 -1.657E+00
   1   16    6     1     6    2.6472E+05 -2.8847E+04   2.9356E+05  0.000E+00  0.000E+00  0.000E+00  4.61428E+01  2.678E-01  2.000E+01  2.000E+04 -1.442E+00
   1   16    7     1     7    2.9356E+05 -2.8530E+04   3.2209E+05  0.000E+00  0.000E+00  0.000E+00  4.56817E+01  2.840E-01  2.000E+01  2.000E+04 -1.426E+00
   1   16    8     1     8    3.2209E+05 -2.8575E+04   3.5067E+05  0.000E+00  0.000E+00  0.000E+00  4.52200E+01  2.995E-01  2.000E+01  2.000E+04 -1.429E+00
   1   16    9     1     9    3.5067E+05 -2.8573E+04   3.7924E+05  0.000E+00  0.000E+00  0.000E+00  4.47577E+01  3.145E-01  2.000E+01  2.000E+04 -1.429E+00
   1   16   10     1    10    3.7924E+05 -2.8601E+04   4.0784E+05  0.000E+00  0.000E+00  0.000E+00  4.42950E+01  3.291E-01  2.000E+01  2.000E+04 -1.430E+00
   1   16   11     1    11    4.0784E+05 -2.9253E+04   4.3710E+05  0.000E+00  0.000E+00  0.000E+00  4.38320E+01  3.434E-01  2.000E+01  2.000E+04 -1.463E+00
   1   16   12     1    12    4.3710E+05 -3.4705E+04   4.7180E+05  0.000E+00  0.000E+00  0.000E+00  4.33701E+01  3.588E-01  2.000E+01  2.000E+04 -1.735E+00
   1   15   13     1    13    4.7180E+05 -3.4272E+04   5.0607E+05  0.000E+00  0.000E+00  0.000E+00  4.29090E+01  3.749E-01  2.000E+01  2.000E+04 -1.714E+00
   1   14   14     1    14    5.0607E+05 -3.5258E+04   5.4133E+05  0.000E+00  0.000E+00  0.000E+00  4.24475E+01  3.906E-01  2.000E+01  2.000E+04 -1.763E+00
   1   13   15     1    15    5.4133E+05 -3.7712E+04   5.7904E+05  0.000E+00  0.000E+00  0.000E+00  4.19863E+01  4.067E-01  2.000E+01  2.000E+04 -1.886E+00
   1   12   16     1    16    5.7904E+05 -4.3926E+04   6.2297E+05  0.000E+00  0.000E+00  0.000E+00  4.15266E+01  4.243E-01  2.000E+01  2.000E+04 -2.196E+00
   1   12   17     1    17    6.2297E+05 -3.4347E+04   6.5732E+05  0.000E+00  0.000E+00  0.000E+00  4.10656E+01  4.406E-01  2.000E+01  2.000E+04 -1.717E+00
   1   12   18     1    18    6.5732E+05 -3.2720E+04   6.9004E+05  0.000E+00  0.000E+00  0.000E+00  4.06021E+01  4.544E-01  2.000E+01  2.000E+04 -1.636E+00
   1   12   19     1    19    6.9004E+05 -3.6872E+04   7.2691E+05  0.000E+00  0.000E+00  0.000E+00  4.01387E+01  4.683E-01  2.000E+01  2.000E+04 -1.844E+00
   1   13   20     1    20    7.2691E+05 -2.7009E+04   7.5392E+05  0.000E+00  0.000E+00  0.000E+00  3.96740E+01  4.808E-01  2.000E+01  2.000E+04 -1.350E+00
   1   14   21     1    21    7.5392E+05 -1.9730E+04   7.7365E+05  0.000E+00  0.000E+00  0.000E+00  3.92058E+01  4.899E-01  2.000E+01  2.000E+04 -9.865E-01
   1   14   22     1    22    7.7365E+05 -1.8045E+03   7.7545E+05  0.000E+00  0.000E+00  0.000E+00  3.87327E+01  4.940E-01  2.000E+01  2.000E+04 -9.022E-02
   1    9   30     2     1    5.0000E+04 -2.6925E+04   7.6925E+04  0.000E+00  0.000E+00  0.000E+00  4.02587E+01  1.337E-01  2.000E+01  2.000E+04 -1.346E+00
   1    9   29     2     2    7.6925E+04 -2.9394E+04   1.0632E+05  0.000E+00  0.000E+00  0.000E+00  4.00416E+01  1.666E-01  2.000E+01  2.000E+04 -1.470E+00
   1    9   28     2     3    1.0632E+05 -3.3698E+04   1.4002E+05  0.000E+00  0.000E+00  0.000E+00  3.98240E+01  1.990E-01  2.000E+01  2.000E+04 -1.685E+00
   1    9   27     2     4    1.4002E+05 -4.7919E+04   1.8794E+05  0.000E+00  0.000E+00  0.000E+00  3.96113E+01  2.363E-01  2.000E+01  2.000E+04 -2.396E+00
   1   10   26     2     5    1.8794E+05 -3.3908E+04   2.2184E+05  0.000E+00  0.000E+00  0.000E+00  3.93951E+01  2.701E-01  2.000E+01  2.000E+04 -1.695E+00
   1   11   25     2     6    2.2184E+05 -2.5540E+04   2.4738E+05  0.000E+00  0.000E+00  0.000E+00  3.91679E+01  2.929E-01  2.000E+01  2.000E+04 -1.277E+00
   1   12   24     2     7    2.4738E+05 -1.8910E+04   2.6629E+05  0.000E+00  0.000E+00  0.000E+00  3.89343E+01  3.093E-01  2.000E+01  2.000E+04 -9.455E-01
   1   13   23     2     8    2.6629E+05 -1.3443E+04   2.7974E+05  0.000E+00  0.000E+00  0.000E+00  3.86958E+01  3.208E-01  2.000E+01  2.000E+04 -6.722E-01
   1   14   22     2     9    2.7974E+05 -7.3952E+03   2.8713E+05  0.000E+00  0.000E+00  0.000E+00  3.84531E+01  3.281E-01  2.000E+01  2.000E+04 -3.698E-01
   1   14   22     3     1    1.0626E+06 -1.5392E+04   1.0780E+06  0.000E+00  0.000E+00  0.000E+00  3.80533E+01  4.977E-01  2.000E+01  2.000E+04 -7.696E-01
   1   15   23     3     2    1.0780E+06 -2.3534E+04   1.1015E+06  0.000E+00  0.000E+00  0.000E+00  3.71698E+01  5.031E-01  2.000E+01  2.000E+04 -1.177E+00
   1   15   24     3     3    1.1015E+06 -1.9657E+04   1.1212E+06  0.000E+00  0.000E+00  0.000E+00  3.62869E+01  5.091E-01  2.000E+01  2.000E+04 -9.829E-01
   1   15   25     3     4    1.1212E+06 -1.9331E+04   1.1405E+06  0.000E+00  0.000E+00  0.000E+00  3.54033E+01  5.144E-01  2.000E+01  2.000E+04 -9.665E-01
   1   15   26     3     5    1.1405E+06 -2.2206E+04   1.1627E+06  0.000E+00  0.000E+00  0.000E+00  3.45201E+01  5.201E-01  2.000E+01  2.000E+04 -1.110E+00
   1   16   27     3     6    1.1627E+06 -2.9278E+04   1.1920E+06  0.000E+00  0.000E+00  0.000E+00  3.36381E+01  5.270E-01  2.000E+01  2.000E+04 -1.464E+00
   1   17   28     3     7    1.1920E+06 -3.6270E+04   1.2283E+06  0.000E+00  0.000E+00  0.000E+00  3.27580E+01  5.358E-01  2.000E+01  2.000E+04 -1.814E+00
   1   18   29     3     8    1.2283E+06 -4.7183E+04   1.2754E+06  0.000E+00  0.000E+00  0.000E+00  3.18801E+01  5.468E-01  2.000E+01  2.000E+04 -2.359E+00
   1   18   30     3     9    1.2754E+06 -4.3733E+04   1.3192E+06  0.000E+00  0.000E+00  0.000E+00  3.10031E+01  5.586E-01  2.000E+01  2.000E+04 -2.187E+00



1
              HEAD IN LAYER   1 AT END OF TIME STEP   1 IN STRESS PERIOD   10
  ---------------------------------------------------------------------------

          1      2      3      4      5      6      7      8      9     10
         11     12     13     14     15     16     17     18     19     20
         21     22     23     24     25     26     27     28     29     30
 .........................................................................
   1  ****** ****** ****** ****** ****** ****** ****** ****** ****** ******
      ****** ****** ****** ****** ****** ****** ****** ****** ****** ******
      ****** ****** ****** ****** ****** ****** ****** ****** ****** ******
   2  ****** ****** ****** ****** ****** ****** ****** ****** ****** ******
      ****** ****** ****** ****** ****** ****** ****** ****** ****** ******
      ****** ****** ****** ****** ****** ****** ****** ****** ****** ******
   3  ****** ****** ****** ****** ****** ****** ****** ****** ****** ******
      ****** ****** ****** ****** ****** ****** ****** ****** ****** ******
      ****** ****** ****** ****** ****** ****** ****** ****** ****** ******
   4  ****** ****** ****** ****** ****** ****** ****** ****** ****** ******
      ****** ****** ****** ****** ****** ****** ****** ****** ****** ******
      ****** ****** ****** ****** ****** ****** ****** ****** ****** ******
   5  ****** ****** ****** ****** ****** ****** ****** ****** ****** ******
      ****** ****** ****** ****** ****** ****** ****** ****** ****** ******
      ****** ****** ****** ****** ****** ****** ****** ****** ****** ******
   6  ****** ****** ****** ****** ****** ****** ****** ****** ****** ******
      ****** ****** ****** ****** ****** ****** ****** ****** ****** ******
      ****** ****** ****** ****** ****** ****** ****** ****** ****** ******
   7  ****** ****** ****** ****** ****** ****** ****** ****** ****** ******
      ****** ****** ****** ****** ****** ****** ****** ****** ****** ******
      ****** ****** ****** ****** ****** ****** ****** ****** ****** ******
   8  ****** ****** ****** ****** ****** ****** ****** ****** ****** ******
      ****** ****** ****** ****** ****** ****** ****** ****** ****** ******
      ****** ****** ****** ****** ****** ****** ****** ****** ****** ******
   9  ****** ****** ****** ****** ****** ****** ****** ****** ****** ******
      ****** ****** ****** ****** ****** ****** ****** ****** ****** ******
      ****** ****** ****** ****** ****** ****** ****** ****** ****** ******
  10  ****** ****** ****** ****** ****** ****** ****** ****** ****** ******
      ****** ****** ****** ****** ****** ****** ****** ****** ****** ******
      ****** ****** ****** ****** ****** ****** ****** ****** ****** ******
  11  ****** ****** ****** ****** ****** ****** ****** ****** ****** ******
      ****** ****** ****** ****** ****** ****** ****** ****** ****** ******
      ****** ****** ****** ****** ****** ****** ****** ****** ****** ******
  12  ****** ****** ****** ****** ****** ****** ****** ****** ****** ******
      ****** ****** ****** ****** ****** ****** ****** ****** ****** ******
      ****** ****** ****** ****** ****** ****** ****** ****** ****** ******
  13  ****** ****** ****** ****** ****** ****** ****** ****** ****** ******
      ****** ****** ****** ****** ****** ****** ****** ****** ****** ******
      ****** ****** ****** ****** ****** ****** ****** ****** ****** ******
  14  ****** ****** ****** ****** ****** ****** ****** ****** ****** ******
      ****** ****** ****** ****** ****** ****** ****** ****** ****** ******
      ****** ****** ****** ****** ****** ****** ****** ****** ****** ******
  15  ****** ****** ****** ****** ****** ****** ****** ****** ****** ******
      ****** ****** ****** ****** ****** ****** ****** ****** ****** ******
      ****** ****** ****** ****** ****** ****** ****** ****** ****** ******
  16  ****** ****** ****** ****** ****** ****** ****** ****** ****** ******
      ****** ****** ****** ****** ****** ****** ****** ****** ****** ******
      ****** ****** ****** ****** ****** ****** ****** ****** ****** ******
  17  ****** ****** ****** ****** ****** ****** ****** ****** ****** ******
      ****** ****** ****** ****** ****** ****** ****** ****** ****** ******
      ****** ****** ****** ****** ****** ****** ****** ****** ****** ******
  18  ****** ****** ****** ****** ****** ****** ****** ****** ****** ******
      ****** ****** ****** ****** ****** ****** ****** ****** ****** ******
      ****** ****** ****** ****** ****** ****** ****** ****** ****** ******
  19  ****** ****** ****** ****** ****** ****** ****** ****** ****** ******
      ****** ****** ****** ****** ****** ****** ****** ****** ****** ******
      ****** ****** ****** ****** ****** ****** ****** ****** ****** ******
  20  ****** ****** ****** ****** ****** ****** ****** ****** ****** ******
      ****** ****** ****** ****** ****** ****** ****** ****** ****** ******
      ****** ****** ****** ****** ****** ****** ****** ****** ****** ******
  21  ****** ****** ****** ****** ****** ****** ****** ****** ****** ******
      ****** ****** ****** ****** ****** ****** ****** ****** ****** ******
      ****** ****** ****** ****** ****** ****** ****** ****** ****** ******
  22  ****** ****** ****** ****** ****** ****** ****** ****** ****** ******
      ****** ****** ****** ****** ****** ****** ****** ****** ****** ******
      ****** ****** ****** ****** ****** ****** ****** ****** ****** ******
  23  ****** ****** ****** ****** ****** ****** ****** ****** ****** ******
      ****** ****** ****** ****** ****** ****** ****** ****** ****** ******
      ****** ****** ****** ****** ****** ****** ****** ****** ****** ******
  24  ****** ****** ****** ****** ****** ****** ****** ****** ****** ******
      ****** ****** ****** ****** ****** ****** ****** ****** ****** ******
      ****** ****** ****** ****** ****** ****** ****** ****** ****** ******
  25  ****** ****** ****** ****** ****** ****** ****** ****** ****** ******
      ****** ****** ****** ****** ****** ****** ****** ****** ****** ******
      ****** ****** ****** ****** ****** ****** ****** ****** ****** ******

 HEAD WILL BE SAVED ON UNIT   51 AT END OF TIME STEP    1, STRESS PERIOD   10
1
  VOLUMETRIC BUDGET FOR ENTIRE MODEL AT END OF TIME STEP    1, STRESS PERIOD  10
  ------------------------------------------------------------------------------

     CUMULATIVE VOLUMES      L**3       RATES FOR THIS TIME STEP      L**3/T
     ------------------                 ------------------------

           IN:                                      IN:
           ---                                      ---
             STORAGE =    20476433.8429               STORAGE =           0.0000
       CONSTANT HEAD =  1151403259.4312         CONSTANT HEAD =     1253072.7222
               WELLS =           0.0000                 WELLS =           0.0000
            RECHARGE =    23901600.0000              RECHARGE =       55200.0000
      STREAM LEAKAGE =           0.0000        STREAM LEAKAGE =           0.0000

            TOTAL IN =  1195781293.2741              TOTAL IN =     1308272.7222

          OUT:                                     OUT:
          ----                                     ----
             STORAGE =      563721.8233               STORAGE =        1938.1222
       CONSTANT HEAD =           0.0000         CONSTANT HEAD =           0.0000
               WELLS =   127972645.8409                 WELLS =      137165.7961
            RECHARGE =           0.0000              RECHARGE =           0.0000
      STREAM LEAKAGE =  1067244934.9571        STREAM LEAKAGE =     1169168.7703

           TOTAL OUT =  1195781302.6213             TOTAL OUT =     1308272.6887

            IN - OUT =          -9.3472              IN - OUT =       3.3531E-02

 PERCENT DISCREPANCY =          -0.00     PERCENT DISCREPANCY =           0.00






         TIME SUMMARY AT END OF TIME STEP    1 IN STRESS PERIOD   10
                    SECONDS     MINUTES      HOURS       DAYS        YEARS
                    -----------------------------------------------------------
   TIME STEP LENGTH 7.86240E+06 1.31040E+05  2184.0      91.000     0.24914    
 STRESS PERIOD TIME 7.86240E+06 1.31040E+05  2184.0      91.000     0.24914    
         TOTAL TIME 7.88832E+07 1.31472E+06  21912.      913.00      2.4997    
1
1
                            STRESS PERIOD NO.   11, LENGTH =   91.00000    
                            -----------------------------------------------

                              NUMBER OF TIME STEPS =     1

                               MULTIPLIER FOR DELT =     1.500

                            INITIAL TIME STEP SIZE =   91.00000    

 WELL NO.  LAYER   ROW   COL   STRESS RATE         
 --------------------------------------------------
      1      1     22      9     -0.3717E+05
      2      1     24     11     -0.5000E+05
      3      1     24     23     -0.5000E+05

      3 WELLS

                 RECHARGE =   0.00000    

 REUSING STREAM SEGMENT DATA FROM LAST STRESS PERIOD
 
 SOLVING FOR HEAD 


     6 CALLS TO PCG ROUTINE FOR TIME STEP   1 IN STRESS PERIOD   11
    22 TOTAL ITERATIONS

 OUTPUT CONTROL FOR STRESS PERIOD   11   TIME STEP    1
    SAVE BUDGET
    SAVE HEAD FOR ALL LAYERS
    PRINT HEAD FOR ALL LAYERS
 UBDSV2 SAVING "STREAMFLOW OUT  " ON UNIT  50 AT TIME STEP  1, STRESS PERIOD  11



 STREAM LISTING     PERIOD     11   STEP        1

 LAYER ROW COL. STREAM  RCH.  FLOW INTO     FLOW TO   FLOW OUT OF   OVRLND.     DIRECT     STREAM       STREAM     STREAM     STREAM   STREAMBED  STREAMBED
                SEG.NO.  NO.  STRM. RCH.    AQUIFER    STRM. RCH.    RUNOFF     PRECIP       ET          HEAD       DEPTH      WIDTH   CONDCTNC.   GRADIENT

   1   13    1     1     1    1.0000E+05 -2.7289E+04   1.2729E+05  0.000E+00  0.000E+00  0.000E+00  4.84176E+01  1.562E-01  2.000E+01  2.000E+04 -1.364E+00
   1   13    2     1     2    1.2729E+05 -3.6971E+04   1.6426E+05  0.000E+00  0.000E+00  0.000E+00  4.79654E+01  1.814E-01  2.000E+01  2.000E+04 -1.849E+00
   1   14    3     1     3    1.6426E+05 -3.2259E+04   1.9652E+05  0.000E+00  0.000E+00  0.000E+00  4.75129E+01  2.061E-01  2.000E+01  2.000E+04 -1.613E+00
   1   15    4     1     4    1.9652E+05 -3.1253E+04   2.2777E+05  0.000E+00  0.000E+00  0.000E+00  4.70567E+01  2.271E-01  2.000E+01  2.000E+04 -1.563E+00
   1   16    5     1     5    2.2777E+05 -3.2282E+04   2.6005E+05  0.000E+00  0.000E+00  0.000E+00  4.65993E+01  2.470E-01  2.000E+01  2.000E+04 -1.614E+00
   1   16    6     1     6    2.6005E+05 -2.8097E+04   2.8815E+05  0.000E+00  0.000E+00  0.000E+00  4.61399E+01  2.649E-01  2.000E+01  2.000E+04 -1.405E+00
   1   16    7     1     7    2.8815E+05 -2.7788E+04   3.1594E+05  0.000E+00  0.000E+00  0.000E+00  4.56785E+01  2.808E-01  2.000E+01  2.000E+04 -1.389E+00
   1   16    8     1     8    3.1594E+05 -2.7831E+04   3.4377E+05  0.000E+00  0.000E+00  0.000E+00  4.52165E+01  2.960E-01  2.000E+01  2.000E+04 -1.392E+00
   1   16    9     1     9    3.4377E+05 -2.7830E+04   3.7160E+05  0.000E+00  0.000E+00  0.000E+00  4.47539E+01  3.108E-01  2.000E+01  2.000E+04 -1.391E+00
   1   16   10     1    10    3.7160E+05 -2.7859E+04   3.9946E+05  0.000E+00  0.000E+00  0.000E+00  4.42910E+01  3.251E-01  2.000E+01  2.000E+04 -1.393E+00
   1   16   11     1    11    3.9946E+05 -2.8502E+04   4.2796E+05  0.000E+00  0.000E+00  0.000E+00  4.38277E+01  3.391E-01  2.000E+01  2.000E+04 -1.425E+00
   1   16   12     1    12    4.2796E+05 -3.3829E+04   4.6179E+05  0.000E+00  0.000E+00  0.000E+00  4.33656E+01  3.542E-01  2.000E+01  2.000E+04 -1.691E+00
   1   15   13     1    13    4.6179E+05 -3.3306E+04   4.9510E+05  0.000E+00  0.000E+00  0.000E+00  4.29041E+01  3.700E-01  2.000E+01  2.000E+04 -1.665E+00
   1   14   14     1    14    4.9510E+05 -3.4261E+04   5.2936E+05  0.000E+00  0.000E+00  0.000E+00  4.24423E+01  3.855E-01  2.000E+01  2.000E+04 -1.713E+00
   1   13   15     1    15    5.2936E+05 -3.6723E+04   5.6608E+05  0.000E+00  0.000E+00  0.000E+00  4.19808E+01  4.013E-01  2.000E+01  2.000E+04 -1.836E+00
   1   12   16     1    16    5.6608E+05 -4.2972E+04   6.0905E+05  0.000E+00  0.000E+00  0.000E+00  4.15208E+01  4.186E-01  2.000E+01  2.000E+04 -2.149E+00
   1   12   17     1    17    6.0905E+05 -3.3577E+04   6.4263E+05  0.000E+00  0.000E+00  0.000E+00  4.10597E+01  4.347E-01  2.000E+01  2.000E+04 -1.679E+00
   1   12   18     1    18    6.4263E+05 -3.1984E+04   6.7461E+05  0.000E+00  0.000E+00  0.000E+00  4.05960E+01  4.482E-01  2.000E+01  2.000E+04 -1.599E+00
   1   12   19     1    19    6.7461E+05 -3.6068E+04   7.1068E+05  0.000E+00  0.000E+00  0.000E+00  4.01324E+01  4.620E-01  2.000E+01  2.000E+04 -1.803E+00
   1   13   20     1    20    7.1068E+05 -2.6255E+04   7.3694E+05  0.000E+00  0.000E+00  0.000E+00  3.96675E+01  4.743E-01  2.000E+01  2.000E+04 -1.313E+00
   1   14   21     1    21    7.3694E+05 -1.9080E+04   7.5602E+05  0.000E+00  0.000E+00  0.000E+00  3.91991E+01  4.832E-01  2.000E+01  2.000E+04 -9.540E-01
   1   14   22     1    22    7.5602E+05 -1.5757E+03   7.5759E+05  0.000E+00  0.000E+00  0.000E+00  3.87258E+01  4.872E-01  2.000E+01  2.000E+04 -7.879E-02
   1    9   30     2     1    5.0000E+04 -2.6340E+04   7.6340E+04  0.000E+00  0.000E+00  0.000E+00  4.02583E+01  1.333E-01  2.000E+01  2.000E+04 -1.317E+00
   1    9   29     2     2    7.6340E+04 -2.8809E+04   1.0515E+05  0.000E+00  0.000E+00  0.000E+00  4.00407E+01  1.657E-01  2.000E+01  2.000E+04 -1.440E+00
   1    9   28     2     3    1.0515E+05 -3.3093E+04   1.3824E+05  0.000E+00  0.000E+00  0.000E+00  3.98226E+01  1.976E-01  2.000E+01  2.000E+04 -1.655E+00
   1    9   27     2     4    1.3824E+05 -4.7179E+04   1.8542E+05  0.000E+00  0.000E+00  0.000E+00  3.96094E+01  2.344E-01  2.000E+01  2.000E+04 -2.359E+00
   1   10   26     2     5    1.8542E+05 -3.3140E+04   2.1856E+05  0.000E+00  0.000E+00  0.000E+00  3.93928E+01  2.678E-01  2.000E+01  2.000E+04 -1.657E+00
   1   11   25     2     6    2.1856E+05 -2.4799E+04   2.4336E+05  0.000E+00  0.000E+00  0.000E+00  3.91652E+01  2.902E-01  2.000E+01  2.000E+04 -1.240E+00
   1   12   24     2     7    2.4336E+05 -1.8247E+04   2.6161E+05  0.000E+00  0.000E+00  0.000E+00  3.89311E+01  3.061E-01  2.000E+01  2.000E+04 -9.124E-01
   1   13   23     2     8    2.6161E+05 -1.2904E+04   2.7451E+05  0.000E+00  0.000E+00  0.000E+00  3.86923E+01  3.173E-01  2.000E+01  2.000E+04 -6.452E-01
   1   14   22     2     9    2.7451E+05 -7.1049E+03   2.8162E+05  0.000E+00  0.000E+00  0.000E+00  3.84494E+01  3.244E-01  2.000E+01  2.000E+04 -3.552E-01
   1   14   22     3     1    1.0392E+06 -1.5158E+04   1.0544E+06  0.000E+00  0.000E+00  0.000E+00  3.80467E+01  4.912E-01  2.000E+01  2.000E+04 -7.579E-01
   1   15   23     3     2    1.0544E+06 -2.2929E+04   1.0773E+06  0.000E+00  0.000E+00  0.000E+00  3.71632E+01  4.965E-01  2.000E+01  2.000E+04 -1.146E+00
   1   15   24     3     3    1.0773E+06 -1.9157E+04   1.0965E+06  0.000E+00  0.000E+00  0.000E+00  3.62801E+01  5.024E-01  2.000E+01  2.000E+04 -9.578E-01
   1   15   25     3     4    1.0965E+06 -1.8833E+04   1.1153E+06  0.000E+00  0.000E+00  0.000E+00  3.53965E+01  5.076E-01  2.000E+01  2.000E+04 -9.416E-01
   1   15   26     3     5    1.1153E+06 -2.1625E+04   1.1369E+06  0.000E+00  0.000E+00  0.000E+00  3.45132E+01  5.132E-01  2.000E+01  2.000E+04 -1.081E+00
   1   16   27     3     6    1.1369E+06 -2.8578E+04   1.1655E+06  0.000E+00  0.000E+00  0.000E+00  3.36311E+01  5.200E-01  2.000E+01  2.000E+04 -1.429E+00
   1   17   28     3     7    1.1655E+06 -3.5553E+04   1.2010E+06  0.000E+00  0.000E+00  0.000E+00  3.27508E+01  5.286E-01  2.000E+01  2.000E+04 -1.778E+00
   1   18   29     3     8    1.2010E+06 -4.6510E+04   1.2476E+06  0.000E+00  0.000E+00  0.000E+00  3.18729E+01  5.396E-01  2.000E+01  2.000E+04 -2.326E+00
   1   18   30     3     9    1.2476E+06 -4.3172E+04   1.2907E+06  0.000E+00  0.000E+00  0.000E+00  3.09958E+01  5.513E-01  2.000E+01  2.000E+04 -2.159E+00



1
              HEAD IN LAYER   1 AT END OF TIME STEP   1 IN STRESS PERIOD   11
  ---------------------------------------------------------------------------

          1      2      3      4      5      6      7      8      9     10
         11     12     13     14     15     16     17     18     19     20
         21     22     23     24     25     26     27     28     29     30
 .........................................................................
   1  ****** ****** ****** ****** ****** ****** ****** ****** ****** ******
      ****** ****** ****** ****** ****** ****** ****** ****** ****** ******
      ****** ****** ****** ****** ****** ****** ****** ****** ****** ******
   2  ****** ****** ****** ****** ****** ****** ****** ****** ****** ******
      ****** ****** ****** ****** ****** ****** ****** ****** ****** ******
      ****** ****** ****** ****** ****** ****** ****** ****** ****** ******
   3  ****** ****** ****** ****** ****** ****** ****** ****** ****** ******
      ****** ****** ****** ****** ****** ****** ****** ****** ****** ******
      ****** ****** ****** ****** ****** ****** ****** ****** ****** ******
   4  ****** ****** ****** ****** ****** ****** ****** ****** ****** ******
      ****** ****** ****** ****** ****** ****** ****** ****** ****** ******
      ****** ****** ****** ****** ****** ****** ****** ****** ****** ******
   5  ****** ****** ****** ****** ****** ****** ****** ****** ****** ******
      ****** ****** ****** ****** ****** ****** ****** ****** ****** ******
      ****** ****** ****** ****** ****** ****** ****** ****** ****** ******
   6  ****** ****** ****** ****** ****** ****** ****** ****** ****** ******
      ****** ****** ****** ****** ****** ****** ****** ****** ****** ******
      ****** ****** ****** ****** ****** ****** ****** ****** ****** ******
   7  ****** ****** ****** ****** ****** ****** ****** ****** ****** ******
      ****** ****** ****** ****** ****** ****** ****** ****** ****** ******
      ****** ****** ****** ****** ****** ****** ****** ****** ****** ******
   8  ****** ****** ****** ****** ****** ****** ****** ****** ****** ******
      ****** ****** ****** ****** ****** ****** ****** ****** ****** ******
      ****** ****** ****** ****** ****** ****** ****** ****** ****** ******
   9  ****** ****** ****** ****** ****** ****** ****** ****** ****** ******
      ****** ****** ****** ****** ****** ****** ****** ****** ****** ******
      ****** ****** ****** ****** ****** ****** ****** ****** ****** ******
  10  ****** ****** ****** ****** ****** ****** ****** ****** ****** ******
      ****** ****** ****** ****** ****** ****** ****** ****** ****** ******
      ****** ****** ****** ****** ****** ****** ****** ****** ****** ******
  11  ****** ****** ****** ****** ****** ****** ****** ****** ****** ******
      ****** ****** ****** ****** ****** ****** ****** ****** ****** ******
      ****** ****** ****** ****** ****** ****** ****** ****** ****** ******
  12  ****** ****** ****** ****** ****** ****** ****** ****** ****** ******
      ****** ****** ****** ****** ****** ****** ****** ****** ****** ******
      ****** ****** ****** ****** ****** ****** ****** ****** ****** ******
  13  ****** ****** ****** ****** ****** ****** ****** ****** ****** ******
      ****** ****** ****** ****** ****** ****** ****** ****** ****** ******
      ****** ****** ****** ****** ****** ****** ****** ****** ****** ******
  14  ****** ****** ****** ****** ****** ****** ****** ****** ****** ******
      ****** ****** ****** ****** ****** ****** ****** ****** ****** ******
      ****** ****** ****** ****** ****** ****** ****** ****** ****** ******
  15  ****** ****** ****** ****** ****** ****** ****** ****** ****** ******
      ****** ****** ****** ****** ****** ****** ****** ****** ****** ******
      ****** ****** ****** ****** ****** ****** ****** ****** ****** ******
  16  ****** ****** ****** ****** ****** ****** ****** ****** ****** ******
      ****** ****** ****** ****** ****** ****** ****** ****** ****** ******
      ****** ****** ****** ****** ****** ****** ****** ****** ****** ******
  17  ****** ****** ****** ****** ****** ****** ****** ****** ****** ******
      ****** ****** ****** ****** ****** ****** ****** ****** ****** ******
      ****** ****** ****** ****** ****** ****** ****** ****** ****** ******
  18  ****** ****** ****** ****** ****** ****** ****** ****** ****** ******
      ****** ****** ****** ****** ****** ****** ****** ****** ****** ******
      ****** ****** ****** ****** ****** ****** ****** ****** ****** ******
  19  ****** ****** ****** ****** ****** ****** ****** ****** ****** ******
      ****** ****** ****** ****** ****** ****** ****** ****** ****** ******
      ****** ****** ****** ****** ****** ****** ****** ****** ****** ******
  20  ****** ****** ****** ****** ****** ****** ****** ****** ****** ******
      ****** ****** ****** ****** ****** ****** ****** ****** ****** ******
      ****** ****** ****** ****** ****** ****** ****** ****** ****** ******
  21  ****** ****** ****** ****** ****** ****** ****** ****** ****** ******
      ****** ****** ****** ****** ****** ****** ****** ****** ****** ******
      ****** ****** ****** ****** ****** ****** ****** ****** ****** ******
  22  ****** ****** ****** ****** ****** ****** ****** ****** ****** ******
      ****** ****** ****** ****** ****** ****** ****** ****** ****** ******
      ****** ****** ****** ****** ****** ****** ****** ****** ****** ******
  23  ****** ****** ****** ****** ****** ****** ****** ****** ****** ******
      ****** ****** ****** ****** ****** ****** ****** ****** ****** ******
      ****** ****** ****** ****** ****** ****** ****** ****** ****** ******
  24  ****** ****** ****** ****** ****** ****** ****** ****** ****** ******
      ****** ****** ****** ****** ****** ****** ****** ****** ****** ******
      ****** ****** ****** ****** ****** ****** ****** ****** ****** ******
  25  ****** ****** ****** ****** ****** ****** ****** ****** ****** ******
      ****** ****** ****** ****** ****** ****** ****** ****** ****** ******
      ****** ****** ****** ****** ****** ****** ****** ****** ****** ******

 HEAD WILL BE SAVED ON UNIT   51 AT END OF TIME STEP    1, STRESS PERIOD   11
1
  VOLUMETRIC BUDGET FOR ENTIRE MODEL AT END OF TIME STEP    1, STRESS PERIOD  11
  ------------------------------------------------------------------------------

     CUMULATIVE VOLUMES      L**3       RATES FOR THIS TIME STEP      L**3/T
     ------------------                 ------------------------

           IN:                                      IN:
           ---                                      ---
             STORAGE =    20705434.5900               STORAGE =        2516.4917
       CONSTANT HEAD =  1267462106.0406         CONSTANT HEAD =     1275371.9408
               WELLS =           0.0000                 WELLS =           0.0000
            RECHARGE =    23901600.0000              RECHARGE =           0.0000
      STREAM LEAKAGE =           0.0000        STREAM LEAKAGE =           0.0000

            TOTAL IN =  1312069140.6305              TOTAL IN =     1277888.4325

          OUT:                                     OUT:
          ----                                     ----
             STORAGE =      563721.8233               STORAGE =           0.0000
       CONSTANT HEAD =           0.0000         CONSTANT HEAD =           0.0000
               WELLS =   140454733.2861                 WELLS =      137165.7961
            RECHARGE =           0.0000              RECHARGE =           0.0000
      STREAM LEAKAGE =  1171050698.9419        STREAM LEAKAGE =     1140722.6812

           TOTAL OUT =  1312069154.0513             TOTAL OUT =     1277888.4773

            IN - OUT =         -13.4208              IN - OUT =      -4.4765E-02

 PERCENT DISCREPANCY =          -0.00     PERCENT DISCREPANCY =          -0.00






         TIME SUMMARY AT END OF TIME STEP    1 IN STRESS PERIOD   11
                    SECONDS     MINUTES      HOURS       DAYS        YEARS
                    -----------------------------------------------------------
   TIME STEP LENGTH 7.86240E+06 1.31040E+05  2184.0      91.000     0.24914    
 STRESS PERIOD TIME 7.86240E+06 1.31040E+05  2184.0      91.000     0.24914    
         TOTAL TIME 8.67456E+07 1.44576E+06  24096.      1004.0      2.7488    
1
1
                            STRESS PERIOD NO.   12, LENGTH =   91.00000    
                            -----------------------------------------------

                              NUMBER OF TIME STEPS =     1

                               MULTIPLIER FOR DELT =     1.500

                            INITIAL TIME STEP SIZE =   91.00000    

 WELL NO.  LAYER   ROW   COL   STRESS RATE         
 --------------------------------------------------
      1      1     22      9     -0.3717E+05
      2      1     24     11     -0.5000E+05
      3      1     24     23     -0.5000E+05

      3 WELLS

                 RECHARGE =  1.000000E-03

 REUSING STREAM SEGMENT DATA FROM LAST STRESS PERIOD
 
 SOLVING FOR HEAD 


     6 CALLS TO PCG ROUTINE FOR TIME STEP   1 IN STRESS PERIOD   12
    22 TOTAL ITERATIONS

 OUTPUT CONTROL FOR STRESS PERIOD   12   TIME STEP    1
    SAVE BUDGET
    SAVE HEAD FOR ALL LAYERS
    PRINT HEAD FOR ALL LAYERS
 UBDSV2 SAVING "STREAMFLOW OUT  " ON UNIT  50 AT TIME STEP  1, STRESS PERIOD  12



 STREAM LISTING     PERIOD     12   STEP        1

 LAYER ROW COL. STREAM  RCH.  FLOW INTO     FLOW TO   FLOW OUT OF   OVRLND.     DIRECT     STREAM       STREAM     STREAM     STREAM   STREAMBED  STREAMBED
                SEG.NO.  NO.  STRM. RCH.    AQUIFER    STRM. RCH.    RUNOFF     PRECIP       ET          HEAD       DEPTH      WIDTH   CONDCTNC.   GRADIENT

   1   13    1     1     1    1.0000E+05 -2.7682E+04   1.2768E+05  0.000E+00  0.000E+00  0.000E+00  4.84177E+01  1.564E-01  2.000E+01  2.000E+04 -1.384E+00
   1   13    2     1     2    1.2768E+05 -3.7438E+04   1.6512E+05  0.000E+00  0.000E+00  0.000E+00  4.79659E+01  1.818E-01  2.000E+01  2.000E+04 -1.872E+00
   1   14    3     1     3    1.6512E+05 -3.2721E+04   1.9784E+05  0.000E+00  0.000E+00  0.000E+00  4.75137E+01  2.068E-01  2.000E+01  2.000E+04 -1.636E+00
   1   15    4     1     4    1.9784E+05 -3.1700E+04   2.2954E+05  0.000E+00  0.000E+00  0.000E+00  4.70577E+01  2.281E-01  2.000E+01  2.000E+04 -1.585E+00
   1   16    5     1     5    2.2954E+05 -3.2687E+04   2.6223E+05  0.000E+00  0.000E+00  0.000E+00  4.66005E+01  2.482E-01  2.000E+01  2.000E+04 -1.634E+00
   1   16    6     1     6    2.6223E+05 -2.8449E+04   2.9068E+05  0.000E+00  0.000E+00  0.000E+00  4.61413E+01  2.663E-01  2.000E+01  2.000E+04 -1.422E+00
   1   16    7     1     7    2.9068E+05 -2.8136E+04   3.1881E+05  0.000E+00  0.000E+00  0.000E+00  4.56800E+01  2.823E-01  2.000E+01  2.000E+04 -1.407E+00
   1   16    8     1     8    3.1881E+05 -2.8180E+04   3.4699E+05  0.000E+00  0.000E+00  0.000E+00  4.52181E+01  2.977E-01  2.000E+01  2.000E+04 -1.409E+00
   1   16    9     1     9    3.4699E+05 -2.8179E+04   3.7517E+05  0.000E+00  0.000E+00  0.000E+00  4.47557E+01  3.125E-01  2.000E+01  2.000E+04 -1.409E+00
   1   16   10     1    10    3.7517E+05 -2.8207E+04   4.0338E+05  0.000E+00  0.000E+00  0.000E+00  4.42929E+01  3.269E-01  2.000E+01  2.000E+04 -1.410E+00
   1   16   11     1    11    4.0338E+05 -2.8855E+04   4.3223E+05  0.000E+00  0.000E+00  0.000E+00  4.38298E+01  3.411E-01  2.000E+01  2.000E+04 -1.443E+00
   1   16   12     1    12    4.3223E+05 -3.4241E+04   4.6647E+05  0.000E+00  0.000E+00  0.000E+00  4.33677E+01  3.564E-01  2.000E+01  2.000E+04 -1.712E+00
   1   15   13     1    13    4.6647E+05 -3.3759E+04   5.0023E+05  0.000E+00  0.000E+00  0.000E+00  4.29064E+01  3.723E-01  2.000E+01  2.000E+04 -1.688E+00
   1   14   14     1    14    5.0023E+05 -3.4727E+04   5.3496E+05  0.000E+00  0.000E+00  0.000E+00  4.24447E+01  3.879E-01  2.000E+01  2.000E+04 -1.736E+00
   1   13   15     1    15    5.3496E+05 -3.7185E+04   5.7214E+05  0.000E+00  0.000E+00  0.000E+00  4.19834E+01  4.038E-01  2.000E+01  2.000E+04 -1.859E+00
   1   12   16     1    16    5.7214E+05 -4.3416E+04   6.1556E+05  0.000E+00  0.000E+00  0.000E+00  4.15235E+01  4.212E-01  2.000E+01  2.000E+04 -2.171E+00
   1   12   17     1    17    6.1556E+05 -3.3938E+04   6.4950E+05  0.000E+00  0.000E+00  0.000E+00  4.10625E+01  4.375E-01  2.000E+01  2.000E+04 -1.697E+00
   1   12   18     1    18    6.4950E+05 -3.2329E+04   6.8183E+05  0.000E+00  0.000E+00  0.000E+00  4.05988E+01  4.511E-01  2.000E+01  2.000E+04 -1.616E+00
   1   12   19     1    19    6.8183E+05 -3.6446E+04   7.1827E+05  0.000E+00  0.000E+00  0.000E+00  4.01354E+01  4.649E-01  2.000E+01  2.000E+04 -1.822E+00
   1   13   20     1    20    7.1827E+05 -2.6612E+04   7.4489E+05  0.000E+00  0.000E+00  0.000E+00  3.96706E+01  4.774E-01  2.000E+01  2.000E+04 -1.331E+00
   1   14   21     1    21    7.4489E+05 -1.9388E+04   7.6427E+05  0.000E+00  0.000E+00  0.000E+00  3.92023E+01  4.863E-01  2.000E+01  2.000E+04 -9.694E-01
   1   14   22     1    22    7.6427E+05 -1.6854E+03   7.6596E+05  0.000E+00  0.000E+00  0.000E+00  3.87290E+01  4.904E-01  2.000E+01  2.000E+04 -8.427E-02
   1    9   30     2     1    5.0000E+04 -2.6621E+04   7.6621E+04  0.000E+00  0.000E+00  0.000E+00  4.02585E+01  1.335E-01  2.000E+01  2.000E+04 -1.331E+00
   1    9   29     2     2    7.6621E+04 -2.9090E+04   1.0571E+05  0.000E+00  0.000E+00  0.000E+00  4.00411E+01  1.661E-01  2.000E+01  2.000E+04 -1.454E+00
   1    9   28     2     3    1.0571E+05 -3.3383E+04   1.3909E+05  0.000E+00  0.000E+00  0.000E+00  3.98233E+01  1.983E-01  2.000E+01  2.000E+04 -1.669E+00
   1    9   27     2     4    1.3909E+05 -4.7532E+04   1.8663E+05  0.000E+00  0.000E+00  0.000E+00  3.96103E+01  2.353E-01  2.000E+01  2.000E+04 -2.377E+00
   1   10   26     2     5    1.8663E+05 -3.3506E+04   2.2013E+05  0.000E+00  0.000E+00  0.000E+00  3.93939E+01  2.689E-01  2.000E+01  2.000E+04 -1.675E+00
   1   11   25     2     6    2.2013E+05 -2.5153E+04   2.4529E+05  0.000E+00  0.000E+00  0.000E+00  3.91665E+01  2.915E-01  2.000E+01  2.000E+04 -1.258E+00
   1   12   24     2     7    2.4529E+05 -1.8564E+04   2.6385E+05  0.000E+00  0.000E+00  0.000E+00  3.89326E+01  3.076E-01  2.000E+01  2.000E+04 -9.282E-01
   1   13   23     2     8    2.6385E+05 -1.3162E+04   2.7701E+05  0.000E+00  0.000E+00  0.000E+00  3.86940E+01  3.190E-01  2.000E+01  2.000E+04 -6.581E-01
   1   14   22     2     9    2.7701E+05 -7.2428E+03   2.8425E+05  0.000E+00  0.000E+00  0.000E+00  3.84512E+01  3.262E-01  2.000E+01  2.000E+04 -3.621E-01
   1   14   22     3     1    1.0502E+06 -1.5270E+04   1.0655E+06  0.000E+00  0.000E+00  0.000E+00  3.80498E+01  4.943E-01  2.000E+01  2.000E+04 -7.635E-01
   1   15   23     3     2    1.0655E+06 -2.3217E+04   1.0887E+06  0.000E+00  0.000E+00  0.000E+00  3.71663E+01  4.996E-01  2.000E+01  2.000E+04 -1.161E+00
   1   15   24     3     3    1.0887E+06 -1.9396E+04   1.1081E+06  0.000E+00  0.000E+00  0.000E+00  3.62833E+01  5.055E-01  2.000E+01  2.000E+04 -9.698E-01
   1   15   25     3     4    1.1081E+06 -1.9072E+04   1.1272E+06  0.000E+00  0.000E+00  0.000E+00  3.53997E+01  5.108E-01  2.000E+01  2.000E+04 -9.536E-01
   1   15   26     3     5    1.1272E+06 -2.1905E+04   1.1491E+06  0.000E+00  0.000E+00  0.000E+00  3.45164E+01  5.164E-01  2.000E+01  2.000E+04 -1.095E+00
   1   16   27     3     6    1.1491E+06 -2.8915E+04   1.1780E+06  0.000E+00  0.000E+00  0.000E+00  3.36344E+01  5.233E-01  2.000E+01  2.000E+04 -1.446E+00
   1   17   28     3     7    1.1780E+06 -3.5897E+04   1.2139E+06  0.000E+00  0.000E+00  0.000E+00  3.27542E+01  5.320E-01  2.000E+01  2.000E+04 -1.795E+00
   1   18   29     3     8    1.2139E+06 -4.6833E+04   1.2607E+06  0.000E+00  0.000E+00  0.000E+00  3.18763E+01  5.430E-01  2.000E+01  2.000E+04 -2.342E+00
   1   18   30     3     9    1.2607E+06 -4.3442E+04   1.3042E+06  0.000E+00  0.000E+00  0.000E+00  3.09992E+01  5.548E-01  2.000E+01  2.000E+04 -2.172E+00



1
              HEAD IN LAYER   1 AT END OF TIME STEP   1 IN STRESS PERIOD   12
  ---------------------------------------------------------------------------

          1      2      3      4      5      6      7      8      9     10
         11     12     13     14     15     16     17     18     19     20
         21     22     23     24     25     26     27     28     29     30
 .........................................................................
   1  ****** ****** ****** ****** ****** ****** ****** ****** ****** ******
      ****** ****** ****** ****** ****** ****** ****** ****** ****** ******
      ****** ****** ****** ****** ****** ****** ****** ****** ****** ******
   2  ****** ****** ****** ****** ****** ****** ****** ****** ****** ******
      ****** ****** ****** ****** ****** ****** ****** ****** ****** ******
      ****** ****** ****** ****** ****** ****** ****** ****** ****** ******
   3  ****** ****** ****** ****** ****** ****** ****** ****** ****** ******
      ****** ****** ****** ****** ****** ****** ****** ****** ****** ******
      ****** ****** ****** ****** ****** ****** ****** ****** ****** ******
   4  ****** ****** ****** ****** ****** ****** ****** ****** ****** ******
      ****** ****** ****** ****** ****** ****** ****** ****** ****** ******
      ****** ****** ****** ****** ****** ****** ****** ****** ****** ******
   5  ****** ****** ****** ****** ****** ****** ****** ****** ****** ******
      ****** ****** ****** ****** ****** ****** ****** ****** ****** ******
      ****** ****** ****** ****** ****** ****** ****** ****** ****** ******
   6  ****** ****** ****** ****** ****** ****** ****** ****** ****** ******
      ****** ****** ****** ****** ****** ****** ****** ****** ****** ******
      ****** ****** ****** ****** ****** ****** ****** ****** ****** ******
   7  ****** ****** ****** ****** ****** ****** ****** ****** ****** ******
      ****** ****** ****** ****** ****** ****** ****** ****** ****** ******
      ****** ****** ****** ****** ****** ****** ****** ****** ****** ******
   8  ****** ****** ****** ****** ****** ****** ****** ****** ****** ******
      ****** ****** ****** ****** ****** ****** ****** ****** ****** ******
      ****** ****** ****** ****** ****** ****** ****** ****** ****** ******
   9  ****** ****** ****** ****** ****** ****** ****** ****** ****** ******
      ****** ****** ****** ****** ****** ****** ****** ****** ****** ******
      ****** ****** ****** ****** ****** ****** ****** ****** ****** ******
  10  ****** ****** ****** ****** ****** ****** ****** ****** ****** ******
      ****** ****** ****** ****** ****** ****** ****** ****** ****** ******
      ****** ****** ****** ****** ****** ****** ****** ****** ****** ******
  11  ****** ****** ****** ****** ****** ****** ****** ****** ****** ******
      ****** ****** ****** ****** ****** ****** ****** ****** ****** ******
      ****** ****** ****** ****** ****** ****** ****** ****** ****** ******
  12  ****** ****** ****** ****** ****** ****** ****** ****** ****** ******
      ****** ****** ****** ****** ****** ****** ****** ****** ****** ******
      ****** ****** ****** ****** ****** ****** ****** ****** ****** ******
  13  ****** ****** ****** ****** ****** ****** ****** ****** ****** ******
      ****** ****** ****** ****** ****** ****** ****** ****** ****** ******
      ****** ****** ****** ****** ****** ****** ****** ****** ****** ******
  14  ****** ****** ****** ****** ****** ****** ****** ****** ****** ******
      ****** ****** ****** ****** ****** ****** ****** ****** ****** ******
      ****** ****** ****** ****** ****** ****** ****** ****** ****** ******
  15  ****** ****** ****** ****** ****** ****** ****** ****** ****** ******
      ****** ****** ****** ****** ****** ****** ****** ****** ****** ******
      ****** ****** ****** ****** ****** ****** ****** ****** ****** ******
  16  ****** ****** ****** ****** ****** ****** ****** ****** ****** ******
      ****** ****** ****** ****** ****** ****** ****** ****** ****** ******
      ****** ****** ****** ****** ****** ****** ****** ****** ****** ******
  17  ****** ****** ****** ****** ****** ****** ****** ****** ****** ******
      ****** ****** ****** ****** ****** ****** ****** ****** ****** ******
      ****** ****** ****** ****** ****** ****** ****** ****** ****** ******
  18  ****** ****** ****** ****** ****** ****** ****** ****** ****** ******
      ****** ****** ****** ****** ****** ****** ****** ****** ****** ******
      ****** ****** ****** ****** ****** ****** ****** ****** ****** ******
  19  ****** ****** ****** ****** ****** ****** ****** ****** ****** ******
      ****** ****** ****** ****** ****** ****** ****** ****** ****** ******
      ****** ****** ****** ****** ****** ****** ****** ****** ****** ******
  20  ****** ****** ****** ****** ****** ****** ****** ****** ****** ******
      ****** ****** ****** ****** ****** ****** ****** ****** ****** ******
      ****** ****** ****** ****** ****** ****** ****** ****** ****** ******
  21  ****** ****** ****** ****** ****** ****** ****** ****** ****** ******
      ****** ****** ****** ****** ****** ****** ****** ****** ****** ******
      ****** ****** ****** ****** ****** ****** ****** ****** ****** ******
  22  ****** ****** ****** ****** ****** ****** ****** ****** ****** ******
      ****** ****** ****** ****** ****** ****** ****** ****** ****** ******
      ****** ****** ****** ****** ****** ****** ****** ****** ****** ******
  23  ****** ****** ****** ****** ****** ****** ****** ****** ****** ******
      ****** ****** ****** ****** ****** ****** ****** ****** ****** ******
      ****** ****** ****** ****** ****** ****** ****** ****** ****** ******
  24  ****** ****** ****** ****** ****** ****** ****** ****** ****** ******
      ****** ****** ****** ****** ****** ****** ****** ****** ****** ******
      ****** ****** ****** ****** ****** ****** ****** ****** ****** ******
  25  ****** ****** ****** ****** ****** ****** ****** ****** ****** ******
      ****** ****** ****** ****** ****** ****** ****** ****** ****** ******
      ****** ****** ****** ****** ****** ****** ****** ****** ****** ******

 HEAD WILL BE SAVED ON UNIT   51 AT END OF TIME STEP    1, STRESS PERIOD   12
1
  VOLUMETRIC BUDGET FOR ENTIRE MODEL AT END OF TIME STEP    1, STRESS PERIOD  12
  ------------------------------------------------------------------------------

     CUMULATIVE VOLUMES      L**3       RATES FOR THIS TIME STEP      L**3/T
     ------------------                 ------------------------

           IN:                                      IN:
           ---                                      ---
             STORAGE =    20705434.5900               STORAGE =           0.0000
       CONSTANT HEAD =  1382567579.2965         CONSTANT HEAD =     1264895.3105
               WELLS =           0.0000                 WELLS =           0.0000
            RECHARGE =    26413200.0000              RECHARGE =       27600.0000
      STREAM LEAKAGE =           0.0000        STREAM LEAKAGE =           0.0000

            TOTAL IN =  1429686213.8864              TOTAL IN =     1292495.3105

          OUT:                                     OUT:
          ----                                     ----
             STORAGE =      670068.5430               STORAGE =        1168.6453
       CONSTANT HEAD =           0.0000         CONSTANT HEAD =           0.0000
               WELLS =   152936820.7314                 WELLS =      137165.7961
            RECHARGE =           0.0000              RECHARGE =           0.0000
      STREAM LEAKAGE =  1276079336.1529        STREAM LEAKAGE =     1154160.8485

           TOTAL OUT =  1429686225.4273             TOTAL OUT =     1292495.2898

            IN - OUT =         -11.5409              IN - OUT =       2.0658E-02

 PERCENT DISCREPANCY =          -0.00     PERCENT DISCREPANCY =           0.00






         TIME SUMMARY AT END OF TIME STEP    1 IN STRESS PERIOD   12
                    SECONDS     MINUTES      HOURS       DAYS        YEARS
                    -----------------------------------------------------------
   TIME STEP LENGTH 7.86240E+06 1.31040E+05  2184.0      91.000     0.24914    
 STRESS PERIOD TIME 7.86240E+06 1.31040E+05  2184.0      91.000     0.24914    
         TOTAL TIME 9.46080E+07 1.57680E+06  26280.      1095.0      2.9979    
1

 Run end date and time (yyyy/mm/dd hh:mm:ss): 2018/10/02 17:52:55
 Elapsed run time:  0.047 Seconds

