                                  MODFLOW-2005     
      U.S. GEOLOGICAL SURVEY MODULAR FINITE-DIFFERENCE GROUND-WATER FLOW MODEL
                            VERSION 1.11.00 8/8/2013

 LIST FILE: supply2.lst
                         UNIT   10

 OPENING ..\data\supply.dis
 FILE TYPE:DIS   UNIT   11   STATUS:OLD    
 FORMAT:FORMATTED              ACCESS:SEQUENTIAL          

 OPENING ..\data\supply.ba6
 FILE TYPE:BAS6   UNIT   12   STATUS:OLD    
 FORMAT:FORMATTED              ACCESS:SEQUENTIAL          

 OPENING ..\data\supply_het.bc6
 FILE TYPE:BCF6   UNIT   13   STATUS:OLD    
 FORMAT:FORMATTED              ACCESS:SEQUENTIAL          

 OPENING ..\data\supply.rch
 FILE TYPE:RCH   UNIT   15   STATUS:OLD    
 FORMAT:FORMATTED              ACCESS:SEQUENTIAL          

 OPENING ..\data\supply2.sfr
 FILE TYPE:SFR   UNIT   16   STATUS:OLD    
 FORMAT:FORMATTED              ACCESS:SEQUENTIAL          

 OPENING ..\data\supply.oc
 FILE TYPE:OC   UNIT   17   STATUS:OLD    
 FORMAT:FORMATTED              ACCESS:SEQUENTIAL          

 OPENING ..\data\supply.pcg
 FILE TYPE:PCG   UNIT   18   STATUS:OLD    
 FORMAT:FORMATTED              ACCESS:SEQUENTIAL          

 OPENING supply2.wel
 FILE TYPE:WEL   UNIT   19   STATUS:OLD    
 FORMAT:FORMATTED              ACCESS:SEQUENTIAL          

 OPENING supply2sf.cbc
 FILE TYPE:DATA(BINARY)   UNIT   50   STATUS:UNKNOWN
 FORMAT:BINARY                 ACCESS:SEQUENTIAL          

 OPENING supply2hd.bhd
 FILE TYPE:DATA(BINARY)   UNIT   51   STATUS:UNKNOWN
 FORMAT:BINARY                 ACCESS:SEQUENTIAL          

 BAS -- BASIC PACKAGE, VERSION 7, 5/2/2005 INPUT READ FROM UNIT   12
 
 MODFLOW was compiled using uniform precision
 Precision of REAL and DOUBLE PRECISION variables:          15

 DISCRETIZATION INPUT DATA READ FROM UNIT   11
    1 LAYERS        25 ROWS        30 COLUMNS
   12 STRESS PERIOD(S) IN SIMULATION
 MODEL TIME UNIT IS DAYS
 MODEL LENGTH UNIT IS UNDEFINED
  Confining bed flag for each layer:
   0

                     DELR =   200.000    

                     DELC =   200.000    

 TOP ELEVATION OF LAYER 1 =  100.0000    

   MODEL LAYER BOTTOM EL. =   0.00000     FOR LAYER   1


 STRESS PERIOD     LENGTH       TIME STEPS     MULTIPLIER FOR DELT    SS FLAG
 ----------------------------------------------------------------------------
        1         92.00000          1                    1.500         TR
        2         91.00000          1                    1.500         TR
        3         91.00000          1                    1.500         TR
        4         91.00000          1                    1.500         TR
        5         92.00000          1                    1.500         TR
        6         91.00000          1                    1.500         TR
        7         91.00000          1                    1.500         TR
        8         91.00000          1                    1.500         TR
        9         92.00000          1                    1.500         TR
       10         91.00000          1                    1.500         TR
       11         91.00000          1                    1.500         TR
       12         91.00000          1                    1.500         TR

 TRANSIENT SIMULATION



 
 #MODOFC transient water supply sample problem                                   
 #                                                                               
 THE FREE FORMAT OPTION HAS BEEN SELECTED



                     BOUNDARY ARRAY FOR LAYER   1
 READING ON UNIT   12 WITH FORMAT: (20I4)              

 AQUIFER HEAD WILL BE SET TO   0.0000     AT ALL NO-FLOW NODES (IBOUND=0).



                       INITIAL HEAD FOR LAYER   1
 READING ON UNIT   12 WITH FORMAT: (10F13.0)           

 OUTPUT CONTROL IS SPECIFIED ONLY AT TIME STEPS FOR WHICH OUTPUT IS DESIRED
 COMPACT CELL-BY-CELL BUDGET FILES WILL BE WRITTEN
 HEAD PRINT FORMAT CODE IS  18    DRAWDOWN PRINT FORMAT CODE IS   0
 HEADS WILL BE SAVED ON UNIT   51    DRAWDOWNS WILL BE SAVED ON UNIT    0

 BCF -- BLOCK-CENTERED FLOW PACKAGE, VERSION 7, 5/2/2005
         INPUT READ FROM UNIT 13
 TRANSIENT SIMULATION
 HEAD AT CELLS THAT CONVERT TO DRY=   0.0000    
 WETTING CAPABILITY IS NOT ACTIVE
      LAYER  LAYER-TYPE CODE     INTERBLOCK T
      --------------------------------------------
         1            0          0 -- HARMONIC    

 COLUMN TO ROW ANISOTROPY =  1.000000    

     PRIMARY STORAGE COEF =  5.000000E-02 FOR LAYER   1



               TRANSMIS. ALONG ROWS FOR LAYER   1
 READING ON UNIT   13 WITH FORMAT: (FREE)              

 WEL -- WELL PACKAGE, VERSION 7, 5/2/2005 INPUT READ FROM UNIT   19
 # Well package input file written by MMProc
 No named parameters
 MAXIMUM OF      4 ACTIVE WELLS AT ONE TIME


     0 Well parameters

 RCH -- RECHARGE PACKAGE, VERSION 7, 5/2/2005 INPUT READ FROM UNIT   15
 No named parameters
 OPTION 1 -- RECHARGE TO TOP LAYER


     0 Recharge parameters

 SFR7 -- STREAMFLOW ROUTING PACKAGE, VERSION 1.0.7, 2013-01-15
         INPUT READ FROM UNIT  16
 #  Supply2 test problem for GWM-VI
 #  The eighth entry in the first data line is ISTCB2 -
 #    Setting this to a negative number indicates that
 #    streamflows out of the reach will be saved to a
 #    binary file.  The absolute value of ISTCB2 is the
 #    unit to which unformatted flows will be written.
 #
 No named parameters
 Segment information will not be 
 read by reach
 No named parameters
 No specifed inflow files


 NUMBER OF STREAM REACHES IS   40

 NUMBER OF STREAM SEGMENTS IS    3

 NUMBER OF STREAM PARAMETERS IS    0

 NUMBER OF STREAM SEGMENTS DEFINED USING PARAMETERS IS              0

 MAXIMUM ERROR FOR STREAM LEAKAGE RATES IS  1.00E-04

 CONSTANT FOR MANNINGS EQUATION IS  1.2839E+05





   STREAM NETWORK DESCRIPTION: 

   LAYER    ROW    COL   SEGMENT   REACH     LENGTH
                          NUMBER   NUMBER    IN CELL        
   --------------------------------------------------
      1     13      1       1        1    2.0000E+02
      1     13      2       1        2    2.0000E+02
      1     14      3       1        3    2.0000E+02
      1     15      4       1        4    2.0000E+02
      1     16      5       1        5    2.0000E+02
      1     16      6       1        6    2.0000E+02
      1     16      7       1        7    2.0000E+02
      1     16      8       1        8    2.0000E+02
      1     16      9       1        9    2.0000E+02
      1     16     10       1       10    2.0000E+02
      1     16     11       1       11    2.0000E+02
      1     16     12       1       12    2.0000E+02
      1     15     13       1       13    2.0000E+02
      1     14     14       1       14    2.0000E+02
      1     13     15       1       15    2.0000E+02
      1     12     16       1       16    2.0000E+02
      1     12     17       1       17    2.0000E+02
      1     12     18       1       18    2.0000E+02
      1     12     19       1       19    2.0000E+02
      1     13     20       1       20    2.0000E+02
      1     14     21       1       21    2.0000E+02
      1     14     22       1       22    2.0000E+02
      1      9     30       2        1    2.0000E+02
      1      9     29       2        2    2.0000E+02
      1      9     28       2        3    2.0000E+02
      1      9     27       2        4    2.0000E+02
      1     10     26       2        5    2.0000E+02
      1     11     25       2        6    2.0000E+02
      1     12     24       2        7    2.0000E+02
      1     13     23       2        8    2.0000E+02
      1     14     22       2        9    2.0000E+02
      1     14     22       3        1    2.0000E+02
      1     15     23       3        2    2.0000E+02
      1     15     24       3        3    2.0000E+02
      1     15     25       3        4    2.0000E+02
      1     15     26       3        5    2.0000E+02
      1     16     27       3        6    2.0000E+02
      1     17     28       3        7    2.0000E+02
      1     18     29       3        8    2.0000E+02
      1     18     30       3        9    2.0000E+02




 PCG -- CONJUGATE-GRADIENT SOLUTION PACKAGE, VERSION 7, 5/2/2005
 MAXIMUM OF    500 CALLS OF SOLUTION ROUTINE
 MAXIMUM OF      5 INTERNAL ITERATIONS PER CALL TO SOLUTION ROUTINE
 MATRIX PRECONDITIONING TYPE :    1



                                    SOLUTION BY THE CONJUGATE-GRADIENT METHOD
                                   -------------------------------------------
                    MAXIMUM NUMBER OF CALLS TO PCG ROUTINE =      500
                        MAXIMUM ITERATIONS PER CALL TO PCG =        5
                               MATRIX PRECONDITIONING TYPE =        1
        RELAXATION FACTOR (ONLY USED WITH PRECOND. TYPE 1) =    0.10000E+01
 PARAMETER OF POLYNOMIAL PRECOND. = 2 (2) OR IS CALCULATED :        0
                         HEAD CHANGE CRITERION FOR CLOSURE =    0.10000E-05
                     RESIDUAL CHANGE CRITERION FOR CLOSURE =    0.10000E+01
            PCG HEAD AND RESIDUAL CHANGE PRINTOUT INTERVAL =        1
     PRINTING FROM SOLVER IS LIMITED(1) OR SUPPRESSED (>1) =        1
                            STEADY-STATE DAMPING PARAMETER =    0.10000E+01
                               TRANSIENT DAMPING PARAMETER =    0.10000E+01
1
                            STRESS PERIOD NO.    1, LENGTH =   92.00000    
                            -----------------------------------------------

                              NUMBER OF TIME STEPS =     1

                               MULTIPLIER FOR DELT =     1.500

                            INITIAL TIME STEP SIZE =   92.00000    

 WELL NO.  LAYER   ROW   COL   STRESS RATE         
 --------------------------------------------------
      1      1     17     29     -0.1404E+05
      2      1     18     28     -0.1091E+05
      3      1     12     29      -8101.    
      4      1     19     29     -0.1496E+05

      4 WELLS

                 RECHARGE =  5.000000E-04



 CLASSIFICATION & COUNT OF STREAM SEGMENTS BASED ON SOURCE OF INFLOW:

                HEADWATER     DIVERSION     RECEIVES TRIBUTARY FLOW
                ---------     ---------     -----------------------
                     2              0               1



                    INPUT DATA FOR EACH STREAM SEGMENT
 ---------------------------------------------------------------------------------------------

 SEGMENT    SEG.     INFLOW   OVERLAND   STREAM    STREAM   ICALC  OUTFLOW  DIVERSION PRIORITY
    NO.    LENGTH     RATE     RUNOFF      ET       PPT.    METH.  TO SEG.  FROM SEG.    NO.

      1  4.400E+03 1.000E+05 0.000E+00 0.000E+00 0.000E+00    1        3        0        0
      2  1.800E+03 5.000E+04 0.000E+00 0.000E+00 0.000E+00    1        3        0        0
      3  1.800E+03 0.000E+00 0.000E+00 0.000E+00 0.000E+00    1        0        0        0


         STREAMBED PROPERTIES AND STREAM DIMENSIONS

 SEGMENT     BED HYD. COND.      BED THICKNESS     ELEV.-TOP OF BED     WIDTH OF STREAM     DEPTH OF STREAM    STREAM ROUGHNESS
    No.     UPPER     LOWER     UPPER     LOWER     UPPER     LOWER     UPPER     LOWER     UPPER     LOWER   CHANNEL      BANK

     1  5.000E+00 5.000E+00 1.000E+00 1.000E+00 4.850E+01 3.800E+01 2.000E+01 2.000E+01                     5.000E-02
     2  5.000E+00 5.000E+00 1.000E+00 1.000E+00 4.025E+01 3.800E+01 2.000E+01 2.000E+01                     5.000E-02
     3  5.000E+00 5.000E+00 1.000E+00 1.000E+00 3.800E+01 3.000E+01 2.000E+01 2.000E+01                     5.000E-02



 
 SOLVING FOR HEAD 


     9 CALLS TO PCG ROUTINE FOR TIME STEP   1 IN STRESS PERIOD    1
    36 TOTAL ITERATIONS

 OUTPUT CONTROL FOR STRESS PERIOD    1   TIME STEP    1
    SAVE BUDGET
    SAVE HEAD FOR ALL LAYERS
    PRINT HEAD FOR ALL LAYERS
 UBDSV2 SAVING "STREAMFLOW OUT  " ON UNIT  50 AT TIME STEP  1, STRESS PERIOD   1



 STREAM LISTING     PERIOD      1   STEP        1

 LAYER ROW COL. STREAM  RCH.  FLOW INTO     FLOW TO   FLOW OUT OF   OVRLND.     DIRECT     STREAM       STREAM     STREAM     STREAM   STREAMBED  STREAMBED
                SEG.NO.  NO.  STRM. RCH.    AQUIFER    STRM. RCH.    RUNOFF     PRECIP       ET          HEAD       DEPTH      WIDTH   CONDCTNC.   GRADIENT

   1   13    1     1     1    1.0000E+05 -6.1248E+03   1.0612E+05  0.000E+00  0.000E+00  0.000E+00  4.84087E+01  1.473E-01  2.000E+01  2.000E+04 -3.062E-01
   1   13    2     1     2    1.0612E+05 -7.5946E+03   1.1372E+05  0.000E+00  0.000E+00  0.000E+00  4.79372E+01  1.531E-01  2.000E+01  2.000E+04 -3.797E-01
   1   14    3     1     3    1.1372E+05 -2.1992E+03   1.1592E+05  0.000E+00  0.000E+00  0.000E+00  4.74640E+01  1.572E-01  2.000E+01  2.000E+04 -1.100E-01
   1   15    4     1     4    1.1592E+05 -2.2705E+03   1.1819E+05  0.000E+00  0.000E+00  0.000E+00  4.69885E+01  1.590E-01  2.000E+01  2.000E+04 -1.135E-01
   1   16    5     1     5    1.1819E+05 -7.1863E+03   1.2538E+05  0.000E+00  0.000E+00  0.000E+00  4.65151E+01  1.628E-01  2.000E+01  2.000E+04 -3.593E-01
   1   16    6     1     6    1.2538E+05 -4.3047E+03   1.2968E+05  0.000E+00  0.000E+00  0.000E+00  4.60424E+01  1.674E-01  2.000E+01  2.000E+04 -2.152E-01
   1   16    7     1     7    1.2968E+05 -4.1399E+03   1.3382E+05  0.000E+00  0.000E+00  0.000E+00  4.55684E+01  1.707E-01  2.000E+01  2.000E+04 -2.070E-01
   1   16    8     1     8    1.3382E+05 -4.0995E+03   1.3792E+05  0.000E+00  0.000E+00  0.000E+00  4.50943E+01  1.739E-01  2.000E+01  2.000E+04 -2.050E-01
   1   16    9     1     9    1.3792E+05 -4.0894E+03   1.4201E+05  0.000E+00  0.000E+00  0.000E+00  4.46202E+01  1.770E-01  2.000E+01  2.000E+04 -2.045E-01
   1   16   10     1    10    1.4201E+05 -4.0876E+03   1.4610E+05  0.000E+00  0.000E+00  0.000E+00  4.41460E+01  1.801E-01  2.000E+01  2.000E+04 -2.044E-01
   1   16   11     1    11    1.4610E+05 -4.1244E+03   1.5022E+05  0.000E+00  0.000E+00  0.000E+00  4.36718E+01  1.831E-01  2.000E+01  2.000E+04 -2.062E-01
   1   16   12     1    12    1.5022E+05 -7.0138E+03   1.5723E+05  0.000E+00  0.000E+00  0.000E+00  4.31986E+01  1.872E-01  2.000E+01  2.000E+04 -3.507E-01
   1   15   13     1    13    1.5723E+05 -7.3428E+03   1.6458E+05  0.000E+00  0.000E+00  0.000E+00  4.27265E+01  1.924E-01  2.000E+01  2.000E+04 -3.671E-01
   1   14   14     1    14    1.6458E+05 -7.8516E+03   1.7243E+05  0.000E+00  0.000E+00  0.000E+00  4.22546E+01  1.978E-01  2.000E+01  2.000E+04 -3.926E-01
   1   13   15     1    15    1.7243E+05 -8.2114E+03   1.8064E+05  0.000E+00  0.000E+00  0.000E+00  4.17830E+01  2.034E-01  2.000E+01  2.000E+04 -4.106E-01
   1   12   16     1    16    1.8064E+05 -8.8958E+03   1.8954E+05  0.000E+00  0.000E+00  0.000E+00  4.13116E+01  2.093E-01  2.000E+01  2.000E+04 -4.448E-01
   1   12   17     1    17    1.8954E+05 -6.3296E+03   1.9587E+05  0.000E+00  0.000E+00  0.000E+00  4.08394E+01  2.144E-01  2.000E+01  2.000E+04 -3.165E-01
   1   12   18     1    18    1.9587E+05 -6.1757E+03   2.0204E+05  0.000E+00  0.000E+00  0.000E+00  4.03663E+01  2.186E-01  2.000E+01  2.000E+04 -3.088E-01
   1   12   19     1    19    2.0204E+05 -7.7783E+03   2.0982E+05  0.000E+00  0.000E+00  0.000E+00  3.98936E+01  2.231E-01  2.000E+01  2.000E+04 -3.889E-01
   1   13   20     1    20    2.0982E+05 -6.8627E+03   2.1668E+05  0.000E+00  0.000E+00  0.000E+00  3.94210E+01  2.279E-01  2.000E+01  2.000E+04 -3.431E-01
   1   14   21     1    21    2.1668E+05 -6.4075E+03   2.2309E+05  0.000E+00  0.000E+00  0.000E+00  3.89480E+01  2.321E-01  2.000E+01  2.000E+04 -3.204E-01
   1   14   22     1    22    2.2309E+05  3.7002E+03   2.1939E+05  0.000E+00  0.000E+00  0.000E+00  3.84716E+01  2.329E-01  2.000E+01  2.000E+04  1.850E-01
   1    9   30     2     1    5.0000E+04 -3.7459E+03   5.3746E+04  0.000E+00  0.000E+00  0.000E+00  4.02435E+01  1.185E-01  2.000E+01  2.000E+04 -1.873E-01
   1    9   29     2     2    5.3746E+04 -4.0757E+03   5.7822E+04  0.000E+00  0.000E+00  0.000E+00  3.99987E+01  1.237E-01  2.000E+01  2.000E+04 -2.038E-01
   1    9   28     2     3    5.7822E+04 -4.6383E+03   6.2460E+04  0.000E+00  0.000E+00  0.000E+00  3.97544E+01  1.294E-01  2.000E+01  2.000E+04 -2.319E-01
   1    9   27     2     4    6.2460E+04 -7.8462E+03   7.0306E+04  0.000E+00  0.000E+00  0.000E+00  3.95123E+01  1.373E-01  2.000E+01  2.000E+04 -3.923E-01
   1   10   26     2     5    7.0306E+04 -6.5074E+03   7.6813E+04  0.000E+00  0.000E+00  0.000E+00  3.92711E+01  1.461E-01  2.000E+01  2.000E+04 -3.254E-01
   1   11   25     2     6    7.6813E+04 -6.1755E+03   8.2989E+04  0.000E+00  0.000E+00  0.000E+00  3.90285E+01  1.535E-01  2.000E+01  2.000E+04 -3.088E-01
   1   12   24     2     7    8.2989E+04 -6.0821E+03   8.9071E+04  0.000E+00  0.000E+00  0.000E+00  3.87855E+01  1.605E-01  2.000E+01  2.000E+04 -3.041E-01
   1   13   23     2     8    8.9071E+04 -1.6498E+03   9.0721E+04  0.000E+00  0.000E+00  0.000E+00  3.85397E+01  1.647E-01  2.000E+01  2.000E+04 -8.249E-02
   1   14   22     2     9    9.0721E+04  8.0877E+01   9.0640E+04  0.000E+00  0.000E+00  0.000E+00  3.82906E+01  1.656E-01  2.000E+01  2.000E+04  4.044E-03
   1   14   22     3     1    3.1003E+05 -9.8418E+03   3.1987E+05  0.000E+00  0.000E+00  0.000E+00  3.77945E+01  2.389E-01  2.000E+01  2.000E+04 -4.921E-01
   1   15   23     3     2    3.1987E+05 -1.9737E+03   3.2185E+05  0.000E+00  0.000E+00  0.000E+00  3.69083E+01  2.416E-01  2.000E+01  2.000E+04 -9.868E-02
   1   15   24     3     3    3.2185E+05 -1.5131E+03   3.2336E+05  0.000E+00  0.000E+00  0.000E+00  3.60202E+01  2.424E-01  2.000E+01  2.000E+04 -7.566E-02
   1   15   25     3     4    3.2336E+05 -1.5448E+03   3.2490E+05  0.000E+00  0.000E+00  0.000E+00  3.51320E+01  2.431E-01  2.000E+01  2.000E+04 -7.724E-02
   1   15   26     3     5    3.2490E+05 -1.7104E+03   3.2661E+05  0.000E+00  0.000E+00  0.000E+00  3.42438E+01  2.438E-01  2.000E+01  2.000E+04 -8.552E-02
   1   16   27     3     6    3.2661E+05 -1.6676E+03   3.2828E+05  0.000E+00  0.000E+00  0.000E+00  3.33557E+01  2.446E-01  2.000E+01  2.000E+04 -8.338E-02
   1   17   28     3     7    3.2828E+05  4.7235E+03   3.2356E+05  0.000E+00  0.000E+00  0.000E+00  3.24661E+01  2.439E-01  2.000E+01  2.000E+04  2.362E-01
   1   18   29     3     8    3.2356E+05  7.9889E+03   3.1557E+05  0.000E+00  0.000E+00  0.000E+00  3.15743E+01  2.410E-01  2.000E+01  2.000E+04  3.994E-01
   1   18   30     3     9    3.1557E+05 -1.0692E+03   3.1664E+05  0.000E+00  0.000E+00  0.000E+00  3.06839E+01  2.394E-01  2.000E+01  2.000E+04 -5.346E-02



1
              HEAD IN LAYER   1 AT END OF TIME STEP   1 IN STRESS PERIOD    1
  ---------------------------------------------------------------------------

          1      2      3      4      5      6      7      8      9     10
         11     12     13     14     15     16     17     18     19     20
         21     22     23     24     25     26     27     28     29     30
 .........................................................................
   1  ****** ****** ****** ****** ****** ****** ****** ****** ****** ******
      ****** ****** ****** ****** ****** ****** ****** ****** ****** ******
      ****** ****** ****** ****** ****** ****** ****** ****** ****** ******
   2  ****** ****** ****** ****** ****** ****** ****** ****** ****** ******
      ****** ****** ****** ****** ****** ****** ****** ****** ****** ******
      ****** ****** ****** ****** ****** ****** ****** ****** ****** ******
   3  ****** ****** ****** ****** ****** ****** ****** ****** ****** ******
      ****** ****** ****** ****** ****** ****** ****** ****** ****** ******
      ****** ****** ****** ****** ****** ****** ****** ****** ****** ******
   4  ****** ****** ****** ****** ****** ****** ****** ****** ****** ******
      ****** ****** ****** ****** ****** ****** ****** ****** ****** ******
      ****** ****** ****** ****** ****** ****** ****** ****** ****** ******
   5  ****** ****** ****** ****** ****** ****** ****** ****** ****** ******
      ****** ****** ****** ****** ****** ****** ****** ****** ****** ******
      ****** ****** ****** ****** ****** ****** ****** ****** ****** ******
   6  ****** ****** ****** ****** ****** ****** ****** ****** ****** ******
      ****** ****** ****** ****** ****** ****** ****** ****** ****** ******
      ****** ****** ****** ****** ****** ****** ****** ****** ****** ******
   7  ****** ****** ****** ****** ****** ****** ****** ****** ****** ******
      ****** ****** ****** ****** ****** ****** ****** ****** ****** ******
      ****** ****** ****** ****** ****** ****** ****** ****** ****** ******
   8  ****** ****** ****** ****** ****** ****** ****** ****** ****** ******
      ****** ****** ****** ****** ****** ****** ****** ****** ****** ******
      ****** ****** ****** ****** ****** ****** ****** ****** ****** ******
   9  ****** ****** ****** ****** ****** ****** ****** ****** ****** ******
      ****** ****** ****** ****** ****** ****** ****** ****** ****** ******
      ****** ****** ****** ****** ****** ****** ****** ****** ****** ******
  10  ****** ****** ****** ****** ****** ****** ****** ****** ****** ******
      ****** ****** ****** ****** ****** ****** ****** ****** ****** ******
      ****** ****** ****** ****** ****** ****** ****** ****** ****** ******
  11  ****** ****** ****** ****** ****** ****** ****** ****** ****** ******
      ****** ****** ****** ****** ****** ****** ****** ****** ****** ******
      ****** ****** ****** ****** ****** ****** ****** ****** ****** ******
  12  ****** ****** ****** ****** ****** ****** ****** ****** ****** ******
      ****** ****** ****** ****** ****** ****** ****** ****** ****** ******
      ****** ****** ****** ****** ****** ****** ****** ****** ****** ******
  13  ****** ****** ****** ****** ****** ****** ****** ****** ****** ******
      ****** ****** ****** ****** ****** ****** ****** ****** ****** ******
      ****** ****** ****** ****** ****** ****** ****** ****** ****** ******
  14  ****** ****** ****** ****** ****** ****** ****** ****** ****** ******
      ****** ****** ****** ****** ****** ****** ****** ****** ****** ******
      ****** ****** ****** ****** ****** ****** ****** ****** ****** ******
  15  ****** ****** ****** ****** ****** ****** ****** ****** ****** ******
      ****** ****** ****** ****** ****** ****** ****** ****** ****** ******
      ****** ****** ****** ****** ****** ****** ****** ****** ****** ******
  16  ****** ****** ****** ****** ****** ****** ****** ****** ****** ******
      ****** ****** ****** ****** ****** ****** ****** ****** ****** ******
      ****** ****** ****** ****** ****** ****** ****** ****** ****** ******
  17  ****** ****** ****** ****** ****** ****** ****** ****** ****** ******
      ****** ****** ****** ****** ****** ****** ****** ****** ****** ******
      ****** ****** ****** ****** ****** ****** ****** ****** ****** ******
  18  ****** ****** ****** ****** ****** ****** ****** ****** ****** ******
      ****** ****** ****** ****** ****** ****** ****** ****** ****** ******
      ****** ****** ****** ****** ****** ****** ****** ****** ****** ******
  19  ****** ****** ****** ****** ****** ****** ****** ****** ****** ******
      ****** ****** ****** ****** ****** ****** ****** ****** ****** ******
      ****** ****** ****** ****** ****** ****** ****** ****** ****** ******
  20  ****** ****** ****** ****** ****** ****** ****** ****** ****** ******
      ****** ****** ****** ****** ****** ****** ****** ****** ****** ******
      ****** ****** ****** ****** ****** ****** ****** ****** ****** ******
  21  ****** ****** ****** ****** ****** ****** ****** ****** ****** ******
      ****** ****** ****** ****** ****** ****** ****** ****** ****** ******
      ****** ****** ****** ****** ****** ****** ****** ****** ****** ******
  22  ****** ****** ****** ****** ****** ****** ****** ****** ****** ******
      ****** ****** ****** ****** ****** ****** ****** ****** ****** ******
      ****** ****** ****** ****** ****** ****** ****** ****** ****** ******
  23  ****** ****** ****** ****** ****** ****** ****** ****** ****** ******
      ****** ****** ****** ****** ****** ****** ****** ****** ****** ******
      ****** ****** ****** ****** ****** ****** ****** ****** ****** ******
  24  ****** ****** ****** ****** ****** ****** ****** ****** ****** ******
      ****** ****** ****** ****** ****** ****** ****** ****** ****** ******
      ****** ****** ****** ****** ****** ****** ****** ****** ****** ******
  25  ****** ****** ****** ****** ****** ****** ****** ****** ****** ******
      ****** ****** ****** ****** ****** ****** ****** ****** ****** ******
      ****** ****** ****** ****** ****** ****** ****** ****** ****** ******

 HEAD WILL BE SAVED ON UNIT   51 AT END OF TIME STEP    1, STRESS PERIOD    1
1
  VOLUMETRIC BUDGET FOR ENTIRE MODEL AT END OF TIME STEP    1, STRESS PERIOD   1
  ------------------------------------------------------------------------------

     CUMULATIVE VOLUMES      L**3       RATES FOR THIS TIME STEP      L**3/T
     ------------------                 ------------------------

           IN:                                      IN:
           ---                                      ---
             STORAGE =    17351427.4832               STORAGE =      188602.4726
       CONSTANT HEAD =     1126806.8022         CONSTANT HEAD =       12247.9000
               WELLS =           0.0000                 WELLS =           0.0000
            RECHARGE =     1269600.0000              RECHARGE =       13800.0000
      STREAM LEAKAGE =     1517397.8674        STREAM LEAKAGE =       16493.4551

            TOTAL IN =    21265232.1528              TOTAL IN =      231143.8277

          OUT:                                     OUT:
          ----                                     ----
             STORAGE =           0.0000               STORAGE =           0.0000
       CONSTANT HEAD =           0.0000         CONSTANT HEAD =           0.0000
               WELLS =     4417124.2663                 WELLS =       48012.2203
            RECHARGE =           0.0000              RECHARGE =           0.0000
      STREAM LEAKAGE =    16848108.1658        STREAM LEAKAGE =      183131.6105

           TOTAL OUT =    21265232.4320             TOTAL OUT =      231143.8308

            IN - OUT =          -0.2793              IN - OUT =      -3.0356E-03

 PERCENT DISCREPANCY =          -0.00     PERCENT DISCREPANCY =          -0.00






         TIME SUMMARY AT END OF TIME STEP    1 IN STRESS PERIOD    1
                    SECONDS     MINUTES      HOURS       DAYS        YEARS
                    -----------------------------------------------------------
   TIME STEP LENGTH 7.94880E+06 1.32480E+05  2208.0      92.000     0.25188    
 STRESS PERIOD TIME 7.94880E+06 1.32480E+05  2208.0      92.000     0.25188    
         TOTAL TIME 7.94880E+06 1.32480E+05  2208.0      92.000     0.25188    
1
1
                            STRESS PERIOD NO.    2, LENGTH =   91.00000    
                            -----------------------------------------------

                              NUMBER OF TIME STEPS =     1

                               MULTIPLIER FOR DELT =     1.500

                            INITIAL TIME STEP SIZE =   91.00000    

 WELL NO.  LAYER   ROW   COL   STRESS RATE         
 --------------------------------------------------
      1      1     17     29     -0.1404E+05
      2      1     18     28     -0.1091E+05
      3      1     12     29      -8101.    
      4      1     19     29     -0.1496E+05

      4 WELLS

                 RECHARGE =  2.000000E-03

 REUSING STREAM SEGMENT DATA FROM LAST STRESS PERIOD
 
 SOLVING FOR HEAD 


     7 CALLS TO PCG ROUTINE FOR TIME STEP   1 IN STRESS PERIOD    2
    27 TOTAL ITERATIONS

 OUTPUT CONTROL FOR STRESS PERIOD    2   TIME STEP    1
    SAVE BUDGET
    SAVE HEAD FOR ALL LAYERS
    PRINT HEAD FOR ALL LAYERS
 UBDSV2 SAVING "STREAMFLOW OUT  " ON UNIT  50 AT TIME STEP  1, STRESS PERIOD   2



 STREAM LISTING     PERIOD      2   STEP        1

 LAYER ROW COL. STREAM  RCH.  FLOW INTO     FLOW TO   FLOW OUT OF   OVRLND.     DIRECT     STREAM       STREAM     STREAM     STREAM   STREAMBED  STREAMBED
                SEG.NO.  NO.  STRM. RCH.    AQUIFER    STRM. RCH.    RUNOFF     PRECIP       ET          HEAD       DEPTH      WIDTH   CONDCTNC.   GRADIENT

   1   13    1     1     1    1.0000E+05 -4.0169E+03   1.0402E+05  0.000E+00  0.000E+00  0.000E+00  4.84078E+01  1.464E-01  2.000E+01  2.000E+04 -2.008E-01
   1   13    2     1     2    1.0402E+05 -5.2796E+03   1.0930E+05  0.000E+00  0.000E+00  0.000E+00  4.79344E+01  1.504E-01  2.000E+01  2.000E+04 -2.640E-01
   1   14    3     1     3    1.0930E+05 -1.1172E+03   1.1041E+05  0.000E+00  0.000E+00  0.000E+00  4.74599E+01  1.530E-01  2.000E+01  2.000E+04 -5.586E-02
   1   15    4     1     4    1.1041E+05 -1.1450E+03   1.1156E+05  0.000E+00  0.000E+00  0.000E+00  4.69835E+01  1.540E-01  2.000E+01  2.000E+04 -5.725E-02
   1   16    5     1     5    1.1156E+05 -4.2580E+03   1.1582E+05  0.000E+00  0.000E+00  0.000E+00  4.65085E+01  1.562E-01  2.000E+01  2.000E+04 -2.129E-01
   1   16    6     1     6    1.1582E+05 -2.5109E+03   1.1833E+05  0.000E+00  0.000E+00  0.000E+00  4.60340E+01  1.590E-01  2.000E+01  2.000E+04 -1.255E-01
   1   16    7     1     7    1.1833E+05 -2.4172E+03   1.2074E+05  0.000E+00  0.000E+00  0.000E+00  4.55587E+01  1.610E-01  2.000E+01  2.000E+04 -1.209E-01
   1   16    8     1     8    1.2074E+05 -2.3889E+03   1.2313E+05  0.000E+00  0.000E+00  0.000E+00  4.50834E+01  1.629E-01  2.000E+01  2.000E+04 -1.194E-01
   1   16    9     1     9    1.2313E+05 -2.3691E+03   1.2550E+05  0.000E+00  0.000E+00  0.000E+00  4.46080E+01  1.648E-01  2.000E+01  2.000E+04 -1.185E-01
   1   16   10     1    10    1.2550E+05 -2.3459E+03   1.2785E+05  0.000E+00  0.000E+00  0.000E+00  4.41326E+01  1.667E-01  2.000E+01  2.000E+04 -1.173E-01
   1   16   11     1    11    1.2785E+05 -2.3535E+03   1.3020E+05  0.000E+00  0.000E+00  0.000E+00  4.36572E+01  1.686E-01  2.000E+01  2.000E+04 -1.177E-01
   1   16   12     1    12    1.3020E+05 -4.1461E+03   1.3435E+05  0.000E+00  0.000E+00  0.000E+00  4.31824E+01  1.711E-01  2.000E+01  2.000E+04 -2.073E-01
   1   15   13     1    13    1.3435E+05 -4.1447E+03   1.3849E+05  0.000E+00  0.000E+00  0.000E+00  4.27084E+01  1.743E-01  2.000E+01  2.000E+04 -2.072E-01
   1   14   14     1    14    1.3849E+05 -4.5515E+03   1.4304E+05  0.000E+00  0.000E+00  0.000E+00  4.22344E+01  1.776E-01  2.000E+01  2.000E+04 -2.276E-01
   1   13   15     1    15    1.4304E+05 -4.9341E+03   1.4798E+05  0.000E+00  0.000E+00  0.000E+00  4.17607E+01  1.812E-01  2.000E+01  2.000E+04 -2.467E-01
   1   12   16     1    16    1.4798E+05 -5.8436E+03   1.5382E+05  0.000E+00  0.000E+00  0.000E+00  4.12874E+01  1.852E-01  2.000E+01  2.000E+04 -2.922E-01
   1   12   17     1    17    1.5382E+05 -3.8966E+03   1.5772E+05  0.000E+00  0.000E+00  0.000E+00  4.08137E+01  1.887E-01  2.000E+01  2.000E+04 -1.948E-01
   1   12   18     1    18    1.5772E+05 -3.7367E+03   1.6146E+05  0.000E+00  0.000E+00  0.000E+00  4.03392E+01  1.915E-01  2.000E+01  2.000E+04 -1.868E-01
   1   12   19     1    19    1.6146E+05 -4.7455E+03   1.6620E+05  0.000E+00  0.000E+00  0.000E+00  3.98650E+01  1.945E-01  2.000E+01  2.000E+04 -2.373E-01
   1   13   20     1    20    1.6620E+05 -3.8012E+03   1.7000E+05  0.000E+00  0.000E+00  0.000E+00  3.93907E+01  1.975E-01  2.000E+01  2.000E+04 -1.901E-01
   1   14   21     1    21    1.7000E+05 -3.6851E+03   1.7369E+05  0.000E+00  0.000E+00  0.000E+00  3.89161E+01  2.002E-01  2.000E+01  2.000E+04 -1.843E-01
   1   14   22     1    22    1.7369E+05  4.4759E+03   1.6921E+05  0.000E+00  0.000E+00  0.000E+00  3.84385E+01  1.999E-01  2.000E+01  2.000E+04  2.238E-01
   1    9   30     2     1    5.0000E+04 -7.9957E+02   5.0800E+04  0.000E+00  0.000E+00  0.000E+00  4.02414E+01  1.164E-01  2.000E+01  2.000E+04 -3.998E-02
   1    9   29     2     2    5.0800E+04 -1.1637E+03   5.1963E+04  0.000E+00  0.000E+00  0.000E+00  3.99928E+01  1.178E-01  2.000E+01  2.000E+04 -5.819E-02
   1    9   28     2     3    5.1963E+04 -1.7935E+03   5.3757E+04  0.000E+00  0.000E+00  0.000E+00  3.97448E+01  1.198E-01  2.000E+01  2.000E+04 -8.968E-02
   1    9   27     2     4    5.3757E+04 -4.3253E+03   5.8082E+04  0.000E+00  0.000E+00  0.000E+00  3.94989E+01  1.239E-01  2.000E+01  2.000E+04 -2.163E-01
   1   10   26     2     5    5.8082E+04 -2.7452E+03   6.0827E+04  0.000E+00  0.000E+00  0.000E+00  3.92536E+01  1.286E-01  2.000E+01  2.000E+04 -1.373E-01
   1   11   25     2     6    6.0827E+04 -2.6085E+03   6.3436E+04  0.000E+00  0.000E+00  0.000E+00  3.90070E+01  1.320E-01  2.000E+01  2.000E+04 -1.304E-01
   1   12   24     2     7    6.3436E+04 -2.9711E+03   6.6407E+04  0.000E+00  0.000E+00  0.000E+00  3.87605E+01  1.355E-01  2.000E+01  2.000E+04 -1.486E-01
   1   13   23     2     8    6.6407E+04 -6.1130E+02   6.7018E+04  0.000E+00  0.000E+00  0.000E+00  3.85128E+01  1.378E-01  2.000E+01  2.000E+04 -3.057E-02
   1   14   22     2     9    6.7018E+04  9.5595E+02   6.6062E+04  0.000E+00  0.000E+00  0.000E+00  3.82625E+01  1.375E-01  2.000E+01  2.000E+04  4.780E-02
   1   14   22     3     1    2.3527E+05 -9.1260E+03   2.4440E+05  0.000E+00  0.000E+00  0.000E+00  3.77584E+01  2.029E-01  2.000E+01  2.000E+04 -4.563E-01
   1   15   23     3     2    2.4440E+05 -1.0214E+03   2.4542E+05  0.000E+00  0.000E+00  0.000E+00  3.68721E+01  2.054E-01  2.000E+01  2.000E+04 -5.107E-02
   1   15   24     3     3    2.4542E+05 -6.3123E+02   2.4605E+05  0.000E+00  0.000E+00  0.000E+00  3.59836E+01  2.059E-01  2.000E+01  2.000E+04 -3.156E-02
   1   15   25     3     4    2.4605E+05 -6.0888E+02   2.4666E+05  0.000E+00  0.000E+00  0.000E+00  3.50951E+01  2.062E-01  2.000E+01  2.000E+04 -3.044E-02
   1   15   26     3     5    2.4666E+05 -5.2057E+02   2.4718E+05  0.000E+00  0.000E+00  0.000E+00  3.42065E+01  2.065E-01  2.000E+01  2.000E+04 -2.603E-02
   1   16   27     3     6    2.4718E+05 -2.6102E+02   2.4744E+05  0.000E+00  0.000E+00  0.000E+00  3.33178E+01  2.067E-01  2.000E+01  2.000E+04 -1.305E-02
   1   17   28     3     7    2.4744E+05  8.9645E+03   2.3848E+05  0.000E+00  0.000E+00  0.000E+00  3.24267E+01  2.045E-01  2.000E+01  2.000E+04  4.482E-01
   1   18   29     3     8    2.3848E+05  1.2053E+04   2.2643E+05  0.000E+00  0.000E+00  0.000E+00  3.15324E+01  1.991E-01  2.000E+01  2.000E+04  6.026E-01
   1   18   30     3     9    2.2643E+05  2.2129E+03   2.2421E+05  0.000E+00  0.000E+00  0.000E+00  3.06399E+01  1.954E-01  2.000E+01  2.000E+04  1.106E-01



1
              HEAD IN LAYER   1 AT END OF TIME STEP   1 IN STRESS PERIOD    2
  ---------------------------------------------------------------------------

          1      2      3      4      5      6      7      8      9     10
         11     12     13     14     15     16     17     18     19     20
         21     22     23     24     25     26     27     28     29     30
 .........................................................................
   1  ****** ****** ****** ****** ****** ****** ****** ****** ****** ******
      ****** ****** ****** ****** ****** ****** ****** ****** ****** ******
      ****** ****** ****** ****** ****** ****** ****** ****** ****** ******
   2  ****** ****** ****** ****** ****** ****** ****** ****** ****** ******
      ****** ****** ****** ****** ****** ****** ****** ****** ****** ******
      ****** ****** ****** ****** ****** ****** ****** ****** ****** ******
   3  ****** ****** ****** ****** ****** ****** ****** ****** ****** ******
      ****** ****** ****** ****** ****** ****** ****** ****** ****** ******
      ****** ****** ****** ****** ****** ****** ****** ****** ****** ******
   4  ****** ****** ****** ****** ****** ****** ****** ****** ****** ******
      ****** ****** ****** ****** ****** ****** ****** ****** ****** ******
      ****** ****** ****** ****** ****** ****** ****** ****** ****** ******
   5  ****** ****** ****** ****** ****** ****** ****** ****** ****** ******
      ****** ****** ****** ****** ****** ****** ****** ****** ****** ******
      ****** ****** ****** ****** ****** ****** ****** ****** ****** ******
   6  ****** ****** ****** ****** ****** ****** ****** ****** ****** ******
      ****** ****** ****** ****** ****** ****** ****** ****** ****** ******
      ****** ****** ****** ****** ****** ****** ****** ****** ****** ******
   7  ****** ****** ****** ****** ****** ****** ****** ****** ****** ******
      ****** ****** ****** ****** ****** ****** ****** ****** ****** ******
      ****** ****** ****** ****** ****** ****** ****** ****** ****** ******
   8  ****** ****** ****** ****** ****** ****** ****** ****** ****** ******
      ****** ****** ****** ****** ****** ****** ****** ****** ****** ******
      ****** ****** ****** ****** ****** ****** ****** ****** ****** ******
   9  ****** ****** ****** ****** ****** ****** ****** ****** ****** ******
      ****** ****** ****** ****** ****** ****** ****** ****** ****** ******
      ****** ****** ****** ****** ****** ****** ****** ****** ****** ******
  10  ****** ****** ****** ****** ****** ****** ****** ****** ****** ******
      ****** ****** ****** ****** ****** ****** ****** ****** ****** ******
      ****** ****** ****** ****** ****** ****** ****** ****** ****** ******
  11  ****** ****** ****** ****** ****** ****** ****** ****** ****** ******
      ****** ****** ****** ****** ****** ****** ****** ****** ****** ******
      ****** ****** ****** ****** ****** ****** ****** ****** ****** ******
  12  ****** ****** ****** ****** ****** ****** ****** ****** ****** ******
      ****** ****** ****** ****** ****** ****** ****** ****** ****** ******
      ****** ****** ****** ****** ****** ****** ****** ****** ****** ******
  13  ****** ****** ****** ****** ****** ****** ****** ****** ****** ******
      ****** ****** ****** ****** ****** ****** ****** ****** ****** ******
      ****** ****** ****** ****** ****** ****** ****** ****** ****** ******
  14  ****** ****** ****** ****** ****** ****** ****** ****** ****** ******
      ****** ****** ****** ****** ****** ****** ****** ****** ****** ******
      ****** ****** ****** ****** ****** ****** ****** ****** ****** ******
  15  ****** ****** ****** ****** ****** ****** ****** ****** ****** ******
      ****** ****** ****** ****** ****** ****** ****** ****** ****** ******
      ****** ****** ****** ****** ****** ****** ****** ****** ****** ******
  16  ****** ****** ****** ****** ****** ****** ****** ****** ****** ******
      ****** ****** ****** ****** ****** ****** ****** ****** ****** ******
      ****** ****** ****** ****** ****** ****** ****** ****** ****** ******
  17  ****** ****** ****** ****** ****** ****** ****** ****** ****** ******
      ****** ****** ****** ****** ****** ****** ****** ****** ****** ******
      ****** ****** ****** ****** ****** ****** ****** ****** ****** ******
  18  ****** ****** ****** ****** ****** ****** ****** ****** ****** ******
      ****** ****** ****** ****** ****** ****** ****** ****** ****** ******
      ****** ****** ****** ****** ****** ****** ****** ****** ****** ******
  19  ****** ****** ****** ****** ****** ****** ****** ****** ****** ******
      ****** ****** ****** ****** ****** ****** ****** ****** ****** ******
      ****** ****** ****** ****** ****** ****** ****** ****** ****** ******
  20  ****** ****** ****** ****** ****** ****** ****** ****** ****** ******
      ****** ****** ****** ****** ****** ****** ****** ****** ****** ******
      ****** ****** ****** ****** ****** ****** ****** ****** ****** ******
  21  ****** ****** ****** ****** ****** ****** ****** ****** ****** ******
      ****** ****** ****** ****** ****** ****** ****** ****** ****** ******
      ****** ****** ****** ****** ****** ****** ****** ****** ****** ******
  22  ****** ****** ****** ****** ****** ****** ****** ****** ****** ******
      ****** ****** ****** ****** ****** ****** ****** ****** ****** ******
      ****** ****** ****** ****** ****** ****** ****** ****** ****** ******
  23  ****** ****** ****** ****** ****** ****** ****** ****** ****** ******
      ****** ****** ****** ****** ****** ****** ****** ****** ****** ******
      ****** ****** ****** ****** ****** ****** ****** ****** ****** ******
  24  ****** ****** ****** ****** ****** ****** ****** ****** ****** ******
      ****** ****** ****** ****** ****** ****** ****** ****** ****** ******
      ****** ****** ****** ****** ****** ****** ****** ****** ****** ******
  25  ****** ****** ****** ****** ****** ****** ****** ****** ****** ******
      ****** ****** ****** ****** ****** ****** ****** ****** ****** ******
      ****** ****** ****** ****** ****** ****** ****** ****** ****** ******

 HEAD WILL BE SAVED ON UNIT   51 AT END OF TIME STEP    1, STRESS PERIOD    2
1
  VOLUMETRIC BUDGET FOR ENTIRE MODEL AT END OF TIME STEP    1, STRESS PERIOD   2
  ------------------------------------------------------------------------------

     CUMULATIVE VOLUMES      L**3       RATES FOR THIS TIME STEP      L**3/T
     ------------------                 ------------------------

           IN:                                      IN:
           ---                                      ---
             STORAGE =    21954958.2733               STORAGE =       50588.2504
       CONSTANT HEAD =     2622523.1835         CONSTANT HEAD =       16436.4438
               WELLS =           0.0000                 WELLS =           0.0000
            RECHARGE =     6292800.0000              RECHARGE =       55200.0000
      STREAM LEAKAGE =     4125645.6737        STREAM LEAKAGE =       28662.0638

            TOTAL IN =    34995927.1305              TOTAL IN =      150886.7580

          OUT:                                     OUT:
          ----                                     ----
             STORAGE =           0.0000               STORAGE =           0.0000
       CONSTANT HEAD =           0.0000         CONSTANT HEAD =           0.0000
               WELLS =     8786236.3123                 WELLS =       48012.2203
            RECHARGE =           0.0000              RECHARGE =           0.0000
      STREAM LEAKAGE =    26209691.9917        STREAM LEAKAGE =      102874.5475

           TOTAL OUT =    34995928.3040             TOTAL OUT =      150886.7678

            IN - OUT =          -1.1734              IN - OUT =      -9.8255E-03

 PERCENT DISCREPANCY =          -0.00     PERCENT DISCREPANCY =          -0.00






         TIME SUMMARY AT END OF TIME STEP    1 IN STRESS PERIOD    2
                    SECONDS     MINUTES      HOURS       DAYS        YEARS
                    -----------------------------------------------------------
   TIME STEP LENGTH 7.86240E+06 1.31040E+05  2184.0      91.000     0.24914    
 STRESS PERIOD TIME 7.86240E+06 1.31040E+05  2184.0      91.000     0.24914    
         TOTAL TIME 1.58112E+07 2.63520E+05  4392.0      183.00     0.50103    
1
1
                            STRESS PERIOD NO.    3, LENGTH =   91.00000    
                            -----------------------------------------------

                              NUMBER OF TIME STEPS =     1

                               MULTIPLIER FOR DELT =     1.500

                            INITIAL TIME STEP SIZE =   91.00000    

 WELL NO.  LAYER   ROW   COL   STRESS RATE         
 --------------------------------------------------
      1      1     17     29     -0.1404E+05
      2      1     18     28     -0.1091E+05
      3      1     12     29      -8101.    
      4      1     19     29     -0.1496E+05

      4 WELLS

                 RECHARGE =   0.00000    

 REUSING STREAM SEGMENT DATA FROM LAST STRESS PERIOD
 
 SOLVING FOR HEAD 


     7 CALLS TO PCG ROUTINE FOR TIME STEP   1 IN STRESS PERIOD    3
    27 TOTAL ITERATIONS

 OUTPUT CONTROL FOR STRESS PERIOD    3   TIME STEP    1
    SAVE BUDGET
    SAVE HEAD FOR ALL LAYERS
    PRINT HEAD FOR ALL LAYERS
 UBDSV2 SAVING "STREAMFLOW OUT  " ON UNIT  50 AT TIME STEP  1, STRESS PERIOD   3



 STREAM LISTING     PERIOD      3   STEP        1

 LAYER ROW COL. STREAM  RCH.  FLOW INTO     FLOW TO   FLOW OUT OF   OVRLND.     DIRECT     STREAM       STREAM     STREAM     STREAM   STREAMBED  STREAMBED
                SEG.NO.  NO.  STRM. RCH.    AQUIFER    STRM. RCH.    RUNOFF     PRECIP       ET          HEAD       DEPTH      WIDTH   CONDCTNC.   GRADIENT

   1   13    1     1     1    1.0000E+05 -2.7801E+03   1.0278E+05  0.000E+00  0.000E+00  0.000E+00  4.84072E+01  1.459E-01  2.000E+01  2.000E+04 -1.390E-01
   1   13    2     1     2    1.0278E+05 -3.8904E+03   1.0667E+05  0.000E+00  0.000E+00  0.000E+00  4.79328E+01  1.487E-01  2.000E+01  2.000E+04 -1.945E-01
   1   14    3     1     3    1.0667E+05 -6.5789E+02   1.0733E+05  0.000E+00  0.000E+00  0.000E+00  4.74575E+01  1.506E-01  2.000E+01  2.000E+04 -3.289E-02
   1   15    4     1     4    1.0733E+05 -6.4125E+02   1.0797E+05  0.000E+00  0.000E+00  0.000E+00  4.69807E+01  1.512E-01  2.000E+01  2.000E+04 -3.206E-02
   1   16    5     1     5    1.0797E+05 -2.4676E+03   1.1044E+05  0.000E+00  0.000E+00  0.000E+00  4.65048E+01  1.525E-01  2.000E+01  2.000E+04 -1.234E-01
   1   16    6     1     6    1.1044E+05 -1.5109E+03   1.1195E+05  0.000E+00  0.000E+00  0.000E+00  4.60292E+01  1.542E-01  2.000E+01  2.000E+04 -7.554E-02
   1   16    7     1     7    1.1195E+05 -1.4754E+03   1.1342E+05  0.000E+00  0.000E+00  0.000E+00  4.55531E+01  1.554E-01  2.000E+01  2.000E+04 -7.377E-02
   1   16    8     1     8    1.1342E+05 -1.4652E+03   1.1489E+05  0.000E+00  0.000E+00  0.000E+00  4.50771E+01  1.566E-01  2.000E+01  2.000E+04 -7.326E-02
   1   16    9     1     9    1.1489E+05 -1.4499E+03   1.1634E+05  0.000E+00  0.000E+00  0.000E+00  4.46010E+01  1.578E-01  2.000E+01  2.000E+04 -7.249E-02
   1   16   10     1    10    1.1634E+05 -1.4268E+03   1.1777E+05  0.000E+00  0.000E+00  0.000E+00  4.41249E+01  1.590E-01  2.000E+01  2.000E+04 -7.134E-02
   1   16   11     1    11    1.1777E+05 -1.4280E+03   1.1919E+05  0.000E+00  0.000E+00  0.000E+00  4.36488E+01  1.601E-01  2.000E+01  2.000E+04 -7.140E-02
   1   16   12     1    12    1.1919E+05 -2.5392E+03   1.2173E+05  0.000E+00  0.000E+00  0.000E+00  4.31731E+01  1.617E-01  2.000E+01  2.000E+04 -1.270E-01
   1   15   13     1    13    1.2173E+05 -2.5081E+03   1.2424E+05  0.000E+00  0.000E+00  0.000E+00  4.26979E+01  1.638E-01  2.000E+01  2.000E+04 -1.254E-01
   1   14   14     1    14    1.2424E+05 -2.8769E+03   1.2712E+05  0.000E+00  0.000E+00  0.000E+00  4.22227E+01  1.659E-01  2.000E+01  2.000E+04 -1.438E-01
   1   13   15     1    15    1.2712E+05 -3.2651E+03   1.3038E+05  0.000E+00  0.000E+00  0.000E+00  4.17479E+01  1.683E-01  2.000E+01  2.000E+04 -1.633E-01
   1   12   16     1    16    1.3038E+05 -4.1336E+03   1.3452E+05  0.000E+00  0.000E+00  0.000E+00  4.12735E+01  1.712E-01  2.000E+01  2.000E+04 -2.067E-01
   1   12   17     1    17    1.3452E+05 -2.6534E+03   1.3717E+05  0.000E+00  0.000E+00  0.000E+00  4.07988E+01  1.738E-01  2.000E+01  2.000E+04 -1.327E-01
   1   12   18     1    18    1.3717E+05 -2.5103E+03   1.3968E+05  0.000E+00  0.000E+00  0.000E+00  4.03235E+01  1.758E-01  2.000E+01  2.000E+04 -1.255E-01
   1   12   19     1    19    1.3968E+05 -3.2089E+03   1.4289E+05  0.000E+00  0.000E+00  0.000E+00  3.98484E+01  1.780E-01  2.000E+01  2.000E+04 -1.604E-01
   1   13   20     1    20    1.4289E+05 -2.3692E+03   1.4526E+05  0.000E+00  0.000E+00  0.000E+00  3.93733E+01  1.801E-01  2.000E+01  2.000E+04 -1.185E-01
   1   14   21     1    21    1.4526E+05 -2.2028E+03   1.4746E+05  0.000E+00  0.000E+00  0.000E+00  3.88977E+01  1.818E-01  2.000E+01  2.000E+04 -1.101E-01
   1   14   22     1    22    1.4746E+05  4.8406E+03   1.4262E+05  0.000E+00  0.000E+00  0.000E+00  3.84194E+01  1.808E-01  2.000E+01  2.000E+04  2.420E-01
   1    9   30     2     1    5.0000E+04  4.3682E+02   4.9563E+04  0.000E+00  0.000E+00  0.000E+00  4.02406E+01  1.156E-01  2.000E+01  2.000E+04  2.184E-02
   1    9   29     2     2    4.9563E+04  6.5950E+01   4.9497E+04  0.000E+00  0.000E+00  0.000E+00  3.99902E+01  1.152E-01  2.000E+01  2.000E+04  3.298E-03
   1    9   28     2     3    4.9497E+04 -5.6190E+02   5.0059E+04  0.000E+00  0.000E+00  0.000E+00  3.97406E+01  1.156E-01  2.000E+01  2.000E+04 -2.810E-02
   1    9   27     2     4    5.0059E+04 -2.5941E+03   5.2653E+04  0.000E+00  0.000E+00  0.000E+00  3.94927E+01  1.177E-01  2.000E+01  2.000E+04 -1.297E-01
   1   10   26     2     5    5.2653E+04 -1.1016E+03   5.3755E+04  0.000E+00  0.000E+00  0.000E+00  3.92453E+01  1.203E-01  2.000E+01  2.000E+04 -5.508E-02
   1   11   25     2     6    5.3755E+04 -1.0802E+03   5.4835E+04  0.000E+00  0.000E+00  0.000E+00  3.89967E+01  1.217E-01  2.000E+01  2.000E+04 -5.401E-02
   1   12   24     2     7    5.4835E+04 -1.6243E+03   5.6459E+04  0.000E+00  0.000E+00  0.000E+00  3.87485E+01  1.235E-01  2.000E+01  2.000E+04 -8.122E-02
   1   13   23     2     8    5.6459E+04 -2.7789E+02   5.6737E+04  0.000E+00  0.000E+00  0.000E+00  3.84998E+01  1.248E-01  2.000E+01  2.000E+04 -1.389E-02
   1   14   22     2     9    5.6737E+04  1.4326E+03   5.5304E+04  0.000E+00  0.000E+00  0.000E+00  3.82490E+01  1.240E-01  2.000E+01  2.000E+04  7.163E-02
   1   14   22     3     1    1.9792E+05 -8.7733E+03   2.0670E+05  0.000E+00  0.000E+00  0.000E+00  3.77388E+01  1.832E-01  2.000E+01  2.000E+04 -4.387E-01
   1   15   23     3     2    2.0670E+05 -6.2128E+02   2.0732E+05  0.000E+00  0.000E+00  0.000E+00  3.68524E+01  1.857E-01  2.000E+01  2.000E+04 -3.106E-02
   1   15   24     3     3    2.0732E+05 -2.9917E+02   2.0762E+05  0.000E+00  0.000E+00  0.000E+00  3.59638E+01  1.860E-01  2.000E+01  2.000E+04 -1.496E-02
   1   15   25     3     4    2.0762E+05 -2.5578E+02   2.0787E+05  0.000E+00  0.000E+00  0.000E+00  3.50750E+01  1.861E-01  2.000E+01  2.000E+04 -1.279E-02
   1   15   26     3     5    2.0787E+05 -8.8933E+01   2.0796E+05  0.000E+00  0.000E+00  0.000E+00  3.41862E+01  1.862E-01  2.000E+01  2.000E+04 -4.447E-03
   1   16   27     3     6    2.0796E+05  2.4575E+02   2.0772E+05  0.000E+00  0.000E+00  0.000E+00  3.32973E+01  1.862E-01  2.000E+01  2.000E+04  1.229E-02
   1   17   28     3     7    2.0772E+05  1.0573E+04   1.9715E+05  0.000E+00  0.000E+00  0.000E+00  3.24055E+01  1.833E-01  2.000E+01  2.000E+04  5.286E-01
   1   18   29     3     8    1.9715E+05  1.3830E+04   1.8331E+05  0.000E+00  0.000E+00  0.000E+00  3.15099E+01  1.765E-01  2.000E+01  2.000E+04  6.915E-01
   1   18   30     3     9    1.8331E+05  3.5379E+03   1.7978E+05  0.000E+00  0.000E+00  0.000E+00  3.06161E+01  1.717E-01  2.000E+01  2.000E+04  1.769E-01



1
              HEAD IN LAYER   1 AT END OF TIME STEP   1 IN STRESS PERIOD    3
  ---------------------------------------------------------------------------

          1      2      3      4      5      6      7      8      9     10
         11     12     13     14     15     16     17     18     19     20
         21     22     23     24     25     26     27     28     29     30
 .........................................................................
   1  ****** ****** ****** ****** ****** ****** ****** ****** ****** ******
      ****** ****** ****** ****** ****** ****** ****** ****** ****** ******
      ****** ****** ****** ****** ****** ****** ****** ****** ****** ******
   2  ****** ****** ****** ****** ****** ****** ****** ****** ****** ******
      ****** ****** ****** ****** ****** ****** ****** ****** ****** ******
      ****** ****** ****** ****** ****** ****** ****** ****** ****** ******
   3  ****** ****** ****** ****** ****** ****** ****** ****** ****** ******
      ****** ****** ****** ****** ****** ****** ****** ****** ****** ******
      ****** ****** ****** ****** ****** ****** ****** ****** ****** ******
   4  ****** ****** ****** ****** ****** ****** ****** ****** ****** ******
      ****** ****** ****** ****** ****** ****** ****** ****** ****** ******
      ****** ****** ****** ****** ****** ****** ****** ****** ****** ******
   5  ****** ****** ****** ****** ****** ****** ****** ****** ****** ******
      ****** ****** ****** ****** ****** ****** ****** ****** ****** ******
      ****** ****** ****** ****** ****** ****** ****** ****** ****** ******
   6  ****** ****** ****** ****** ****** ****** ****** ****** ****** ******
      ****** ****** ****** ****** ****** ****** ****** ****** ****** ******
      ****** ****** ****** ****** ****** ****** ****** ****** ****** ******
   7  ****** ****** ****** ****** ****** ****** ****** ****** ****** ******
      ****** ****** ****** ****** ****** ****** ****** ****** ****** ******
      ****** ****** ****** ****** ****** ****** ****** ****** ****** ******
   8  ****** ****** ****** ****** ****** ****** ****** ****** ****** ******
      ****** ****** ****** ****** ****** ****** ****** ****** ****** ******
      ****** ****** ****** ****** ****** ****** ****** ****** ****** ******
   9  ****** ****** ****** ****** ****** ****** ****** ****** ****** ******
      ****** ****** ****** ****** ****** ****** ****** ****** ****** ******
      ****** ****** ****** ****** ****** ****** ****** ****** ****** ******
  10  ****** ****** ****** ****** ****** ****** ****** ****** ****** ******
      ****** ****** ****** ****** ****** ****** ****** ****** ****** ******
      ****** ****** ****** ****** ****** ****** ****** ****** ****** ******
  11  ****** ****** ****** ****** ****** ****** ****** ****** ****** ******
      ****** ****** ****** ****** ****** ****** ****** ****** ****** ******
      ****** ****** ****** ****** ****** ****** ****** ****** ****** ******
  12  ****** ****** ****** ****** ****** ****** ****** ****** ****** ******
      ****** ****** ****** ****** ****** ****** ****** ****** ****** ******
      ****** ****** ****** ****** ****** ****** ****** ****** ****** ******
  13  ****** ****** ****** ****** ****** ****** ****** ****** ****** ******
      ****** ****** ****** ****** ****** ****** ****** ****** ****** ******
      ****** ****** ****** ****** ****** ****** ****** ****** ****** ******
  14  ****** ****** ****** ****** ****** ****** ****** ****** ****** ******
      ****** ****** ****** ****** ****** ****** ****** ****** ****** ******
      ****** ****** ****** ****** ****** ****** ****** ****** ****** ******
  15  ****** ****** ****** ****** ****** ****** ****** ****** ****** ******
      ****** ****** ****** ****** ****** ****** ****** ****** ****** ******
      ****** ****** ****** ****** ****** ****** ****** ****** ****** ******
  16  ****** ****** ****** ****** ****** ****** ****** ****** ****** ******
      ****** ****** ****** ****** ****** ****** ****** ****** ****** ******
      ****** ****** ****** ****** ****** ****** ****** ****** ****** ******
  17  ****** ****** ****** ****** ****** ****** ****** ****** ****** ******
      ****** ****** ****** ****** ****** ****** ****** ****** ****** ******
      ****** ****** ****** ****** ****** ****** ****** ****** ****** ******
  18  ****** ****** ****** ****** ****** ****** ****** ****** ****** ******
      ****** ****** ****** ****** ****** ****** ****** ****** ****** ******
      ****** ****** ****** ****** ****** ****** ****** ****** ****** ******
  19  ****** ****** ****** ****** ****** ****** ****** ****** ****** ******
      ****** ****** ****** ****** ****** ****** ****** ****** ****** ******
      ****** ****** ****** ****** ****** ****** ****** ****** ****** ******
  20  ****** ****** ****** ****** ****** ****** ****** ****** ****** ******
      ****** ****** ****** ****** ****** ****** ****** ****** ****** ******
      ****** ****** ****** ****** ****** ****** ****** ****** ****** ******
  21  ****** ****** ****** ****** ****** ****** ****** ****** ****** ******
      ****** ****** ****** ****** ****** ****** ****** ****** ****** ******
      ****** ****** ****** ****** ****** ****** ****** ****** ****** ******
  22  ****** ****** ****** ****** ****** ****** ****** ****** ****** ******
      ****** ****** ****** ****** ****** ****** ****** ****** ****** ******
      ****** ****** ****** ****** ****** ****** ****** ****** ****** ******
  23  ****** ****** ****** ****** ****** ****** ****** ****** ****** ******
      ****** ****** ****** ****** ****** ****** ****** ****** ****** ******
      ****** ****** ****** ****** ****** ****** ****** ****** ****** ******
  24  ****** ****** ****** ****** ****** ****** ****** ****** ****** ******
      ****** ****** ****** ****** ****** ****** ****** ****** ****** ******
      ****** ****** ****** ****** ****** ****** ****** ****** ****** ******
  25  ****** ****** ****** ****** ****** ****** ****** ****** ****** ******
      ****** ****** ****** ****** ****** ****** ****** ****** ****** ******
      ****** ****** ****** ****** ****** ****** ****** ****** ****** ******

 HEAD WILL BE SAVED ON UNIT   51 AT END OF TIME STEP    1, STRESS PERIOD    3
1
  VOLUMETRIC BUDGET FOR ENTIRE MODEL AT END OF TIME STEP    1, STRESS PERIOD   3
  ------------------------------------------------------------------------------

     CUMULATIVE VOLUMES      L**3       RATES FOR THIS TIME STEP      L**3/T
     ------------------                 ------------------------

           IN:                                      IN:
           ---                                      ---
             STORAGE =    26782315.0483               STORAGE =       53047.8766
       CONSTANT HEAD =     4873965.9131         CONSTANT HEAD =       24741.1289
               WELLS =           0.0000                 WELLS =           0.0000
            RECHARGE =     6292800.0000              RECHARGE =           0.0000
      STREAM LEAKAGE =     7307239.7741        STREAM LEAKAGE =       34962.5725

            TOTAL IN =    45256320.7355              TOTAL IN =      112751.5781

          OUT:                                     OUT:
          ----                                     ----
             STORAGE =           0.0000               STORAGE =           0.0000
       CONSTANT HEAD =           0.0000         CONSTANT HEAD =           0.0000
               WELLS =    13155348.3583                 WELLS =       48012.2203
            RECHARGE =           0.0000              RECHARGE =           0.0000
      STREAM LEAKAGE =    32100974.1782        STREAM LEAKAGE =       64739.3647

           TOTAL OUT =    45256322.5365             TOTAL OUT =      112751.5850

            IN - OUT =          -1.8010              IN - OUT =      -6.8966E-03

 PERCENT DISCREPANCY =          -0.00     PERCENT DISCREPANCY =          -0.00






         TIME SUMMARY AT END OF TIME STEP    1 IN STRESS PERIOD    3
                    SECONDS     MINUTES      HOURS       DAYS        YEARS
                    -----------------------------------------------------------
   TIME STEP LENGTH 7.86240E+06 1.31040E+05  2184.0      91.000     0.24914    
 STRESS PERIOD TIME 7.86240E+06 1.31040E+05  2184.0      91.000     0.24914    
         TOTAL TIME 2.36736E+07 3.94560E+05  6576.0      274.00     0.75017    
1
1
                            STRESS PERIOD NO.    4, LENGTH =   91.00000    
                            -----------------------------------------------

                              NUMBER OF TIME STEPS =     1

                               MULTIPLIER FOR DELT =     1.500

                            INITIAL TIME STEP SIZE =   91.00000    

 WELL NO.  LAYER   ROW   COL   STRESS RATE         
 --------------------------------------------------
      1      1     17     29     -0.1404E+05
      2      1     18     28     -0.1091E+05
      3      1     12     29      -8101.    
      4      1     19     29     -0.1496E+05

      4 WELLS

                 RECHARGE =  1.000000E-03

 REUSING STREAM SEGMENT DATA FROM LAST STRESS PERIOD
 
 SOLVING FOR HEAD 


     7 CALLS TO PCG ROUTINE FOR TIME STEP   1 IN STRESS PERIOD    4
    24 TOTAL ITERATIONS

 OUTPUT CONTROL FOR STRESS PERIOD    4   TIME STEP    1
    SAVE BUDGET
    SAVE HEAD FOR ALL LAYERS
    PRINT HEAD FOR ALL LAYERS
 UBDSV2 SAVING "STREAMFLOW OUT  " ON UNIT  50 AT TIME STEP  1, STRESS PERIOD   4



 STREAM LISTING     PERIOD      4   STEP        1

 LAYER ROW COL. STREAM  RCH.  FLOW INTO     FLOW TO   FLOW OUT OF   OVRLND.     DIRECT     STREAM       STREAM     STREAM     STREAM   STREAMBED  STREAMBED
                SEG.NO.  NO.  STRM. RCH.    AQUIFER    STRM. RCH.    RUNOFF     PRECIP       ET          HEAD       DEPTH      WIDTH   CONDCTNC.   GRADIENT

   1   13    1     1     1    1.0000E+05 -2.5595E+03   1.0256E+05  0.000E+00  0.000E+00  0.000E+00  4.84071E+01  1.458E-01  2.000E+01  2.000E+04 -1.280E-01
   1   13    2     1     2    1.0256E+05 -3.6331E+03   1.0619E+05  0.000E+00  0.000E+00  0.000E+00  4.79325E+01  1.484E-01  2.000E+01  2.000E+04 -1.817E-01
   1   14    3     1     3    1.0619E+05 -6.3133E+02   1.0682E+05  0.000E+00  0.000E+00  0.000E+00  4.74570E+01  1.502E-01  2.000E+01  2.000E+04 -3.157E-02
   1   15    4     1     4    1.0682E+05 -6.0464E+02   1.0743E+05  0.000E+00  0.000E+00  0.000E+00  4.69803E+01  1.508E-01  2.000E+01  2.000E+04 -3.023E-02
   1   16    5     1     5    1.0743E+05 -2.1709E+03   1.0960E+05  0.000E+00  0.000E+00  0.000E+00  4.65042E+01  1.519E-01  2.000E+01  2.000E+04 -1.085E-01
   1   16    6     1     6    1.0960E+05 -1.3660E+03   1.1097E+05  0.000E+00  0.000E+00  0.000E+00  4.60284E+01  1.534E-01  2.000E+01  2.000E+04 -6.830E-02
   1   16    7     1     7    1.1097E+05 -1.3420E+03   1.1231E+05  0.000E+00  0.000E+00  0.000E+00  4.55523E+01  1.545E-01  2.000E+01  2.000E+04 -6.710E-02
   1   16    8     1     8    1.1231E+05 -1.3362E+03   1.1364E+05  0.000E+00  0.000E+00  0.000E+00  4.50761E+01  1.556E-01  2.000E+01  2.000E+04 -6.681E-02
   1   16    9     1     9    1.1364E+05 -1.3239E+03   1.1497E+05  0.000E+00  0.000E+00  0.000E+00  4.45999E+01  1.567E-01  2.000E+01  2.000E+04 -6.619E-02
   1   16   10     1    10    1.1497E+05 -1.3042E+03   1.1627E+05  0.000E+00  0.000E+00  0.000E+00  4.41237E+01  1.578E-01  2.000E+01  2.000E+04 -6.521E-02
   1   16   11     1    11    1.1627E+05 -1.3053E+03   1.1758E+05  0.000E+00  0.000E+00  0.000E+00  4.36475E+01  1.589E-01  2.000E+01  2.000E+04 -6.526E-02
   1   16   12     1    12    1.1758E+05 -2.2811E+03   1.1986E+05  0.000E+00  0.000E+00  0.000E+00  4.31717E+01  1.603E-01  2.000E+01  2.000E+04 -1.141E-01
   1   15   13     1    13    1.1986E+05 -2.2754E+03   1.2213E+05  0.000E+00  0.000E+00  0.000E+00  4.26963E+01  1.622E-01  2.000E+01  2.000E+04 -1.138E-01
   1   14   14     1    14    1.2213E+05 -2.6283E+03   1.2476E+05  0.000E+00  0.000E+00  0.000E+00  4.22210E+01  1.641E-01  2.000E+01  2.000E+04 -1.314E-01
   1   13   15     1    15    1.2476E+05 -2.9983E+03   1.2776E+05  0.000E+00  0.000E+00  0.000E+00  4.17459E+01  1.664E-01  2.000E+01  2.000E+04 -1.499E-01
   1   12   16     1    16    1.2776E+05 -3.7845E+03   1.3154E+05  0.000E+00  0.000E+00  0.000E+00  4.12713E+01  1.690E-01  2.000E+01  2.000E+04 -1.892E-01
   1   12   17     1    17    1.3154E+05 -2.4444E+03   1.3399E+05  0.000E+00  0.000E+00  0.000E+00  4.07965E+01  1.715E-01  2.000E+01  2.000E+04 -1.222E-01
   1   12   18     1    18    1.3399E+05 -2.3161E+03   1.3630E+05  0.000E+00  0.000E+00  0.000E+00  4.03210E+01  1.733E-01  2.000E+01  2.000E+04 -1.158E-01
   1   12   19     1    19    1.3630E+05 -2.9699E+03   1.3927E+05  0.000E+00  0.000E+00  0.000E+00  3.98458E+01  1.753E-01  2.000E+01  2.000E+04 -1.485E-01
   1   13   20     1    20    1.3927E+05 -2.2099E+03   1.4148E+05  0.000E+00  0.000E+00  0.000E+00  3.93705E+01  1.773E-01  2.000E+01  2.000E+04 -1.105E-01
   1   14   21     1    21    1.4148E+05 -1.9689E+03   1.4345E+05  0.000E+00  0.000E+00  0.000E+00  3.88948E+01  1.789E-01  2.000E+01  2.000E+04 -9.844E-02
   1   14   22     1    22    1.4345E+05  4.8779E+03   1.3858E+05  0.000E+00  0.000E+00  0.000E+00  3.84164E+01  1.778E-01  2.000E+01  2.000E+04  2.439E-01
   1    9   30     2     1    5.0000E+04  5.2623E+02   4.9474E+04  0.000E+00  0.000E+00  0.000E+00  4.02405E+01  1.155E-01  2.000E+01  2.000E+04  2.631E-02
   1    9   29     2     2    4.9474E+04  1.6100E+02   4.9313E+04  0.000E+00  0.000E+00  0.000E+00  3.99900E+01  1.150E-01  2.000E+01  2.000E+04  8.050E-03
   1    9   28     2     3    4.9313E+04 -4.4988E+02   4.9763E+04  0.000E+00  0.000E+00  0.000E+00  3.97402E+01  1.152E-01  2.000E+01  2.000E+04 -2.249E-02
   1    9   27     2     4    4.9763E+04 -2.3456E+03   5.2108E+04  0.000E+00  0.000E+00  0.000E+00  3.94922E+01  1.172E-01  2.000E+01  2.000E+04 -1.173E-01
   1   10   26     2     5    5.2108E+04 -9.5429E+02   5.3063E+04  0.000E+00  0.000E+00  0.000E+00  3.92444E+01  1.194E-01  2.000E+01  2.000E+04 -4.771E-02
   1   11   25     2     6    5.3063E+04 -9.7205E+02   5.4035E+04  0.000E+00  0.000E+00  0.000E+00  3.89957E+01  1.207E-01  2.000E+01  2.000E+04 -4.860E-02
   1   12   24     2     7    5.4035E+04 -1.5370E+03   5.5572E+04  0.000E+00  0.000E+00  0.000E+00  3.87474E+01  1.224E-01  2.000E+01  2.000E+04 -7.685E-02
   1   13   23     2     8    5.5572E+04 -3.0522E+02   5.5877E+04  0.000E+00  0.000E+00  0.000E+00  3.84987E+01  1.237E-01  2.000E+01  2.000E+04 -1.526E-02
   1   14   22     2     9    5.5877E+04  1.5066E+03   5.4370E+04  0.000E+00  0.000E+00  0.000E+00  3.82478E+01  1.228E-01  2.000E+01  2.000E+04  7.533E-02
   1   14   22     3     1    1.9295E+05 -8.7300E+03   2.0168E+05  0.000E+00  0.000E+00  0.000E+00  3.77360E+01  1.805E-01  2.000E+01  2.000E+04 -4.365E-01
   1   15   23     3     2    2.0168E+05 -5.9338E+02   2.0227E+05  0.000E+00  0.000E+00  0.000E+00  3.68497E+01  1.830E-01  2.000E+01  2.000E+04 -2.967E-02
   1   15   24     3     3    2.0227E+05 -2.9360E+02   2.0256E+05  0.000E+00  0.000E+00  0.000E+00  3.59610E+01  1.833E-01  2.000E+01  2.000E+04 -1.468E-02
   1   15   25     3     4    2.0256E+05 -2.4855E+02   2.0281E+05  0.000E+00  0.000E+00  0.000E+00  3.50723E+01  1.834E-01  2.000E+01  2.000E+04 -1.243E-02
   1   15   26     3     5    2.0281E+05 -8.8749E+01   2.0290E+05  0.000E+00  0.000E+00  0.000E+00  3.41835E+01  1.835E-01  2.000E+01  2.000E+04 -4.437E-03
   1   16   27     3     6    2.0290E+05  2.5882E+02   2.0264E+05  0.000E+00  0.000E+00  0.000E+00  3.32946E+01  1.834E-01  2.000E+01  2.000E+04  1.294E-02
   1   17   28     3     7    2.0264E+05  1.0693E+04   1.9195E+05  0.000E+00  0.000E+00  0.000E+00  3.24027E+01  1.805E-01  2.000E+01  2.000E+04  5.346E-01
   1   18   29     3     8    1.9195E+05  1.4136E+04   1.7781E+05  0.000E+00  0.000E+00  0.000E+00  3.15069E+01  1.736E-01  2.000E+01  2.000E+04  7.068E-01
   1   18   30     3     9    1.7781E+05  3.7066E+03   1.7411E+05  0.000E+00  0.000E+00  0.000E+00  3.06129E+01  1.685E-01  2.000E+01  2.000E+04  1.853E-01



1
              HEAD IN LAYER   1 AT END OF TIME STEP   1 IN STRESS PERIOD    4
  ---------------------------------------------------------------------------

          1      2      3      4      5      6      7      8      9     10
         11     12     13     14     15     16     17     18     19     20
         21     22     23     24     25     26     27     28     29     30
 .........................................................................
   1  ****** ****** ****** ****** ****** ****** ****** ****** ****** ******
      ****** ****** ****** ****** ****** ****** ****** ****** ****** ******
      ****** ****** ****** ****** ****** ****** ****** ****** ****** ******
   2  ****** ****** ****** ****** ****** ****** ****** ****** ****** ******
      ****** ****** ****** ****** ****** ****** ****** ****** ****** ******
      ****** ****** ****** ****** ****** ****** ****** ****** ****** ******
   3  ****** ****** ****** ****** ****** ****** ****** ****** ****** ******
      ****** ****** ****** ****** ****** ****** ****** ****** ****** ******
      ****** ****** ****** ****** ****** ****** ****** ****** ****** ******
   4  ****** ****** ****** ****** ****** ****** ****** ****** ****** ******
      ****** ****** ****** ****** ****** ****** ****** ****** ****** ******
      ****** ****** ****** ****** ****** ****** ****** ****** ****** ******
   5  ****** ****** ****** ****** ****** ****** ****** ****** ****** ******
      ****** ****** ****** ****** ****** ****** ****** ****** ****** ******
      ****** ****** ****** ****** ****** ****** ****** ****** ****** ******
   6  ****** ****** ****** ****** ****** ****** ****** ****** ****** ******
      ****** ****** ****** ****** ****** ****** ****** ****** ****** ******
      ****** ****** ****** ****** ****** ****** ****** ****** ****** ******
   7  ****** ****** ****** ****** ****** ****** ****** ****** ****** ******
      ****** ****** ****** ****** ****** ****** ****** ****** ****** ******
      ****** ****** ****** ****** ****** ****** ****** ****** ****** ******
   8  ****** ****** ****** ****** ****** ****** ****** ****** ****** ******
      ****** ****** ****** ****** ****** ****** ****** ****** ****** ******
      ****** ****** ****** ****** ****** ****** ****** ****** ****** ******
   9  ****** ****** ****** ****** ****** ****** ****** ****** ****** ******
      ****** ****** ****** ****** ****** ****** ****** ****** ****** ******
      ****** ****** ****** ****** ****** ****** ****** ****** ****** ******
  10  ****** ****** ****** ****** ****** ****** ****** ****** ****** ******
      ****** ****** ****** ****** ****** ****** ****** ****** ****** ******
      ****** ****** ****** ****** ****** ****** ****** ****** ****** ******
  11  ****** ****** ****** ****** ****** ****** ****** ****** ****** ******
      ****** ****** ****** ****** ****** ****** ****** ****** ****** ******
      ****** ****** ****** ****** ****** ****** ****** ****** ****** ******
  12  ****** ****** ****** ****** ****** ****** ****** ****** ****** ******
      ****** ****** ****** ****** ****** ****** ****** ****** ****** ******
      ****** ****** ****** ****** ****** ****** ****** ****** ****** ******
  13  ****** ****** ****** ****** ****** ****** ****** ****** ****** ******
      ****** ****** ****** ****** ****** ****** ****** ****** ****** ******
      ****** ****** ****** ****** ****** ****** ****** ****** ****** ******
  14  ****** ****** ****** ****** ****** ****** ****** ****** ****** ******
      ****** ****** ****** ****** ****** ****** ****** ****** ****** ******
      ****** ****** ****** ****** ****** ****** ****** ****** ****** ******
  15  ****** ****** ****** ****** ****** ****** ****** ****** ****** ******
      ****** ****** ****** ****** ****** ****** ****** ****** ****** ******
      ****** ****** ****** ****** ****** ****** ****** ****** ****** ******
  16  ****** ****** ****** ****** ****** ****** ****** ****** ****** ******
      ****** ****** ****** ****** ****** ****** ****** ****** ****** ******
      ****** ****** ****** ****** ****** ****** ****** ****** ****** ******
  17  ****** ****** ****** ****** ****** ****** ****** ****** ****** ******
      ****** ****** ****** ****** ****** ****** ****** ****** ****** ******
      ****** ****** ****** ****** ****** ****** ****** ****** ****** ******
  18  ****** ****** ****** ****** ****** ****** ****** ****** ****** ******
      ****** ****** ****** ****** ****** ****** ****** ****** ****** ******
      ****** ****** ****** ****** ****** ****** ****** ****** ****** ******
  19  ****** ****** ****** ****** ****** ****** ****** ****** ****** ******
      ****** ****** ****** ****** ****** ****** ****** ****** ****** ******
      ****** ****** ****** ****** ****** ****** ****** ****** ****** ******
  20  ****** ****** ****** ****** ****** ****** ****** ****** ****** ******
      ****** ****** ****** ****** ****** ****** ****** ****** ****** ******
      ****** ****** ****** ****** ****** ****** ****** ****** ****** ******
  21  ****** ****** ****** ****** ****** ****** ****** ****** ****** ******
      ****** ****** ****** ****** ****** ****** ****** ****** ****** ******
      ****** ****** ****** ****** ****** ****** ****** ****** ****** ******
  22  ****** ****** ****** ****** ****** ****** ****** ****** ****** ******
      ****** ****** ****** ****** ****** ****** ****** ****** ****** ******
      ****** ****** ****** ****** ****** ****** ****** ****** ****** ******
  23  ****** ****** ****** ****** ****** ****** ****** ****** ****** ******
      ****** ****** ****** ****** ****** ****** ****** ****** ****** ******
      ****** ****** ****** ****** ****** ****** ****** ****** ****** ******
  24  ****** ****** ****** ****** ****** ****** ****** ****** ****** ******
      ****** ****** ****** ****** ****** ****** ****** ****** ****** ******
      ****** ****** ****** ****** ****** ****** ****** ****** ****** ******
  25  ****** ****** ****** ****** ****** ****** ****** ****** ****** ******
      ****** ****** ****** ****** ****** ****** ****** ****** ****** ******
      ****** ****** ****** ****** ****** ****** ****** ****** ****** ******

 HEAD WILL BE SAVED ON UNIT   51 AT END OF TIME STEP    1, STRESS PERIOD    4
1
  VOLUMETRIC BUDGET FOR ENTIRE MODEL AT END OF TIME STEP    1, STRESS PERIOD   4
  ------------------------------------------------------------------------------

     CUMULATIVE VOLUMES      L**3       RATES FOR THIS TIME STEP      L**3/T
     ------------------                 ------------------------

           IN:                                      IN:
           ---                                      ---
             STORAGE =    28360158.8837               STORAGE =       17338.9432
       CONSTANT HEAD =     7347715.6575         CONSTANT HEAD =       27184.0631
               WELLS =           0.0000                 WELLS =           0.0000
            RECHARGE =     8804400.0000              RECHARGE =       27600.0000
      STREAM LEAKAGE =    10571036.1730        STREAM LEAKAGE =       35865.8945

            TOTAL IN =    55083310.7142              TOTAL IN =      107988.9009

          OUT:                                     OUT:
          ----                                     ----
             STORAGE =         438.8620               STORAGE =           4.8227
       CONSTANT HEAD =           0.0000         CONSTANT HEAD =           0.0000
               WELLS =    17524460.4043                 WELLS =       48012.2203
            RECHARGE =           0.0000              RECHARGE =           0.0000
      STREAM LEAKAGE =    37558413.3480        STREAM LEAKAGE =       59971.8590

           TOTAL OUT =    55083312.6143             TOTAL OUT =      107988.9020

            IN - OUT =          -1.9000              IN - OUT =      -1.0883E-03

 PERCENT DISCREPANCY =          -0.00     PERCENT DISCREPANCY =          -0.00






         TIME SUMMARY AT END OF TIME STEP    1 IN STRESS PERIOD    4
                    SECONDS     MINUTES      HOURS       DAYS        YEARS
                    -----------------------------------------------------------
   TIME STEP LENGTH 7.86240E+06 1.31040E+05  2184.0      91.000     0.24914    
 STRESS PERIOD TIME 7.86240E+06 1.31040E+05  2184.0      91.000     0.24914    
         TOTAL TIME 3.15360E+07 5.25600E+05  8760.0      365.00     0.99932    
1
1
                            STRESS PERIOD NO.    5, LENGTH =   92.00000    
                            -----------------------------------------------

                              NUMBER OF TIME STEPS =     1

                               MULTIPLIER FOR DELT =     1.500

                            INITIAL TIME STEP SIZE =   92.00000    

 WELL NO.  LAYER   ROW   COL   STRESS RATE         
 --------------------------------------------------
      1      1     17     29     -0.1404E+05
      2      1     18     28     -0.1091E+05
      3      1     12     29      -8101.    
      4      1     19     29     -0.1496E+05

      4 WELLS

                 RECHARGE =  5.000000E-04

 REUSING STREAM SEGMENT DATA FROM LAST STRESS PERIOD
 
 SOLVING FOR HEAD 


     7 CALLS TO PCG ROUTINE FOR TIME STEP   1 IN STRESS PERIOD    5
    26 TOTAL ITERATIONS

 OUTPUT CONTROL FOR STRESS PERIOD    5   TIME STEP    1
    SAVE BUDGET
    SAVE HEAD FOR ALL LAYERS
    PRINT HEAD FOR ALL LAYERS
 UBDSV2 SAVING "STREAMFLOW OUT  " ON UNIT  50 AT TIME STEP  1, STRESS PERIOD   5



 STREAM LISTING     PERIOD      5   STEP        1

 LAYER ROW COL. STREAM  RCH.  FLOW INTO     FLOW TO   FLOW OUT OF   OVRLND.     DIRECT     STREAM       STREAM     STREAM     STREAM   STREAMBED  STREAMBED
                SEG.NO.  NO.  STRM. RCH.    AQUIFER    STRM. RCH.    RUNOFF     PRECIP       ET          HEAD       DEPTH      WIDTH   CONDCTNC.   GRADIENT

   1   13    1     1     1    1.0000E+05 -2.1576E+03   1.0216E+05  0.000E+00  0.000E+00  0.000E+00  4.84069E+01  1.456E-01  2.000E+01  2.000E+04 -1.079E-01
   1   13    2     1     2    1.0216E+05 -3.1787E+03   1.0534E+05  0.000E+00  0.000E+00  0.000E+00  4.79320E+01  1.479E-01  2.000E+01  2.000E+04 -1.589E-01
   1   14    3     1     3    1.0534E+05 -5.1098E+02   1.0585E+05  0.000E+00  0.000E+00  0.000E+00  4.74563E+01  1.495E-01  2.000E+01  2.000E+04 -2.555E-02
   1   15    4     1     4    1.0585E+05 -4.7749E+02   1.0632E+05  0.000E+00  0.000E+00  0.000E+00  4.69794E+01  1.499E-01  2.000E+01  2.000E+04 -2.387E-02
   1   16    5     1     5    1.0632E+05 -1.7440E+03   1.0807E+05  0.000E+00  0.000E+00  0.000E+00  4.65031E+01  1.508E-01  2.000E+01  2.000E+04 -8.720E-02
   1   16    6     1     6    1.0807E+05 -1.1165E+03   1.0919E+05  0.000E+00  0.000E+00  0.000E+00  4.60270E+01  1.520E-01  2.000E+01  2.000E+04 -5.583E-02
   1   16    7     1     7    1.0919E+05 -1.1030E+03   1.1029E+05  0.000E+00  0.000E+00  0.000E+00  4.55507E+01  1.529E-01  2.000E+01  2.000E+04 -5.515E-02
   1   16    8     1     8    1.1029E+05 -1.1010E+03   1.1139E+05  0.000E+00  0.000E+00  0.000E+00  4.50743E+01  1.539E-01  2.000E+01  2.000E+04 -5.505E-02
   1   16    9     1     9    1.1139E+05 -1.0916E+03   1.1248E+05  0.000E+00  0.000E+00  0.000E+00  4.45980E+01  1.548E-01  2.000E+01  2.000E+04 -5.458E-02
   1   16   10     1    10    1.1248E+05 -1.0752E+03   1.1356E+05  0.000E+00  0.000E+00  0.000E+00  4.41216E+01  1.557E-01  2.000E+01  2.000E+04 -5.376E-02
   1   16   11     1    11    1.1356E+05 -1.0754E+03   1.1463E+05  0.000E+00  0.000E+00  0.000E+00  4.36452E+01  1.566E-01  2.000E+01  2.000E+04 -5.377E-02
   1   16   12     1    12    1.1463E+05 -1.8701E+03   1.1650E+05  0.000E+00  0.000E+00  0.000E+00  4.31691E+01  1.578E-01  2.000E+01  2.000E+04 -9.350E-02
   1   15   13     1    13    1.1650E+05 -1.8467E+03   1.1835E+05  0.000E+00  0.000E+00  0.000E+00  4.26934E+01  1.593E-01  2.000E+01  2.000E+04 -9.234E-02
   1   14   14     1    14    1.1835E+05 -2.1760E+03   1.2052E+05  0.000E+00  0.000E+00  0.000E+00  4.22177E+01  1.609E-01  2.000E+01  2.000E+04 -1.088E-01
   1   13   15     1    15    1.2052E+05 -2.5329E+03   1.2306E+05  0.000E+00  0.000E+00  0.000E+00  4.17424E+01  1.628E-01  2.000E+01  2.000E+04 -1.266E-01
   1   12   16     1    16    1.2306E+05 -3.2816E+03   1.2634E+05  0.000E+00  0.000E+00  0.000E+00  4.12674E+01  1.651E-01  2.000E+01  2.000E+04 -1.641E-01
   1   12   17     1    17    1.2634E+05 -2.1041E+03   1.2844E+05  0.000E+00  0.000E+00  0.000E+00  4.07923E+01  1.673E-01  2.000E+01  2.000E+04 -1.052E-01
   1   12   18     1    18    1.2844E+05 -1.9914E+03   1.3043E+05  0.000E+00  0.000E+00  0.000E+00  4.03166E+01  1.689E-01  2.000E+01  2.000E+04 -9.957E-02
   1   12   19     1    19    1.3043E+05 -2.5779E+03   1.3301E+05  0.000E+00  0.000E+00  0.000E+00  3.98411E+01  1.707E-01  2.000E+01  2.000E+04 -1.289E-01
   1   13   20     1    20    1.3301E+05 -1.8601E+03   1.3487E+05  0.000E+00  0.000E+00  0.000E+00  3.93656E+01  1.724E-01  2.000E+01  2.000E+04 -9.300E-02
   1   14   21     1    21    1.3487E+05 -1.5863E+03   1.3646E+05  0.000E+00  0.000E+00  0.000E+00  3.88896E+01  1.737E-01  2.000E+01  2.000E+04 -7.931E-02
   1   14   22     1    22    1.3646E+05  4.9598E+03   1.3150E+05  0.000E+00  0.000E+00  0.000E+00  3.84110E+01  1.724E-01  2.000E+01  2.000E+04  2.480E-01
   1    9   30     2     1    5.0000E+04  7.5380E+02   4.9246E+04  0.000E+00  0.000E+00  0.000E+00  4.02403E+01  1.153E-01  2.000E+01  2.000E+04  3.769E-02
   1    9   29     2     2    4.9246E+04  3.9156E+02   4.8855E+04  0.000E+00  0.000E+00  0.000E+00  3.99895E+01  1.145E-01  2.000E+01  2.000E+04  1.958E-02
   1    9   28     2     3    4.8855E+04 -2.0883E+02   4.9063E+04  0.000E+00  0.000E+00  0.000E+00  3.97394E+01  1.144E-01  2.000E+01  2.000E+04 -1.044E-02
   1    9   27     2     4    4.9063E+04 -1.9702E+03   5.1034E+04  0.000E+00  0.000E+00  0.000E+00  3.94909E+01  1.159E-01  2.000E+01  2.000E+04 -9.851E-02
   1   10   26     2     5    5.1034E+04 -6.2414E+02   5.1658E+04  0.000E+00  0.000E+00  0.000E+00  3.92427E+01  1.177E-01  2.000E+01  2.000E+04 -3.121E-02
   1   11   25     2     6    5.1658E+04 -6.6868E+02   5.2326E+04  0.000E+00  0.000E+00  0.000E+00  3.89936E+01  1.186E-01  2.000E+01  2.000E+04 -3.343E-02
   1   12   24     2     7    5.2326E+04 -1.2610E+03   5.3587E+04  0.000E+00  0.000E+00  0.000E+00  3.87449E+01  1.199E-01  2.000E+01  2.000E+04 -6.305E-02
   1   13   23     2     8    5.3587E+04 -2.3800E+02   5.3825E+04  0.000E+00  0.000E+00  0.000E+00  3.84959E+01  1.209E-01  2.000E+01  2.000E+04 -1.190E-02
   1   14   22     2     9    5.3825E+04  1.6390E+03   5.2186E+04  0.000E+00  0.000E+00  0.000E+00  3.82450E+01  1.200E-01  2.000E+01  2.000E+04  8.195E-02
   1   14   22     3     1    1.8369E+05 -8.6437E+03   1.9233E+05  0.000E+00  0.000E+00  0.000E+00  3.77309E+01  1.753E-01  2.000E+01  2.000E+04 -4.322E-01
   1   15   23     3     2    1.9233E+05 -4.9177E+02   1.9282E+05  0.000E+00  0.000E+00  0.000E+00  3.68445E+01  1.779E-01  2.000E+01  2.000E+04 -2.459E-02
   1   15   24     3     3    1.9282E+05 -2.1860E+02   1.9304E+05  0.000E+00  0.000E+00  0.000E+00  3.59558E+01  1.780E-01  2.000E+01  2.000E+04 -1.093E-02
   1   15   25     3     4    1.9304E+05 -1.7376E+02   1.9321E+05  0.000E+00  0.000E+00  0.000E+00  3.50670E+01  1.782E-01  2.000E+01  2.000E+04 -8.688E-03
   1   15   26     3     5    1.9321E+05 -1.3016E+01   1.9323E+05  0.000E+00  0.000E+00  0.000E+00  3.41782E+01  1.782E-01  2.000E+01  2.000E+04 -6.508E-04
   1   16   27     3     6    1.9323E+05  3.5495E+02   1.9287E+05  0.000E+00  0.000E+00  0.000E+00  3.32892E+01  1.781E-01  2.000E+01  2.000E+04  1.775E-02
   1   17   28     3     7    1.9287E+05  1.0983E+04   1.8189E+05  0.000E+00  0.000E+00  0.000E+00  3.23972E+01  1.750E-01  2.000E+01  2.000E+04  5.491E-01
   1   18   29     3     8    1.8189E+05  1.4549E+04   1.6734E+05  0.000E+00  0.000E+00  0.000E+00  3.15010E+01  1.677E-01  2.000E+01  2.000E+04  7.275E-01
   1   18   30     3     9    1.6734E+05  3.9897E+03   1.6335E+05  0.000E+00  0.000E+00  0.000E+00  3.06067E+01  1.623E-01  2.000E+01  2.000E+04  1.995E-01



1
              HEAD IN LAYER   1 AT END OF TIME STEP   1 IN STRESS PERIOD    5
  ---------------------------------------------------------------------------

          1      2      3      4      5      6      7      8      9     10
         11     12     13     14     15     16     17     18     19     20
         21     22     23     24     25     26     27     28     29     30
 .........................................................................
   1  ****** ****** ****** ****** ****** ****** ****** ****** ****** ******
      ****** ****** ****** ****** ****** ****** ****** ****** ****** ******
      ****** ****** ****** ****** ****** ****** ****** ****** ****** ******
   2  ****** ****** ****** ****** ****** ****** ****** ****** ****** ******
      ****** ****** ****** ****** ****** ****** ****** ****** ****** ******
      ****** ****** ****** ****** ****** ****** ****** ****** ****** ******
   3  ****** ****** ****** ****** ****** ****** ****** ****** ****** ******
      ****** ****** ****** ****** ****** ****** ****** ****** ****** ******
      ****** ****** ****** ****** ****** ****** ****** ****** ****** ******
   4  ****** ****** ****** ****** ****** ****** ****** ****** ****** ******
      ****** ****** ****** ****** ****** ****** ****** ****** ****** ******
      ****** ****** ****** ****** ****** ****** ****** ****** ****** ******
   5  ****** ****** ****** ****** ****** ****** ****** ****** ****** ******
      ****** ****** ****** ****** ****** ****** ****** ****** ****** ******
      ****** ****** ****** ****** ****** ****** ****** ****** ****** ******
   6  ****** ****** ****** ****** ****** ****** ****** ****** ****** ******
      ****** ****** ****** ****** ****** ****** ****** ****** ****** ******
      ****** ****** ****** ****** ****** ****** ****** ****** ****** ******
   7  ****** ****** ****** ****** ****** ****** ****** ****** ****** ******
      ****** ****** ****** ****** ****** ****** ****** ****** ****** ******
      ****** ****** ****** ****** ****** ****** ****** ****** ****** ******
   8  ****** ****** ****** ****** ****** ****** ****** ****** ****** ******
      ****** ****** ****** ****** ****** ****** ****** ****** ****** ******
      ****** ****** ****** ****** ****** ****** ****** ****** ****** ******
   9  ****** ****** ****** ****** ****** ****** ****** ****** ****** ******
      ****** ****** ****** ****** ****** ****** ****** ****** ****** ******
      ****** ****** ****** ****** ****** ****** ****** ****** ****** ******
  10  ****** ****** ****** ****** ****** ****** ****** ****** ****** ******
      ****** ****** ****** ****** ****** ****** ****** ****** ****** ******
      ****** ****** ****** ****** ****** ****** ****** ****** ****** ******
  11  ****** ****** ****** ****** ****** ****** ****** ****** ****** ******
      ****** ****** ****** ****** ****** ****** ****** ****** ****** ******
      ****** ****** ****** ****** ****** ****** ****** ****** ****** ******
  12  ****** ****** ****** ****** ****** ****** ****** ****** ****** ******
      ****** ****** ****** ****** ****** ****** ****** ****** ****** ******
      ****** ****** ****** ****** ****** ****** ****** ****** ****** ******
  13  ****** ****** ****** ****** ****** ****** ****** ****** ****** ******
      ****** ****** ****** ****** ****** ****** ****** ****** ****** ******
      ****** ****** ****** ****** ****** ****** ****** ****** ****** ******
  14  ****** ****** ****** ****** ****** ****** ****** ****** ****** ******
      ****** ****** ****** ****** ****** ****** ****** ****** ****** ******
      ****** ****** ****** ****** ****** ****** ****** ****** ****** ******
  15  ****** ****** ****** ****** ****** ****** ****** ****** ****** ******
      ****** ****** ****** ****** ****** ****** ****** ****** ****** ******
      ****** ****** ****** ****** ****** ****** ****** ****** ****** ******
  16  ****** ****** ****** ****** ****** ****** ****** ****** ****** ******
      ****** ****** ****** ****** ****** ****** ****** ****** ****** ******
      ****** ****** ****** ****** ****** ****** ****** ****** ****** ******
  17  ****** ****** ****** ****** ****** ****** ****** ****** ****** ******
      ****** ****** ****** ****** ****** ****** ****** ****** ****** ******
      ****** ****** ****** ****** ****** ****** ****** ****** ****** ******
  18  ****** ****** ****** ****** ****** ****** ****** ****** ****** ******
      ****** ****** ****** ****** ****** ****** ****** ****** ****** ******
      ****** ****** ****** ****** ****** ****** ****** ****** ****** ******
  19  ****** ****** ****** ****** ****** ****** ****** ****** ****** ******
      ****** ****** ****** ****** ****** ****** ****** ****** ****** ******
      ****** ****** ****** ****** ****** ****** ****** ****** ****** ******
  20  ****** ****** ****** ****** ****** ****** ****** ****** ****** ******
      ****** ****** ****** ****** ****** ****** ****** ****** ****** ******
      ****** ****** ****** ****** ****** ****** ****** ****** ****** ******
  21  ****** ****** ****** ****** ****** ****** ****** ****** ****** ******
      ****** ****** ****** ****** ****** ****** ****** ****** ****** ******
      ****** ****** ****** ****** ****** ****** ****** ****** ****** ******
  22  ****** ****** ****** ****** ****** ****** ****** ****** ****** ******
      ****** ****** ****** ****** ****** ****** ****** ****** ****** ******
      ****** ****** ****** ****** ****** ****** ****** ****** ****** ******
  23  ****** ****** ****** ****** ****** ****** ****** ****** ****** ******
      ****** ****** ****** ****** ****** ****** ****** ****** ****** ******
      ****** ****** ****** ****** ****** ****** ****** ****** ****** ******
  24  ****** ****** ****** ****** ****** ****** ****** ****** ****** ******
      ****** ****** ****** ****** ****** ****** ****** ****** ****** ******
      ****** ****** ****** ****** ****** ****** ****** ****** ****** ******
  25  ****** ****** ****** ****** ****** ****** ****** ****** ****** ******
      ****** ****** ****** ****** ****** ****** ****** ****** ****** ******
      ****** ****** ****** ****** ****** ****** ****** ****** ****** ******

 HEAD WILL BE SAVED ON UNIT   51 AT END OF TIME STEP    1, STRESS PERIOD    5
1
  VOLUMETRIC BUDGET FOR ENTIRE MODEL AT END OF TIME STEP    1, STRESS PERIOD   5
  ------------------------------------------------------------------------------

     CUMULATIVE VOLUMES      L**3       RATES FOR THIS TIME STEP      L**3/T
     ------------------                 ------------------------

           IN:                                      IN:
           ---                                      ---
             STORAGE =    29975337.3839               STORAGE =       17556.2880
       CONSTANT HEAD =    10108184.4871         CONSTANT HEAD =       30005.0960
               WELLS =           0.0000                 WELLS =           0.0000
            RECHARGE =    10074000.0000              RECHARGE =       13800.0000
      STREAM LEAKAGE =    14032161.9442        STREAM LEAKAGE =       37620.9323

            TOTAL IN =    64189683.8152              TOTAL IN =       98982.3163

          OUT:                                     OUT:
          ----                                     ----
             STORAGE =         438.8620               STORAGE =           0.0000
       CONSTANT HEAD =           0.0000         CONSTANT HEAD =           0.0000
               WELLS =    21941584.6706                 WELLS =       48012.2203
            RECHARGE =           0.0000              RECHARGE =           0.0000
      STREAM LEAKAGE =    42247662.4383        STREAM LEAKAGE =       50970.0988

           TOTAL OUT =    64189685.9708             TOTAL OUT =       98982.3191

            IN - OUT =          -2.1556              IN - OUT =      -2.7778E-03

 PERCENT DISCREPANCY =          -0.00     PERCENT DISCREPANCY =          -0.00






         TIME SUMMARY AT END OF TIME STEP    1 IN STRESS PERIOD    5
                    SECONDS     MINUTES      HOURS       DAYS        YEARS
                    -----------------------------------------------------------
   TIME STEP LENGTH 7.94880E+06 1.32480E+05  2208.0      92.000     0.25188    
 STRESS PERIOD TIME 7.94880E+06 1.32480E+05  2208.0      92.000     0.25188    
         TOTAL TIME 3.94848E+07 6.58080E+05  10968.      457.00      1.2512    
1
1
                            STRESS PERIOD NO.    6, LENGTH =   91.00000    
                            -----------------------------------------------

                              NUMBER OF TIME STEPS =     1

                               MULTIPLIER FOR DELT =     1.500

                            INITIAL TIME STEP SIZE =   91.00000    

 WELL NO.  LAYER   ROW   COL   STRESS RATE         
 --------------------------------------------------
      1      1     17     29     -0.1404E+05
      2      1     18     28     -0.1091E+05
      3      1     12     29      -8101.    
      4      1     19     29     -0.1496E+05

      4 WELLS

                 RECHARGE =  2.000000E-03

 REUSING STREAM SEGMENT DATA FROM LAST STRESS PERIOD
 
 SOLVING FOR HEAD 


     7 CALLS TO PCG ROUTINE FOR TIME STEP   1 IN STRESS PERIOD    6
    26 TOTAL ITERATIONS

 OUTPUT CONTROL FOR STRESS PERIOD    6   TIME STEP    1
    SAVE BUDGET
    SAVE HEAD FOR ALL LAYERS
    PRINT HEAD FOR ALL LAYERS
 UBDSV2 SAVING "STREAMFLOW OUT  " ON UNIT  50 AT TIME STEP  1, STRESS PERIOD   6



 STREAM LISTING     PERIOD      6   STEP        1

 LAYER ROW COL. STREAM  RCH.  FLOW INTO     FLOW TO   FLOW OUT OF   OVRLND.     DIRECT     STREAM       STREAM     STREAM     STREAM   STREAMBED  STREAMBED
                SEG.NO.  NO.  STRM. RCH.    AQUIFER    STRM. RCH.    RUNOFF     PRECIP       ET          HEAD       DEPTH      WIDTH   CONDCTNC.   GRADIENT

   1   13    1     1     1    1.0000E+05 -2.4833E+03   1.0248E+05  0.000E+00  0.000E+00  0.000E+00  4.84071E+01  1.457E-01  2.000E+01  2.000E+04 -1.242E-01
   1   13    2     1     2    1.0248E+05 -3.5358E+03   1.0602E+05  0.000E+00  0.000E+00  0.000E+00  4.79324E+01  1.483E-01  2.000E+01  2.000E+04 -1.768E-01
   1   14    3     1     3    1.0602E+05 -6.6754E+02   1.0669E+05  0.000E+00  0.000E+00  0.000E+00  4.74569E+01  1.501E-01  2.000E+01  2.000E+04 -3.338E-02
   1   15    4     1     4    1.0669E+05 -6.4523E+02   1.0733E+05  0.000E+00  0.000E+00  0.000E+00  4.69802E+01  1.507E-01  2.000E+01  2.000E+04 -3.226E-02
   1   16    5     1     5    1.0733E+05 -2.2430E+03   1.0957E+05  0.000E+00  0.000E+00  0.000E+00  4.65041E+01  1.519E-01  2.000E+01  2.000E+04 -1.122E-01
   1   16    6     1     6    1.0957E+05 -1.4097E+03   1.1098E+05  0.000E+00  0.000E+00  0.000E+00  4.60284E+01  1.534E-01  2.000E+01  2.000E+04 -7.049E-02
   1   16    7     1     7    1.1098E+05 -1.3810E+03   1.1237E+05  0.000E+00  0.000E+00  0.000E+00  4.55523E+01  1.546E-01  2.000E+01  2.000E+04 -6.905E-02
   1   16    8     1     8    1.1237E+05 -1.3744E+03   1.1374E+05  0.000E+00  0.000E+00  0.000E+00  4.50762E+01  1.557E-01  2.000E+01  2.000E+04 -6.872E-02
   1   16    9     1     9    1.1374E+05 -1.3644E+03   1.1510E+05  0.000E+00  0.000E+00  0.000E+00  4.46000E+01  1.568E-01  2.000E+01  2.000E+04 -6.822E-02
   1   16   10     1    10    1.1510E+05 -1.3494E+03   1.1645E+05  0.000E+00  0.000E+00  0.000E+00  4.41239E+01  1.579E-01  2.000E+01  2.000E+04 -6.747E-02
   1   16   11     1    11    1.1645E+05 -1.3525E+03   1.1781E+05  0.000E+00  0.000E+00  0.000E+00  4.36477E+01  1.590E-01  2.000E+01  2.000E+04 -6.762E-02
   1   16   12     1    12    1.1781E+05 -2.3180E+03   1.2012E+05  0.000E+00  0.000E+00  0.000E+00  4.31719E+01  1.605E-01  2.000E+01  2.000E+04 -1.159E-01
   1   15   13     1    13    1.2012E+05 -2.3077E+03   1.2243E+05  0.000E+00  0.000E+00  0.000E+00  4.26965E+01  1.624E-01  2.000E+01  2.000E+04 -1.154E-01
   1   14   14     1    14    1.2243E+05 -2.6347E+03   1.2507E+05  0.000E+00  0.000E+00  0.000E+00  4.22212E+01  1.644E-01  2.000E+01  2.000E+04 -1.317E-01
   1   13   15     1    15    1.2507E+05 -2.9749E+03   1.2804E+05  0.000E+00  0.000E+00  0.000E+00  4.17462E+01  1.666E-01  2.000E+01  2.000E+04 -1.487E-01
   1   12   16     1    16    1.2804E+05 -3.6828E+03   1.3172E+05  0.000E+00  0.000E+00  0.000E+00  4.12715E+01  1.692E-01  2.000E+01  2.000E+04 -1.841E-01
   1   12   17     1    17    1.3172E+05 -2.4267E+03   1.3415E+05  0.000E+00  0.000E+00  0.000E+00  4.07966E+01  1.716E-01  2.000E+01  2.000E+04 -1.213E-01
   1   12   18     1    18    1.3415E+05 -2.3168E+03   1.3647E+05  0.000E+00  0.000E+00  0.000E+00  4.03212E+01  1.734E-01  2.000E+01  2.000E+04 -1.158E-01
   1   12   19     1    19    1.3647E+05 -2.9827E+03   1.3945E+05  0.000E+00  0.000E+00  0.000E+00  3.98459E+01  1.755E-01  2.000E+01  2.000E+04 -1.491E-01
   1   13   20     1    20    1.3945E+05 -2.2858E+03   1.4174E+05  0.000E+00  0.000E+00  0.000E+00  3.93706E+01  1.775E-01  2.000E+01  2.000E+04 -1.143E-01
   1   14   21     1    21    1.4174E+05 -1.9965E+03   1.4373E+05  0.000E+00  0.000E+00  0.000E+00  3.88950E+01  1.791E-01  2.000E+01  2.000E+04 -9.983E-02
   1   14   22     1    22    1.4373E+05  4.8511E+03   1.3888E+05  0.000E+00  0.000E+00  0.000E+00  3.84166E+01  1.780E-01  2.000E+01  2.000E+04  2.426E-01
   1    9   30     2     1    5.0000E+04  3.8677E+02   4.9613E+04  0.000E+00  0.000E+00  0.000E+00  4.02406E+01  1.156E-01  2.000E+01  2.000E+04  1.934E-02
   1    9   29     2     2    4.9613E+04  2.8636E+01   4.9585E+04  0.000E+00  0.000E+00  0.000E+00  3.99903E+01  1.153E-01  2.000E+01  2.000E+04  1.432E-03
   1    9   28     2     3    4.9585E+04 -5.6571E+02   5.0150E+04  0.000E+00  0.000E+00  0.000E+00  3.97407E+01  1.157E-01  2.000E+01  2.000E+04 -2.829E-02
   1    9   27     2     4    5.0150E+04 -2.4249E+03   5.2575E+04  0.000E+00  0.000E+00  0.000E+00  3.94928E+01  1.178E-01  2.000E+01  2.000E+04 -1.212E-01
   1   10   26     2     5    5.2575E+04 -1.1009E+03   5.3676E+04  0.000E+00  0.000E+00  0.000E+00  3.92452E+01  1.202E-01  2.000E+01  2.000E+04 -5.504E-02
   1   11   25     2     6    5.3676E+04 -1.1300E+03   5.4806E+04  0.000E+00  0.000E+00  0.000E+00  3.89967E+01  1.217E-01  2.000E+01  2.000E+04 -5.650E-02
   1   12   24     2     7    5.4806E+04 -1.6773E+03   5.6483E+04  0.000E+00  0.000E+00  0.000E+00  3.87485E+01  1.235E-01  2.000E+01  2.000E+04 -8.387E-02
   1   13   23     2     8    5.6483E+04 -3.7681E+02   5.6860E+04  0.000E+00  0.000E+00  0.000E+00  3.84999E+01  1.249E-01  2.000E+01  2.000E+04 -1.884E-02
   1   14   22     2     9    5.6860E+04  1.5016E+03   5.5359E+04  0.000E+00  0.000E+00  0.000E+00  3.82492E+01  1.242E-01  2.000E+01  2.000E+04  7.508E-02
   1   14   22     3     1    1.9424E+05 -8.7470E+03   2.0299E+05  0.000E+00  0.000E+00  0.000E+00  3.77367E+01  1.812E-01  2.000E+01  2.000E+04 -4.374E-01
   1   15   23     3     2    2.0299E+05 -6.2779E+02   2.0362E+05  0.000E+00  0.000E+00  0.000E+00  3.68504E+01  1.837E-01  2.000E+01  2.000E+04 -3.139E-02
   1   15   24     3     3    2.0362E+05 -3.3938E+02   2.0395E+05  0.000E+00  0.000E+00  0.000E+00  3.59618E+01  1.840E-01  2.000E+01  2.000E+04 -1.697E-02
   1   15   25     3     4    2.0395E+05 -2.9889E+02   2.0425E+05  0.000E+00  0.000E+00  0.000E+00  3.50731E+01  1.842E-01  2.000E+01  2.000E+04 -1.494E-02
   1   15   26     3     5    2.0425E+05 -1.6324E+02   2.0442E+05  0.000E+00  0.000E+00  0.000E+00  3.41843E+01  1.843E-01  2.000E+01  2.000E+04 -8.162E-03
   1   16   27     3     6    2.0442E+05  1.8812E+02   2.0423E+05  0.000E+00  0.000E+00  0.000E+00  3.32954E+01  1.843E-01  2.000E+01  2.000E+04  9.406E-03
   1   17   28     3     7    2.0423E+05  1.0527E+04   1.9370E+05  0.000E+00  0.000E+00  0.000E+00  3.24036E+01  1.814E-01  2.000E+01  2.000E+04  5.263E-01
   1   18   29     3     8    1.9370E+05  1.4123E+04   1.7958E+05  0.000E+00  0.000E+00  0.000E+00  3.15079E+01  1.745E-01  2.000E+01  2.000E+04  7.062E-01
   1   18   30     3     9    1.7958E+05  3.6423E+03   1.7594E+05  0.000E+00  0.000E+00  0.000E+00  3.06140E+01  1.695E-01  2.000E+01  2.000E+04  1.821E-01



1
              HEAD IN LAYER   1 AT END OF TIME STEP   1 IN STRESS PERIOD    6
  ---------------------------------------------------------------------------

          1      2      3      4      5      6      7      8      9     10
         11     12     13     14     15     16     17     18     19     20
         21     22     23     24     25     26     27     28     29     30
 .........................................................................
   1  ****** ****** ****** ****** ****** ****** ****** ****** ****** ******
      ****** ****** ****** ****** ****** ****** ****** ****** ****** ******
      ****** ****** ****** ****** ****** ****** ****** ****** ****** ******
   2  ****** ****** ****** ****** ****** ****** ****** ****** ****** ******
      ****** ****** ****** ****** ****** ****** ****** ****** ****** ******
      ****** ****** ****** ****** ****** ****** ****** ****** ****** ******
   3  ****** ****** ****** ****** ****** ****** ****** ****** ****** ******
      ****** ****** ****** ****** ****** ****** ****** ****** ****** ******
      ****** ****** ****** ****** ****** ****** ****** ****** ****** ******
   4  ****** ****** ****** ****** ****** ****** ****** ****** ****** ******
      ****** ****** ****** ****** ****** ****** ****** ****** ****** ******
      ****** ****** ****** ****** ****** ****** ****** ****** ****** ******
   5  ****** ****** ****** ****** ****** ****** ****** ****** ****** ******
      ****** ****** ****** ****** ****** ****** ****** ****** ****** ******
      ****** ****** ****** ****** ****** ****** ****** ****** ****** ******
   6  ****** ****** ****** ****** ****** ****** ****** ****** ****** ******
      ****** ****** ****** ****** ****** ****** ****** ****** ****** ******
      ****** ****** ****** ****** ****** ****** ****** ****** ****** ******
   7  ****** ****** ****** ****** ****** ****** ****** ****** ****** ******
      ****** ****** ****** ****** ****** ****** ****** ****** ****** ******
      ****** ****** ****** ****** ****** ****** ****** ****** ****** ******
   8  ****** ****** ****** ****** ****** ****** ****** ****** ****** ******
      ****** ****** ****** ****** ****** ****** ****** ****** ****** ******
      ****** ****** ****** ****** ****** ****** ****** ****** ****** ******
   9  ****** ****** ****** ****** ****** ****** ****** ****** ****** ******
      ****** ****** ****** ****** ****** ****** ****** ****** ****** ******
      ****** ****** ****** ****** ****** ****** ****** ****** ****** ******
  10  ****** ****** ****** ****** ****** ****** ****** ****** ****** ******
      ****** ****** ****** ****** ****** ****** ****** ****** ****** ******
      ****** ****** ****** ****** ****** ****** ****** ****** ****** ******
  11  ****** ****** ****** ****** ****** ****** ****** ****** ****** ******
      ****** ****** ****** ****** ****** ****** ****** ****** ****** ******
      ****** ****** ****** ****** ****** ****** ****** ****** ****** ******
  12  ****** ****** ****** ****** ****** ****** ****** ****** ****** ******
      ****** ****** ****** ****** ****** ****** ****** ****** ****** ******
      ****** ****** ****** ****** ****** ****** ****** ****** ****** ******
  13  ****** ****** ****** ****** ****** ****** ****** ****** ****** ******
      ****** ****** ****** ****** ****** ****** ****** ****** ****** ******
      ****** ****** ****** ****** ****** ****** ****** ****** ****** ******
  14  ****** ****** ****** ****** ****** ****** ****** ****** ****** ******
      ****** ****** ****** ****** ****** ****** ****** ****** ****** ******
      ****** ****** ****** ****** ****** ****** ****** ****** ****** ******
  15  ****** ****** ****** ****** ****** ****** ****** ****** ****** ******
      ****** ****** ****** ****** ****** ****** ****** ****** ****** ******
      ****** ****** ****** ****** ****** ****** ****** ****** ****** ******
  16  ****** ****** ****** ****** ****** ****** ****** ****** ****** ******
      ****** ****** ****** ****** ****** ****** ****** ****** ****** ******
      ****** ****** ****** ****** ****** ****** ****** ****** ****** ******
  17  ****** ****** ****** ****** ****** ****** ****** ****** ****** ******
      ****** ****** ****** ****** ****** ****** ****** ****** ****** ******
      ****** ****** ****** ****** ****** ****** ****** ****** ****** ******
  18  ****** ****** ****** ****** ****** ****** ****** ****** ****** ******
      ****** ****** ****** ****** ****** ****** ****** ****** ****** ******
      ****** ****** ****** ****** ****** ****** ****** ****** ****** ******
  19  ****** ****** ****** ****** ****** ****** ****** ****** ****** ******
      ****** ****** ****** ****** ****** ****** ****** ****** ****** ******
      ****** ****** ****** ****** ****** ****** ****** ****** ****** ******
  20  ****** ****** ****** ****** ****** ****** ****** ****** ****** ******
      ****** ****** ****** ****** ****** ****** ****** ****** ****** ******
      ****** ****** ****** ****** ****** ****** ****** ****** ****** ******
  21  ****** ****** ****** ****** ****** ****** ****** ****** ****** ******
      ****** ****** ****** ****** ****** ****** ****** ****** ****** ******
      ****** ****** ****** ****** ****** ****** ****** ****** ****** ******
  22  ****** ****** ****** ****** ****** ****** ****** ****** ****** ******
      ****** ****** ****** ****** ****** ****** ****** ****** ****** ******
      ****** ****** ****** ****** ****** ****** ****** ****** ****** ******
  23  ****** ****** ****** ****** ****** ****** ****** ****** ****** ******
      ****** ****** ****** ****** ****** ****** ****** ****** ****** ******
      ****** ****** ****** ****** ****** ****** ****** ****** ****** ******
  24  ****** ****** ****** ****** ****** ****** ****** ****** ****** ******
      ****** ****** ****** ****** ****** ****** ****** ****** ****** ******
      ****** ****** ****** ****** ****** ****** ****** ****** ****** ******
  25  ****** ****** ****** ****** ****** ****** ****** ****** ****** ******
      ****** ****** ****** ****** ****** ****** ****** ****** ****** ******
      ****** ****** ****** ****** ****** ****** ****** ****** ****** ******

 HEAD WILL BE SAVED ON UNIT   51 AT END OF TIME STEP    1, STRESS PERIOD    6
1
  VOLUMETRIC BUDGET FOR ENTIRE MODEL AT END OF TIME STEP    1, STRESS PERIOD   6
  ------------------------------------------------------------------------------

     CUMULATIVE VOLUMES      L**3       RATES FOR THIS TIME STEP      L**3/T
     ------------------                 ------------------------

           IN:                                      IN:
           ---                                      ---
             STORAGE =    29975337.3839               STORAGE =           0.0000
       CONSTANT HEAD =    12659191.3221         CONSTANT HEAD =       28033.0421
               WELLS =           0.0000                 WELLS =           0.0000
            RECHARGE =    15097200.0000              RECHARGE =       55200.0000
      STREAM LEAKAGE =    17239782.0367        STREAM LEAKAGE =       35248.5724

            TOTAL IN =    74971510.7427              TOTAL IN =      118481.6146

          OUT:                                     OUT:
          ----                                     ----
             STORAGE =      845321.1615               STORAGE =        9284.4209
       CONSTANT HEAD =           0.0000         CONSTANT HEAD =           0.0000
               WELLS =    26310696.7166                 WELLS =       48012.2203
            RECHARGE =           0.0000              RECHARGE =           0.0000
      STREAM LEAKAGE =    47815494.7730        STREAM LEAKAGE =       61184.9707

           TOTAL OUT =    74971512.6511             TOTAL OUT =      118481.6119

            IN - OUT =          -1.9084              IN - OUT =       2.7167E-03

 PERCENT DISCREPANCY =          -0.00     PERCENT DISCREPANCY =           0.00






         TIME SUMMARY AT END OF TIME STEP    1 IN STRESS PERIOD    6
                    SECONDS     MINUTES      HOURS       DAYS        YEARS
                    -----------------------------------------------------------
   TIME STEP LENGTH 7.86240E+06 1.31040E+05  2184.0      91.000     0.24914    
 STRESS PERIOD TIME 7.86240E+06 1.31040E+05  2184.0      91.000     0.24914    
         TOTAL TIME 4.73472E+07 7.89120E+05  13152.      548.00      1.5003    
1
1
                            STRESS PERIOD NO.    7, LENGTH =   91.00000    
                            -----------------------------------------------

                              NUMBER OF TIME STEPS =     1

                               MULTIPLIER FOR DELT =     1.500

                            INITIAL TIME STEP SIZE =   91.00000    

 WELL NO.  LAYER   ROW   COL   STRESS RATE         
 --------------------------------------------------
      1      1     17     29     -0.1404E+05
      2      1     18     28     -0.1091E+05
      3      1     12     29      -8101.    
      4      1     19     29     -0.1496E+05

      4 WELLS

                 RECHARGE =   0.00000    

 REUSING STREAM SEGMENT DATA FROM LAST STRESS PERIOD
 
 SOLVING FOR HEAD 


     7 CALLS TO PCG ROUTINE FOR TIME STEP   1 IN STRESS PERIOD    7
    26 TOTAL ITERATIONS

 OUTPUT CONTROL FOR STRESS PERIOD    7   TIME STEP    1
    SAVE BUDGET
    SAVE HEAD FOR ALL LAYERS
    PRINT HEAD FOR ALL LAYERS
 UBDSV2 SAVING "STREAMFLOW OUT  " ON UNIT  50 AT TIME STEP  1, STRESS PERIOD   7



 STREAM LISTING     PERIOD      7   STEP        1

 LAYER ROW COL. STREAM  RCH.  FLOW INTO     FLOW TO   FLOW OUT OF   OVRLND.     DIRECT     STREAM       STREAM     STREAM     STREAM   STREAMBED  STREAMBED
                SEG.NO.  NO.  STRM. RCH.    AQUIFER    STRM. RCH.    RUNOFF     PRECIP       ET          HEAD       DEPTH      WIDTH   CONDCTNC.   GRADIENT

   1   13    1     1     1    1.0000E+05 -1.8263E+03   1.0183E+05  0.000E+00  0.000E+00  0.000E+00  4.84068E+01  1.454E-01  2.000E+01  2.000E+04 -9.132E-02
   1   13    2     1     2    1.0183E+05 -2.8010E+03   1.0463E+05  0.000E+00  0.000E+00  0.000E+00  4.79315E+01  1.474E-01  2.000E+01  2.000E+04 -1.400E-01
   1   14    3     1     3    1.0463E+05 -4.1703E+02   1.0504E+05  0.000E+00  0.000E+00  0.000E+00  4.74556E+01  1.488E-01  2.000E+01  2.000E+04 -2.085E-02
   1   15    4     1     4    1.0504E+05 -3.8369E+02   1.0543E+05  0.000E+00  0.000E+00  0.000E+00  4.69787E+01  1.491E-01  2.000E+01  2.000E+04 -1.918E-02
   1   16    5     1     5    1.0543E+05 -1.4914E+03   1.0692E+05  0.000E+00  0.000E+00  0.000E+00  4.65022E+01  1.499E-01  2.000E+01  2.000E+04 -7.457E-02
   1   16    6     1     6    1.0692E+05 -9.5667E+02   1.0788E+05  0.000E+00  0.000E+00  0.000E+00  4.60260E+01  1.510E-01  2.000E+01  2.000E+04 -4.783E-02
   1   16    7     1     7    1.0788E+05 -9.4641E+02   1.0882E+05  0.000E+00  0.000E+00  0.000E+00  4.55495E+01  1.518E-01  2.000E+01  2.000E+04 -4.732E-02
   1   16    8     1     8    1.0882E+05 -9.4567E+02   1.0977E+05  0.000E+00  0.000E+00  0.000E+00  4.50730E+01  1.526E-01  2.000E+01  2.000E+04 -4.728E-02
   1   16    9     1     9    1.0977E+05 -9.3870E+02   1.1071E+05  0.000E+00  0.000E+00  0.000E+00  4.45965E+01  1.534E-01  2.000E+01  2.000E+04 -4.693E-02
   1   16   10     1    10    1.1071E+05 -9.2584E+02   1.1163E+05  0.000E+00  0.000E+00  0.000E+00  4.41200E+01  1.541E-01  2.000E+01  2.000E+04 -4.629E-02
   1   16   11     1    11    1.1163E+05 -9.2734E+02   1.1256E+05  0.000E+00  0.000E+00  0.000E+00  4.36435E+01  1.549E-01  2.000E+01  2.000E+04 -4.637E-02
   1   16   12     1    12    1.1256E+05 -1.6037E+03   1.1416E+05  0.000E+00  0.000E+00  0.000E+00  4.31673E+01  1.560E-01  2.000E+01  2.000E+04 -8.019E-02
   1   15   13     1    13    1.1416E+05 -1.5440E+03   1.1571E+05  0.000E+00  0.000E+00  0.000E+00  4.26913E+01  1.573E-01  2.000E+01  2.000E+04 -7.720E-02
   1   14   14     1    14    1.1571E+05 -1.8452E+03   1.1755E+05  0.000E+00  0.000E+00  0.000E+00  4.22155E+01  1.586E-01  2.000E+01  2.000E+04 -9.226E-02
   1   13   15     1    15    1.1755E+05 -2.1852E+03   1.1974E+05  0.000E+00  0.000E+00  0.000E+00  4.17398E+01  1.603E-01  2.000E+01  2.000E+04 -1.093E-01
   1   12   16     1    16    1.1974E+05 -2.9030E+03   1.2264E+05  0.000E+00  0.000E+00  0.000E+00  4.12646E+01  1.623E-01  2.000E+01  2.000E+04 -1.451E-01
   1   12   17     1    17    1.2264E+05 -1.8570E+03   1.2450E+05  0.000E+00  0.000E+00  0.000E+00  4.07892E+01  1.642E-01  2.000E+01  2.000E+04 -9.285E-02
   1   12   18     1    18    1.2450E+05 -1.7602E+03   1.2626E+05  0.000E+00  0.000E+00  0.000E+00  4.03134E+01  1.657E-01  2.000E+01  2.000E+04 -8.801E-02
   1   12   19     1    19    1.2626E+05 -2.3031E+03   1.2856E+05  0.000E+00  0.000E+00  0.000E+00  3.98377E+01  1.673E-01  2.000E+01  2.000E+04 -1.152E-01
   1   13   20     1    20    1.2856E+05 -1.6191E+03   1.3018E+05  0.000E+00  0.000E+00  0.000E+00  3.93620E+01  1.688E-01  2.000E+01  2.000E+04 -8.096E-02
   1   14   21     1    21    1.3018E+05 -1.3352E+03   1.3152E+05  0.000E+00  0.000E+00  0.000E+00  3.88859E+01  1.700E-01  2.000E+01  2.000E+04 -6.676E-02
   1   14   22     1    22    1.3152E+05  5.0125E+03   1.2650E+05  0.000E+00  0.000E+00  0.000E+00  3.84072E+01  1.685E-01  2.000E+01  2.000E+04  2.506E-01
   1    9   30     2     1    5.0000E+04  8.9818E+02   4.9102E+04  0.000E+00  0.000E+00  0.000E+00  4.02402E+01  1.152E-01  2.000E+01  2.000E+04  4.491E-02
   1    9   29     2     2    4.9102E+04  5.3810E+02   4.8564E+04  0.000E+00  0.000E+00  0.000E+00  3.99892E+01  1.142E-01  2.000E+01  2.000E+04  2.691E-02
   1    9   28     2     3    4.8564E+04 -5.5322E+01   4.8619E+04  0.000E+00  0.000E+00  0.000E+00  3.97389E+01  1.139E-01  2.000E+01  2.000E+04 -2.766E-03
   1    9   27     2     4    4.8619E+04 -1.7334E+03   5.0352E+04  0.000E+00  0.000E+00  0.000E+00  3.94901E+01  1.151E-01  2.000E+01  2.000E+04 -8.667E-02
   1   10   26     2     5    5.0352E+04 -4.0626E+02   5.0759E+04  0.000E+00  0.000E+00  0.000E+00  3.92416E+01  1.166E-01  2.000E+01  2.000E+04 -2.031E-02
   1   11   25     2     6    5.0759E+04 -4.6371E+02   5.1222E+04  0.000E+00  0.000E+00  0.000E+00  3.89922E+01  1.172E-01  2.000E+01  2.000E+04 -2.319E-02
   1   12   24     2     7    5.1222E+04 -1.0701E+03   5.2292E+04  0.000E+00  0.000E+00  0.000E+00  3.87433E+01  1.183E-01  2.000E+01  2.000E+04 -5.351E-02
   1   13   23     2     8    5.2292E+04 -1.8561E+02   5.2478E+04  0.000E+00  0.000E+00  0.000E+00  3.84942E+01  1.192E-01  2.000E+01  2.000E+04 -9.281E-03
   1   14   22     2     9    5.2478E+04  1.7309E+03   5.0747E+04  0.000E+00  0.000E+00  0.000E+00  3.82431E+01  1.181E-01  2.000E+01  2.000E+04  8.655E-02
   1   14   22     3     1    1.7725E+05 -8.5865E+03   1.8584E+05  0.000E+00  0.000E+00  0.000E+00  3.77272E+01  1.717E-01  2.000E+01  2.000E+04 -4.293E-01
   1   15   23     3     2    1.8584E+05 -4.2104E+02   1.8626E+05  0.000E+00  0.000E+00  0.000E+00  3.68409E+01  1.742E-01  2.000E+01  2.000E+04 -2.105E-02
   1   15   24     3     3    1.8626E+05 -1.6539E+02   1.8642E+05  0.000E+00  0.000E+00  0.000E+00  3.59522E+01  1.744E-01  2.000E+01  2.000E+04 -8.269E-03
   1   15   25     3     4    1.8642E+05 -1.2177E+02   1.8654E+05  0.000E+00  0.000E+00  0.000E+00  3.50633E+01  1.745E-01  2.000E+01  2.000E+04 -6.088E-03
   1   15   26     3     5    1.8654E+05  3.8323E+01   1.8651E+05  0.000E+00  0.000E+00  0.000E+00  3.41745E+01  1.745E-01  2.000E+01  2.000E+04  1.916E-03
   1   16   27     3     6    1.8651E+05  4.2107E+02   1.8609E+05  0.000E+00  0.000E+00  0.000E+00  3.32855E+01  1.744E-01  2.000E+01  2.000E+04  2.105E-02
   1   17   28     3     7    1.8609E+05  1.1171E+04   1.7491E+05  0.000E+00  0.000E+00  0.000E+00  3.23933E+01  1.711E-01  2.000E+01  2.000E+04  5.585E-01
   1   18   29     3     8    1.7491E+05  1.4814E+04   1.6010E+05  0.000E+00  0.000E+00  0.000E+00  3.14969E+01  1.636E-01  2.000E+01  2.000E+04  7.407E-01
   1   18   30     3     9    1.6010E+05  4.1731E+03   1.5593E+05  0.000E+00  0.000E+00  0.000E+00  3.06024E+01  1.579E-01  2.000E+01  2.000E+04  2.087E-01



1
              HEAD IN LAYER   1 AT END OF TIME STEP   1 IN STRESS PERIOD    7
  ---------------------------------------------------------------------------

          1      2      3      4      5      6      7      8      9     10
         11     12     13     14     15     16     17     18     19     20
         21     22     23     24     25     26     27     28     29     30
 .........................................................................
   1  ****** ****** ****** ****** ****** ****** ****** ****** ****** ******
      ****** ****** ****** ****** ****** ****** ****** ****** ****** ******
      ****** ****** ****** ****** ****** ****** ****** ****** ****** ******
   2  ****** ****** ****** ****** ****** ****** ****** ****** ****** ******
      ****** ****** ****** ****** ****** ****** ****** ****** ****** ******
      ****** ****** ****** ****** ****** ****** ****** ****** ****** ******
   3  ****** ****** ****** ****** ****** ****** ****** ****** ****** ******
      ****** ****** ****** ****** ****** ****** ****** ****** ****** ******
      ****** ****** ****** ****** ****** ****** ****** ****** ****** ******
   4  ****** ****** ****** ****** ****** ****** ****** ****** ****** ******
      ****** ****** ****** ****** ****** ****** ****** ****** ****** ******
      ****** ****** ****** ****** ****** ****** ****** ****** ****** ******
   5  ****** ****** ****** ****** ****** ****** ****** ****** ****** ******
      ****** ****** ****** ****** ****** ****** ****** ****** ****** ******
      ****** ****** ****** ****** ****** ****** ****** ****** ****** ******
   6  ****** ****** ****** ****** ****** ****** ****** ****** ****** ******
      ****** ****** ****** ****** ****** ****** ****** ****** ****** ******
      ****** ****** ****** ****** ****** ****** ****** ****** ****** ******
   7  ****** ****** ****** ****** ****** ****** ****** ****** ****** ******
      ****** ****** ****** ****** ****** ****** ****** ****** ****** ******
      ****** ****** ****** ****** ****** ****** ****** ****** ****** ******
   8  ****** ****** ****** ****** ****** ****** ****** ****** ****** ******
      ****** ****** ****** ****** ****** ****** ****** ****** ****** ******
      ****** ****** ****** ****** ****** ****** ****** ****** ****** ******
   9  ****** ****** ****** ****** ****** ****** ****** ****** ****** ******
      ****** ****** ****** ****** ****** ****** ****** ****** ****** ******
      ****** ****** ****** ****** ****** ****** ****** ****** ****** ******
  10  ****** ****** ****** ****** ****** ****** ****** ****** ****** ******
      ****** ****** ****** ****** ****** ****** ****** ****** ****** ******
      ****** ****** ****** ****** ****** ****** ****** ****** ****** ******
  11  ****** ****** ****** ****** ****** ****** ****** ****** ****** ******
      ****** ****** ****** ****** ****** ****** ****** ****** ****** ******
      ****** ****** ****** ****** ****** ****** ****** ****** ****** ******
  12  ****** ****** ****** ****** ****** ****** ****** ****** ****** ******
      ****** ****** ****** ****** ****** ****** ****** ****** ****** ******
      ****** ****** ****** ****** ****** ****** ****** ****** ****** ******
  13  ****** ****** ****** ****** ****** ****** ****** ****** ****** ******
      ****** ****** ****** ****** ****** ****** ****** ****** ****** ******
      ****** ****** ****** ****** ****** ****** ****** ****** ****** ******
  14  ****** ****** ****** ****** ****** ****** ****** ****** ****** ******
      ****** ****** ****** ****** ****** ****** ****** ****** ****** ******
      ****** ****** ****** ****** ****** ****** ****** ****** ****** ******
  15  ****** ****** ****** ****** ****** ****** ****** ****** ****** ******
      ****** ****** ****** ****** ****** ****** ****** ****** ****** ******
      ****** ****** ****** ****** ****** ****** ****** ****** ****** ******
  16  ****** ****** ****** ****** ****** ****** ****** ****** ****** ******
      ****** ****** ****** ****** ****** ****** ****** ****** ****** ******
      ****** ****** ****** ****** ****** ****** ****** ****** ****** ******
  17  ****** ****** ****** ****** ****** ****** ****** ****** ****** ******
      ****** ****** ****** ****** ****** ****** ****** ****** ****** ******
      ****** ****** ****** ****** ****** ****** ****** ****** ****** ******
  18  ****** ****** ****** ****** ****** ****** ****** ****** ****** ******
      ****** ****** ****** ****** ****** ****** ****** ****** ****** ******
      ****** ****** ****** ****** ****** ****** ****** ****** ****** ******
  19  ****** ****** ****** ****** ****** ****** ****** ****** ****** ******
      ****** ****** ****** ****** ****** ****** ****** ****** ****** ******
      ****** ****** ****** ****** ****** ****** ****** ****** ****** ******
  20  ****** ****** ****** ****** ****** ****** ****** ****** ****** ******
      ****** ****** ****** ****** ****** ****** ****** ****** ****** ******
      ****** ****** ****** ****** ****** ****** ****** ****** ****** ******
  21  ****** ****** ****** ****** ****** ****** ****** ****** ****** ******
      ****** ****** ****** ****** ****** ****** ****** ****** ****** ******
      ****** ****** ****** ****** ****** ****** ****** ****** ****** ******
  22  ****** ****** ****** ****** ****** ****** ****** ****** ****** ******
      ****** ****** ****** ****** ****** ****** ****** ****** ****** ******
      ****** ****** ****** ****** ****** ****** ****** ****** ****** ******
  23  ****** ****** ****** ****** ****** ****** ****** ****** ****** ******
      ****** ****** ****** ****** ****** ****** ****** ****** ****** ******
      ****** ****** ****** ****** ****** ****** ****** ****** ****** ******
  24  ****** ****** ****** ****** ****** ****** ****** ****** ****** ******
      ****** ****** ****** ****** ****** ****** ****** ****** ****** ******
      ****** ****** ****** ****** ****** ****** ****** ****** ****** ******
  25  ****** ****** ****** ****** ****** ****** ****** ****** ****** ******
      ****** ****** ****** ****** ****** ****** ****** ****** ****** ******
      ****** ****** ****** ****** ****** ****** ****** ****** ****** ******

 HEAD WILL BE SAVED ON UNIT   51 AT END OF TIME STEP    1, STRESS PERIOD    7
1
  VOLUMETRIC BUDGET FOR ENTIRE MODEL AT END OF TIME STEP    1, STRESS PERIOD   7
  ------------------------------------------------------------------------------

     CUMULATIVE VOLUMES      L**3       RATES FOR THIS TIME STEP      L**3/T
     ------------------                 ------------------------

           IN:                                      IN:
           ---                                      ---
             STORAGE =    31979549.6065               STORAGE =       22024.3101
       CONSTANT HEAD =    15563561.8241         CONSTANT HEAD =       31916.1594
               WELLS =           0.0000                 WELLS =           0.0000
            RECHARGE =    15097200.0000              RECHARGE =           0.0000
      STREAM LEAKAGE =    20770257.8872        STREAM LEAKAGE =       38796.4379

            TOTAL IN =    83410569.3178              TOTAL IN =       92736.9074

          OUT:                                     OUT:
          ----                                     ----
             STORAGE =      845321.1615               STORAGE =           0.0000
       CONSTANT HEAD =           0.0000         CONSTANT HEAD =           0.0000
               WELLS =    30679808.7626                 WELLS =       48012.2203
            RECHARGE =           0.0000              RECHARGE =           0.0000
      STREAM LEAKAGE =    51885441.7590        STREAM LEAKAGE =       44724.6922

           TOTAL OUT =    83410571.6830             TOTAL OUT =       92736.9124

            IN - OUT =          -2.3653              IN - OUT =      -5.0209E-03

 PERCENT DISCREPANCY =          -0.00     PERCENT DISCREPANCY =          -0.00






         TIME SUMMARY AT END OF TIME STEP    1 IN STRESS PERIOD    7
                    SECONDS     MINUTES      HOURS       DAYS        YEARS
                    -----------------------------------------------------------
   TIME STEP LENGTH 7.86240E+06 1.31040E+05  2184.0      91.000     0.24914    
 STRESS PERIOD TIME 7.86240E+06 1.31040E+05  2184.0      91.000     0.24914    
         TOTAL TIME 5.52096E+07 9.20160E+05  15336.      639.00      1.7495    
1
1
                            STRESS PERIOD NO.    8, LENGTH =   91.00000    
                            -----------------------------------------------

                              NUMBER OF TIME STEPS =     1

                               MULTIPLIER FOR DELT =     1.500

                            INITIAL TIME STEP SIZE =   91.00000    

 WELL NO.  LAYER   ROW   COL   STRESS RATE         
 --------------------------------------------------
      1      1     17     29     -0.1404E+05
      2      1     18     28     -0.1091E+05
      3      1     12     29      -8101.    
      4      1     19     29     -0.1496E+05

      4 WELLS

                 RECHARGE =  1.000000E-03

 REUSING STREAM SEGMENT DATA FROM LAST STRESS PERIOD
 
 SOLVING FOR HEAD 


     6 CALLS TO PCG ROUTINE FOR TIME STEP   1 IN STRESS PERIOD    8
    22 TOTAL ITERATIONS

 OUTPUT CONTROL FOR STRESS PERIOD    8   TIME STEP    1
    SAVE BUDGET
    SAVE HEAD FOR ALL LAYERS
    PRINT HEAD FOR ALL LAYERS
 UBDSV2 SAVING "STREAMFLOW OUT  " ON UNIT  50 AT TIME STEP  1, STRESS PERIOD   8



 STREAM LISTING     PERIOD      8   STEP        1

 LAYER ROW COL. STREAM  RCH.  FLOW INTO     FLOW TO   FLOW OUT OF   OVRLND.     DIRECT     STREAM       STREAM     STREAM     STREAM   STREAMBED  STREAMBED
                SEG.NO.  NO.  STRM. RCH.    AQUIFER    STRM. RCH.    RUNOFF     PRECIP       ET          HEAD       DEPTH      WIDTH   CONDCTNC.   GRADIENT

   1   13    1     1     1    1.0000E+05 -1.9067E+03   1.0191E+05  0.000E+00  0.000E+00  0.000E+00  4.84068E+01  1.455E-01  2.000E+01  2.000E+04 -9.534E-02
   1   13    2     1     2    1.0191E+05 -2.8820E+03   1.0479E+05  0.000E+00  0.000E+00  0.000E+00  4.79316E+01  1.475E-01  2.000E+01  2.000E+04 -1.441E-01
   1   14    3     1     3    1.0479E+05 -4.8219E+02   1.0527E+05  0.000E+00  0.000E+00  0.000E+00  4.74558E+01  1.490E-01  2.000E+01  2.000E+04 -2.411E-02
   1   15    4     1     4    1.0527E+05 -4.5328E+02   1.0572E+05  0.000E+00  0.000E+00  0.000E+00  4.69789E+01  1.494E-01  2.000E+01  2.000E+04 -2.266E-02
   1   16    5     1     5    1.0572E+05 -1.6663E+03   1.0739E+05  0.000E+00  0.000E+00  0.000E+00  4.65025E+01  1.503E-01  2.000E+01  2.000E+04 -8.332E-02
   1   16    6     1     6    1.0739E+05 -1.0646E+03   1.0846E+05  0.000E+00  0.000E+00  0.000E+00  4.60264E+01  1.514E-01  2.000E+01  2.000E+04 -5.323E-02
   1   16    7     1     7    1.0846E+05 -1.0494E+03   1.0950E+05  0.000E+00  0.000E+00  0.000E+00  4.55500E+01  1.523E-01  2.000E+01  2.000E+04 -5.247E-02
   1   16    8     1     8    1.0950E+05 -1.0478E+03   1.1055E+05  0.000E+00  0.000E+00  0.000E+00  4.50736E+01  1.532E-01  2.000E+01  2.000E+04 -5.239E-02
   1   16    9     1     9    1.1055E+05 -1.0418E+03   1.1159E+05  0.000E+00  0.000E+00  0.000E+00  4.45972E+01  1.541E-01  2.000E+01  2.000E+04 -5.209E-02
   1   16   10     1    10    1.1159E+05 -1.0313E+03   1.1263E+05  0.000E+00  0.000E+00  0.000E+00  4.41208E+01  1.549E-01  2.000E+01  2.000E+04 -5.157E-02
   1   16   11     1    11    1.1263E+05 -1.0356E+03   1.1366E+05  0.000E+00  0.000E+00  0.000E+00  4.36444E+01  1.558E-01  2.000E+01  2.000E+04 -5.178E-02
   1   16   12     1    12    1.1366E+05 -1.7660E+03   1.1543E+05  0.000E+00  0.000E+00  0.000E+00  4.31683E+01  1.569E-01  2.000E+01  2.000E+04 -8.830E-02
   1   15   13     1    13    1.1543E+05 -1.7146E+03   1.1714E+05  0.000E+00  0.000E+00  0.000E+00  4.26924E+01  1.584E-01  2.000E+01  2.000E+04 -8.573E-02
   1   14   14     1    14    1.1714E+05 -2.0099E+03   1.1915E+05  0.000E+00  0.000E+00  0.000E+00  4.22167E+01  1.599E-01  2.000E+01  2.000E+04 -1.005E-01
   1   13   15     1    15    1.1915E+05 -2.3380E+03   1.2149E+05  0.000E+00  0.000E+00  0.000E+00  4.17412E+01  1.616E-01  2.000E+01  2.000E+04 -1.169E-01
   1   12   16     1    16    1.2149E+05 -3.0196E+03   1.2451E+05  0.000E+00  0.000E+00  0.000E+00  4.12661E+01  1.638E-01  2.000E+01  2.000E+04 -1.510E-01
   1   12   17     1    17    1.2451E+05 -1.9711E+03   1.2648E+05  0.000E+00  0.000E+00  0.000E+00  4.07908E+01  1.658E-01  2.000E+01  2.000E+04 -9.855E-02
   1   12   18     1    18    1.2648E+05 -1.8806E+03   1.2836E+05  0.000E+00  0.000E+00  0.000E+00  4.03150E+01  1.673E-01  2.000E+01  2.000E+04 -9.403E-02
   1   12   19     1    19    1.2836E+05 -2.4549E+03   1.3082E+05  0.000E+00  0.000E+00  0.000E+00  3.98394E+01  1.690E-01  2.000E+01  2.000E+04 -1.227E-01
   1   13   20     1    20    1.3082E+05 -1.7982E+03   1.3261E+05  0.000E+00  0.000E+00  0.000E+00  3.93638E+01  1.706E-01  2.000E+01  2.000E+04 -8.991E-02
   1   14   21     1    21    1.3261E+05 -1.4934E+03   1.3411E+05  0.000E+00  0.000E+00  0.000E+00  3.88878E+01  1.719E-01  2.000E+01  2.000E+04 -7.467E-02
   1   14   22     1    22    1.3411E+05  4.9641E+03   1.2914E+05  0.000E+00  0.000E+00  0.000E+00  3.84092E+01  1.706E-01  2.000E+01  2.000E+04  2.482E-01
   1    9   30     2     1    5.0000E+04  7.3408E+02   4.9266E+04  0.000E+00  0.000E+00  0.000E+00  4.02404E+01  1.154E-01  2.000E+01  2.000E+04  3.670E-02
   1    9   29     2     2    4.9266E+04  3.7673E+02   4.8889E+04  0.000E+00  0.000E+00  0.000E+00  3.99896E+01  1.146E-01  2.000E+01  2.000E+04  1.884E-02
   1    9   28     2     3    4.8889E+04 -2.1128E+02   4.9100E+04  0.000E+00  0.000E+00  0.000E+00  3.97395E+01  1.145E-01  2.000E+01  2.000E+04 -1.056E-02
   1    9   27     2     4    4.9100E+04 -1.9136E+03   5.1014E+04  0.000E+00  0.000E+00  0.000E+00  3.94909E+01  1.159E-01  2.000E+01  2.000E+04 -9.568E-02
   1   10   26     2     5    5.1014E+04 -6.1319E+02   5.1627E+04  0.000E+00  0.000E+00  0.000E+00  3.92427E+01  1.177E-01  2.000E+01  2.000E+04 -3.066E-02
   1   11   25     2     6    5.1627E+04 -6.6895E+02   5.2296E+04  0.000E+00  0.000E+00  0.000E+00  3.89936E+01  1.186E-01  2.000E+01  2.000E+04 -3.345E-02
   1   12   24     2     7    5.2296E+04 -1.2565E+03   5.3553E+04  0.000E+00  0.000E+00  0.000E+00  3.87449E+01  1.199E-01  2.000E+01  2.000E+04 -6.282E-02
   1   13   23     2     8    5.3553E+04 -2.6010E+02   5.3813E+04  0.000E+00  0.000E+00  0.000E+00  3.84959E+01  1.209E-01  2.000E+01  2.000E+04 -1.300E-02
   1   14   22     2     9    5.3813E+04  1.6788E+03   5.2134E+04  0.000E+00  0.000E+00  0.000E+00  3.82450E+01  1.200E-01  2.000E+01  2.000E+04  8.394E-02
   1   14   22     3     1    1.8128E+05 -8.6300E+03   1.8991E+05  0.000E+00  0.000E+00  0.000E+00  3.77295E+01  1.740E-01  2.000E+01  2.000E+04 -4.315E-01
   1   15   23     3     2    1.8991E+05 -4.8495E+02   1.9039E+05  0.000E+00  0.000E+00  0.000E+00  3.68432E+01  1.765E-01  2.000E+01  2.000E+04 -2.425E-02
   1   15   24     3     3    1.9039E+05 -2.2565E+02   1.9062E+05  0.000E+00  0.000E+00  0.000E+00  3.59545E+01  1.767E-01  2.000E+01  2.000E+04 -1.128E-02
   1   15   25     3     4    1.9062E+05 -1.8375E+02   1.9080E+05  0.000E+00  0.000E+00  0.000E+00  3.50657E+01  1.768E-01  2.000E+01  2.000E+04 -9.187E-03
   1   15   26     3     5    1.9080E+05 -3.6148E+01   1.9084E+05  0.000E+00  0.000E+00  0.000E+00  3.41769E+01  1.769E-01  2.000E+01  2.000E+04 -1.807E-03
   1   16   27     3     6    1.9084E+05  3.3958E+02   1.9050E+05  0.000E+00  0.000E+00  0.000E+00  3.32879E+01  1.768E-01  2.000E+01  2.000E+04  1.698E-02
   1   17   28     3     7    1.9050E+05  1.0968E+04   1.7953E+05  0.000E+00  0.000E+00  0.000E+00  3.23959E+01  1.736E-01  2.000E+01  2.000E+04  5.484E-01
   1   18   29     3     8    1.7953E+05  1.4651E+04   1.6488E+05  0.000E+00  0.000E+00  0.000E+00  3.14996E+01  1.663E-01  2.000E+01  2.000E+04  7.325E-01
   1   18   30     3     9    1.6488E+05  4.0282E+03   1.6085E+05  0.000E+00  0.000E+00  0.000E+00  3.06053E+01  1.608E-01  2.000E+01  2.000E+04  2.014E-01



1
              HEAD IN LAYER   1 AT END OF TIME STEP   1 IN STRESS PERIOD    8
  ---------------------------------------------------------------------------

          1      2      3      4      5      6      7      8      9     10
         11     12     13     14     15     16     17     18     19     20
         21     22     23     24     25     26     27     28     29     30
 .........................................................................
   1  ****** ****** ****** ****** ****** ****** ****** ****** ****** ******
      ****** ****** ****** ****** ****** ****** ****** ****** ****** ******
      ****** ****** ****** ****** ****** ****** ****** ****** ****** ******
   2  ****** ****** ****** ****** ****** ****** ****** ****** ****** ******
      ****** ****** ****** ****** ****** ****** ****** ****** ****** ******
      ****** ****** ****** ****** ****** ****** ****** ****** ****** ******
   3  ****** ****** ****** ****** ****** ****** ****** ****** ****** ******
      ****** ****** ****** ****** ****** ****** ****** ****** ****** ******
      ****** ****** ****** ****** ****** ****** ****** ****** ****** ******
   4  ****** ****** ****** ****** ****** ****** ****** ****** ****** ******
      ****** ****** ****** ****** ****** ****** ****** ****** ****** ******
      ****** ****** ****** ****** ****** ****** ****** ****** ****** ******
   5  ****** ****** ****** ****** ****** ****** ****** ****** ****** ******
      ****** ****** ****** ****** ****** ****** ****** ****** ****** ******
      ****** ****** ****** ****** ****** ****** ****** ****** ****** ******
   6  ****** ****** ****** ****** ****** ****** ****** ****** ****** ******
      ****** ****** ****** ****** ****** ****** ****** ****** ****** ******
      ****** ****** ****** ****** ****** ****** ****** ****** ****** ******
   7  ****** ****** ****** ****** ****** ****** ****** ****** ****** ******
      ****** ****** ****** ****** ****** ****** ****** ****** ****** ******
      ****** ****** ****** ****** ****** ****** ****** ****** ****** ******
   8  ****** ****** ****** ****** ****** ****** ****** ****** ****** ******
      ****** ****** ****** ****** ****** ****** ****** ****** ****** ******
      ****** ****** ****** ****** ****** ****** ****** ****** ****** ******
   9  ****** ****** ****** ****** ****** ****** ****** ****** ****** ******
      ****** ****** ****** ****** ****** ****** ****** ****** ****** ******
      ****** ****** ****** ****** ****** ****** ****** ****** ****** ******
  10  ****** ****** ****** ****** ****** ****** ****** ****** ****** ******
      ****** ****** ****** ****** ****** ****** ****** ****** ****** ******
      ****** ****** ****** ****** ****** ****** ****** ****** ****** ******
  11  ****** ****** ****** ****** ****** ****** ****** ****** ****** ******
      ****** ****** ****** ****** ****** ****** ****** ****** ****** ******
      ****** ****** ****** ****** ****** ****** ****** ****** ****** ******
  12  ****** ****** ****** ****** ****** ****** ****** ****** ****** ******
      ****** ****** ****** ****** ****** ****** ****** ****** ****** ******
      ****** ****** ****** ****** ****** ****** ****** ****** ****** ******
  13  ****** ****** ****** ****** ****** ****** ****** ****** ****** ******
      ****** ****** ****** ****** ****** ****** ****** ****** ****** ******
      ****** ****** ****** ****** ****** ****** ****** ****** ****** ******
  14  ****** ****** ****** ****** ****** ****** ****** ****** ****** ******
      ****** ****** ****** ****** ****** ****** ****** ****** ****** ******
      ****** ****** ****** ****** ****** ****** ****** ****** ****** ******
  15  ****** ****** ****** ****** ****** ****** ****** ****** ****** ******
      ****** ****** ****** ****** ****** ****** ****** ****** ****** ******
      ****** ****** ****** ****** ****** ****** ****** ****** ****** ******
  16  ****** ****** ****** ****** ****** ****** ****** ****** ****** ******
      ****** ****** ****** ****** ****** ****** ****** ****** ****** ******
      ****** ****** ****** ****** ****** ****** ****** ****** ****** ******
  17  ****** ****** ****** ****** ****** ****** ****** ****** ****** ******
      ****** ****** ****** ****** ****** ****** ****** ****** ****** ******
      ****** ****** ****** ****** ****** ****** ****** ****** ****** ******
  18  ****** ****** ****** ****** ****** ****** ****** ****** ****** ******
      ****** ****** ****** ****** ****** ****** ****** ****** ****** ******
      ****** ****** ****** ****** ****** ****** ****** ****** ****** ******
  19  ****** ****** ****** ****** ****** ****** ****** ****** ****** ******
      ****** ****** ****** ****** ****** ****** ****** ****** ****** ******
      ****** ****** ****** ****** ****** ****** ****** ****** ****** ******
  20  ****** ****** ****** ****** ****** ****** ****** ****** ****** ******
      ****** ****** ****** ****** ****** ****** ****** ****** ****** ******
      ****** ****** ****** ****** ****** ****** ****** ****** ****** ******
  21  ****** ****** ****** ****** ****** ****** ****** ****** ****** ******
      ****** ****** ****** ****** ****** ****** ****** ****** ****** ******
      ****** ****** ****** ****** ****** ****** ****** ****** ****** ******
  22  ****** ****** ****** ****** ****** ****** ****** ****** ****** ******
      ****** ****** ****** ****** ****** ****** ****** ****** ****** ******
      ****** ****** ****** ****** ****** ****** ****** ****** ****** ******
  23  ****** ****** ****** ****** ****** ****** ****** ****** ****** ******
      ****** ****** ****** ****** ****** ****** ****** ****** ****** ******
      ****** ****** ****** ****** ****** ****** ****** ****** ****** ******
  24  ****** ****** ****** ****** ****** ****** ****** ****** ****** ******
      ****** ****** ****** ****** ****** ****** ****** ****** ****** ******
      ****** ****** ****** ****** ****** ****** ****** ****** ****** ******
  25  ****** ****** ****** ****** ****** ****** ****** ****** ****** ******
      ****** ****** ****** ****** ****** ****** ****** ****** ****** ******
      ****** ****** ****** ****** ****** ****** ****** ****** ****** ******

 HEAD WILL BE SAVED ON UNIT   51 AT END OF TIME STEP    1, STRESS PERIOD    8
1
  VOLUMETRIC BUDGET FOR ENTIRE MODEL AT END OF TIME STEP    1, STRESS PERIOD   8
  ------------------------------------------------------------------------------

     CUMULATIVE VOLUMES      L**3       RATES FOR THIS TIME STEP      L**3/T
     ------------------                 ------------------------

           IN:                                      IN:
           ---                                      ---
             STORAGE =    32095159.1338               STORAGE =        1270.4344
       CONSTANT HEAD =    18438427.7214         CONSTANT HEAD =       31591.9329
               WELLS =           0.0000                 WELLS =           0.0000
            RECHARGE =    17608800.0000              RECHARGE =       27600.0000
      STREAM LEAKAGE =    24204625.6754        STREAM LEAKAGE =       37740.3054

            TOTAL IN =    92347012.5306              TOTAL IN =       98202.6727

          OUT:                                     OUT:
          ----                                     ----
             STORAGE =      990828.6495               STORAGE =        1598.9834
       CONSTANT HEAD =           0.0000         CONSTANT HEAD =           0.0000
               WELLS =    35048920.8086                 WELLS =       48012.2203
            RECHARGE =           0.0000              RECHARGE =           0.0000
      STREAM LEAKAGE =    56307264.7018        STREAM LEAKAGE =       48591.4609

           TOTAL OUT =    92347014.1599             TOTAL OUT =       98202.6646

            IN - OUT =          -1.6293              IN - OUT =       8.0878E-03

 PERCENT DISCREPANCY =          -0.00     PERCENT DISCREPANCY =           0.00






         TIME SUMMARY AT END OF TIME STEP    1 IN STRESS PERIOD    8
                    SECONDS     MINUTES      HOURS       DAYS        YEARS
                    -----------------------------------------------------------
   TIME STEP LENGTH 7.86240E+06 1.31040E+05  2184.0      91.000     0.24914    
 STRESS PERIOD TIME 7.86240E+06 1.31040E+05  2184.0      91.000     0.24914    
         TOTAL TIME 6.30720E+07 1.05120E+06  17520.      730.00      1.9986    
1
1
                            STRESS PERIOD NO.    9, LENGTH =   92.00000    
                            -----------------------------------------------

                              NUMBER OF TIME STEPS =     1

                               MULTIPLIER FOR DELT =     1.500

                            INITIAL TIME STEP SIZE =   92.00000    

 WELL NO.  LAYER   ROW   COL   STRESS RATE         
 --------------------------------------------------
      1      1     17     29     -0.1404E+05
      2      1     18     28     -0.1091E+05
      3      1     12     29      -8101.    
      4      1     19     29     -0.1496E+05

      4 WELLS

                 RECHARGE =  5.000000E-04

 REUSING STREAM SEGMENT DATA FROM LAST STRESS PERIOD
 
 SOLVING FOR HEAD 


     7 CALLS TO PCG ROUTINE FOR TIME STEP   1 IN STRESS PERIOD    9
    24 TOTAL ITERATIONS

 OUTPUT CONTROL FOR STRESS PERIOD    9   TIME STEP    1
    SAVE BUDGET
    SAVE HEAD FOR ALL LAYERS
    PRINT HEAD FOR ALL LAYERS
 UBDSV2 SAVING "STREAMFLOW OUT  " ON UNIT  50 AT TIME STEP  1, STRESS PERIOD   9



 STREAM LISTING     PERIOD      9   STEP        1

 LAYER ROW COL. STREAM  RCH.  FLOW INTO     FLOW TO   FLOW OUT OF   OVRLND.     DIRECT     STREAM       STREAM     STREAM     STREAM   STREAMBED  STREAMBED
                SEG.NO.  NO.  STRM. RCH.    AQUIFER    STRM. RCH.    RUNOFF     PRECIP       ET          HEAD       DEPTH      WIDTH   CONDCTNC.   GRADIENT

   1   13    1     1     1    1.0000E+05 -1.6976E+03   1.0170E+05  0.000E+00  0.000E+00  0.000E+00  4.84068E+01  1.454E-01  2.000E+01  2.000E+04 -8.488E-02
   1   13    2     1     2    1.0170E+05 -2.6453E+03   1.0434E+05  0.000E+00  0.000E+00  0.000E+00  4.79313E+01  1.473E-01  2.000E+01  2.000E+04 -1.323E-01
   1   14    3     1     3    1.0434E+05 -4.1226E+02   1.0476E+05  0.000E+00  0.000E+00  0.000E+00  4.74554E+01  1.486E-01  2.000E+01  2.000E+04 -2.061E-02
   1   15    4     1     4    1.0476E+05 -3.8216E+02   1.0514E+05  0.000E+00  0.000E+00  0.000E+00  4.69784E+01  1.489E-01  2.000E+01  2.000E+04 -1.911E-02
   1   16    5     1     5    1.0514E+05 -1.4747E+03   1.0661E+05  0.000E+00  0.000E+00  0.000E+00  4.65020E+01  1.497E-01  2.000E+01  2.000E+04 -7.373E-02
   1   16    6     1     6    1.0661E+05 -9.4536E+02   1.0756E+05  0.000E+00  0.000E+00  0.000E+00  4.60257E+01  1.507E-01  2.000E+01  2.000E+04 -4.727E-02
   1   16    7     1     7    1.0756E+05 -9.3390E+02   1.0849E+05  0.000E+00  0.000E+00  0.000E+00  4.55492E+01  1.515E-01  2.000E+01  2.000E+04 -4.670E-02
   1   16    8     1     8    1.0849E+05 -9.3381E+02   1.0943E+05  0.000E+00  0.000E+00  0.000E+00  4.50727E+01  1.523E-01  2.000E+01  2.000E+04 -4.669E-02
   1   16    9     1     9    1.0943E+05 -9.2942E+02   1.1035E+05  0.000E+00  0.000E+00  0.000E+00  4.45963E+01  1.531E-01  2.000E+01  2.000E+04 -4.647E-02
   1   16   10     1    10    1.1035E+05 -9.2077E+02   1.1128E+05  0.000E+00  0.000E+00  0.000E+00  4.41198E+01  1.538E-01  2.000E+01  2.000E+04 -4.604E-02
   1   16   11     1    11    1.1128E+05 -9.2590E+02   1.1220E+05  0.000E+00  0.000E+00  0.000E+00  4.36432E+01  1.546E-01  2.000E+01  2.000E+04 -4.629E-02
   1   16   12     1    12    1.1220E+05 -1.5784E+03   1.1378E+05  0.000E+00  0.000E+00  0.000E+00  4.31670E+01  1.557E-01  2.000E+01  2.000E+04 -7.892E-02
   1   15   13     1    13    1.1378E+05 -1.5070E+03   1.1529E+05  0.000E+00  0.000E+00  0.000E+00  4.26910E+01  1.569E-01  2.000E+01  2.000E+04 -7.535E-02
   1   14   14     1    14    1.1529E+05 -1.7897E+03   1.1708E+05  0.000E+00  0.000E+00  0.000E+00  4.22151E+01  1.583E-01  2.000E+01  2.000E+04 -8.949E-02
   1   13   15     1    15    1.1708E+05 -2.1128E+03   1.1919E+05  0.000E+00  0.000E+00  0.000E+00  4.17394E+01  1.599E-01  2.000E+01  2.000E+04 -1.056E-01
   1   12   16     1    16    1.1919E+05 -2.7876E+03   1.2198E+05  0.000E+00  0.000E+00  0.000E+00  4.12641E+01  1.618E-01  2.000E+01  2.000E+04 -1.394E-01
   1   12   17     1    17    1.2198E+05 -1.8109E+03   1.2379E+05  0.000E+00  0.000E+00  0.000E+00  4.07887E+01  1.637E-01  2.000E+01  2.000E+04 -9.054E-02
   1   12   18     1    18    1.2379E+05 -1.7274E+03   1.2552E+05  0.000E+00  0.000E+00  0.000E+00  4.03128E+01  1.651E-01  2.000E+01  2.000E+04 -8.637E-02
   1   12   19     1    19    1.2552E+05 -2.2706E+03   1.2779E+05  0.000E+00  0.000E+00  0.000E+00  3.98371E+01  1.667E-01  2.000E+01  2.000E+04 -1.135E-01
   1   13   20     1    20    1.2779E+05 -1.6257E+03   1.2941E+05  0.000E+00  0.000E+00  0.000E+00  3.93614E+01  1.682E-01  2.000E+01  2.000E+04 -8.128E-02
   1   14   21     1    21    1.2941E+05 -1.3218E+03   1.3073E+05  0.000E+00  0.000E+00  0.000E+00  3.88853E+01  1.694E-01  2.000E+01  2.000E+04 -6.609E-02
   1   14   22     1    22    1.3073E+05  5.0035E+03   1.2573E+05  0.000E+00  0.000E+00  0.000E+00  3.84066E+01  1.679E-01  2.000E+01  2.000E+04  2.502E-01
   1    9   30     2     1    5.0000E+04  8.5668E+02   4.9143E+04  0.000E+00  0.000E+00  0.000E+00  4.02403E+01  1.153E-01  2.000E+01  2.000E+04  4.283E-02
   1    9   29     2     2    4.9143E+04  4.9951E+02   4.8644E+04  0.000E+00  0.000E+00  0.000E+00  3.99893E+01  1.143E-01  2.000E+01  2.000E+04  2.498E-02
   1    9   28     2     3    4.8644E+04 -8.6752E+01   4.8731E+04  0.000E+00  0.000E+00  0.000E+00  3.97390E+01  1.140E-01  2.000E+01  2.000E+04 -4.338E-03
   1    9   27     2     4    4.8731E+04 -1.7390E+03   5.0470E+04  0.000E+00  0.000E+00  0.000E+00  3.94903E+01  1.153E-01  2.000E+01  2.000E+04 -8.695E-02
   1   10   26     2     5    5.0470E+04 -4.4107E+02   5.0911E+04  0.000E+00  0.000E+00  0.000E+00  3.92418E+01  1.168E-01  2.000E+01  2.000E+04 -2.205E-02
   1   11   25     2     6    5.0911E+04 -5.0420E+02   5.1415E+04  0.000E+00  0.000E+00  0.000E+00  3.89925E+01  1.175E-01  2.000E+01  2.000E+04 -2.521E-02
   1   12   24     2     7    5.1415E+04 -1.1051E+03   5.2520E+04  0.000E+00  0.000E+00  0.000E+00  3.87436E+01  1.186E-01  2.000E+01  2.000E+04 -5.526E-02
   1   13   23     2     8    5.2520E+04 -2.1322E+02   5.2733E+04  0.000E+00  0.000E+00  0.000E+00  3.84945E+01  1.195E-01  2.000E+01  2.000E+04 -1.066E-02
   1   14   22     2     9    5.2733E+04  1.7409E+03   5.0992E+04  0.000E+00  0.000E+00  0.000E+00  3.82434E+01  1.184E-01  2.000E+01  2.000E+04  8.705E-02
   1   14   22     3     1    1.7672E+05 -8.5893E+03   1.8531E+05  0.000E+00  0.000E+00  0.000E+00  3.77269E+01  1.714E-01  2.000E+01  2.000E+04 -4.295E-01
   1   15   23     3     2    1.8531E+05 -4.3227E+02   1.8574E+05  0.000E+00  0.000E+00  0.000E+00  3.68406E+01  1.739E-01  2.000E+01  2.000E+04 -2.161E-02
   1   15   24     3     3    1.8574E+05 -1.8255E+02   1.8593E+05  0.000E+00  0.000E+00  0.000E+00  3.59519E+01  1.741E-01  2.000E+01  2.000E+04 -9.127E-03
   1   15   25     3     4    1.8593E+05 -1.4038E+02   1.8607E+05  0.000E+00  0.000E+00  0.000E+00  3.50631E+01  1.742E-01  2.000E+01  2.000E+04 -7.019E-03
   1   15   26     3     5    1.8607E+05  1.1515E+01   1.8605E+05  0.000E+00  0.000E+00  0.000E+00  3.41742E+01  1.742E-01  2.000E+01  2.000E+04  5.758E-04
   1   16   27     3     6    1.8605E+05  3.9571E+02   1.8566E+05  0.000E+00  0.000E+00  0.000E+00  3.32852E+01  1.741E-01  2.000E+01  2.000E+04  1.979E-02
   1   17   28     3     7    1.8566E+05  1.1122E+04   1.7454E+05  0.000E+00  0.000E+00  0.000E+00  3.23931E+01  1.708E-01  2.000E+01  2.000E+04  5.561E-01
   1   18   29     3     8    1.7454E+05  1.4828E+04   1.5971E+05  0.000E+00  0.000E+00  0.000E+00  3.14967E+01  1.634E-01  2.000E+01  2.000E+04  7.414E-01
   1   18   30     3     9    1.5971E+05  4.1608E+03   1.5555E+05  0.000E+00  0.000E+00  0.000E+00  3.06022E+01  1.577E-01  2.000E+01  2.000E+04  2.080E-01



1
              HEAD IN LAYER   1 AT END OF TIME STEP   1 IN STRESS PERIOD    9
  ---------------------------------------------------------------------------

          1      2      3      4      5      6      7      8      9     10
         11     12     13     14     15     16     17     18     19     20
         21     22     23     24     25     26     27     28     29     30
 .........................................................................
   1  ****** ****** ****** ****** ****** ****** ****** ****** ****** ******
      ****** ****** ****** ****** ****** ****** ****** ****** ****** ******
      ****** ****** ****** ****** ****** ****** ****** ****** ****** ******
   2  ****** ****** ****** ****** ****** ****** ****** ****** ****** ******
      ****** ****** ****** ****** ****** ****** ****** ****** ****** ******
      ****** ****** ****** ****** ****** ****** ****** ****** ****** ******
   3  ****** ****** ****** ****** ****** ****** ****** ****** ****** ******
      ****** ****** ****** ****** ****** ****** ****** ****** ****** ******
      ****** ****** ****** ****** ****** ****** ****** ****** ****** ******
   4  ****** ****** ****** ****** ****** ****** ****** ****** ****** ******
      ****** ****** ****** ****** ****** ****** ****** ****** ****** ******
      ****** ****** ****** ****** ****** ****** ****** ****** ****** ******
   5  ****** ****** ****** ****** ****** ****** ****** ****** ****** ******
      ****** ****** ****** ****** ****** ****** ****** ****** ****** ******
      ****** ****** ****** ****** ****** ****** ****** ****** ****** ******
   6  ****** ****** ****** ****** ****** ****** ****** ****** ****** ******
      ****** ****** ****** ****** ****** ****** ****** ****** ****** ******
      ****** ****** ****** ****** ****** ****** ****** ****** ****** ******
   7  ****** ****** ****** ****** ****** ****** ****** ****** ****** ******
      ****** ****** ****** ****** ****** ****** ****** ****** ****** ******
      ****** ****** ****** ****** ****** ****** ****** ****** ****** ******
   8  ****** ****** ****** ****** ****** ****** ****** ****** ****** ******
      ****** ****** ****** ****** ****** ****** ****** ****** ****** ******
      ****** ****** ****** ****** ****** ****** ****** ****** ****** ******
   9  ****** ****** ****** ****** ****** ****** ****** ****** ****** ******
      ****** ****** ****** ****** ****** ****** ****** ****** ****** ******
      ****** ****** ****** ****** ****** ****** ****** ****** ****** ******
  10  ****** ****** ****** ****** ****** ****** ****** ****** ****** ******
      ****** ****** ****** ****** ****** ****** ****** ****** ****** ******
      ****** ****** ****** ****** ****** ****** ****** ****** ****** ******
  11  ****** ****** ****** ****** ****** ****** ****** ****** ****** ******
      ****** ****** ****** ****** ****** ****** ****** ****** ****** ******
      ****** ****** ****** ****** ****** ****** ****** ****** ****** ******
  12  ****** ****** ****** ****** ****** ****** ****** ****** ****** ******
      ****** ****** ****** ****** ****** ****** ****** ****** ****** ******
      ****** ****** ****** ****** ****** ****** ****** ****** ****** ******
  13  ****** ****** ****** ****** ****** ****** ****** ****** ****** ******
      ****** ****** ****** ****** ****** ****** ****** ****** ****** ******
      ****** ****** ****** ****** ****** ****** ****** ****** ****** ******
  14  ****** ****** ****** ****** ****** ****** ****** ****** ****** ******
      ****** ****** ****** ****** ****** ****** ****** ****** ****** ******
      ****** ****** ****** ****** ****** ****** ****** ****** ****** ******
  15  ****** ****** ****** ****** ****** ****** ****** ****** ****** ******
      ****** ****** ****** ****** ****** ****** ****** ****** ****** ******
      ****** ****** ****** ****** ****** ****** ****** ****** ****** ******
  16  ****** ****** ****** ****** ****** ****** ****** ****** ****** ******
      ****** ****** ****** ****** ****** ****** ****** ****** ****** ******
      ****** ****** ****** ****** ****** ****** ****** ****** ****** ******
  17  ****** ****** ****** ****** ****** ****** ****** ****** ****** ******
      ****** ****** ****** ****** ****** ****** ****** ****** ****** ******
      ****** ****** ****** ****** ****** ****** ****** ****** ****** ******
  18  ****** ****** ****** ****** ****** ****** ****** ****** ****** ******
      ****** ****** ****** ****** ****** ****** ****** ****** ****** ******
      ****** ****** ****** ****** ****** ****** ****** ****** ****** ******
  19  ****** ****** ****** ****** ****** ****** ****** ****** ****** ******
      ****** ****** ****** ****** ****** ****** ****** ****** ****** ******
      ****** ****** ****** ****** ****** ****** ****** ****** ****** ******
  20  ****** ****** ****** ****** ****** ****** ****** ****** ****** ******
      ****** ****** ****** ****** ****** ****** ****** ****** ****** ******
      ****** ****** ****** ****** ****** ****** ****** ****** ****** ******
  21  ****** ****** ****** ****** ****** ****** ****** ****** ****** ******
      ****** ****** ****** ****** ****** ****** ****** ****** ****** ******
      ****** ****** ****** ****** ****** ****** ****** ****** ****** ******
  22  ****** ****** ****** ****** ****** ****** ****** ****** ****** ******
      ****** ****** ****** ****** ****** ****** ****** ****** ****** ******
      ****** ****** ****** ****** ****** ****** ****** ****** ****** ******
  23  ****** ****** ****** ****** ****** ****** ****** ****** ****** ******
      ****** ****** ****** ****** ****** ****** ****** ****** ****** ******
      ****** ****** ****** ****** ****** ****** ****** ****** ****** ******
  24  ****** ****** ****** ****** ****** ****** ****** ****** ****** ******
      ****** ****** ****** ****** ****** ****** ****** ****** ****** ******
      ****** ****** ****** ****** ****** ****** ****** ****** ****** ******
  25  ****** ****** ****** ****** ****** ****** ****** ****** ****** ******
      ****** ****** ****** ****** ****** ****** ****** ****** ****** ******
      ****** ****** ****** ****** ****** ****** ****** ****** ****** ******

 HEAD WILL BE SAVED ON UNIT   51 AT END OF TIME STEP    1, STRESS PERIOD    9
1
  VOLUMETRIC BUDGET FOR ENTIRE MODEL AT END OF TIME STEP    1, STRESS PERIOD   9
  ------------------------------------------------------------------------------

     CUMULATIVE VOLUMES      L**3       RATES FOR THIS TIME STEP      L**3/T
     ------------------                 ------------------------

           IN:                                      IN:
           ---                                      ---
             STORAGE =    32741344.0567               STORAGE =        7023.7492
       CONSTANT HEAD =    21450248.3769         CONSTANT HEAD =       32737.1810
               WELLS =           0.0000                 WELLS =           0.0000
            RECHARGE =    18878400.0000              RECHARGE =       13800.0000
      STREAM LEAKAGE =    27757503.4088        STREAM LEAKAGE =       38618.2362

            TOTAL IN =   100827495.8424              TOTAL IN =       92179.1664

          OUT:                                     OUT:
          ----                                     ----
             STORAGE =      990828.6495               STORAGE =           0.0000
       CONSTANT HEAD =           0.0000         CONSTANT HEAD =           0.0000
               WELLS =    39466045.0748                 WELLS =       48012.2203
            RECHARGE =           0.0000              RECHARGE =           0.0000
      STREAM LEAKAGE =    60370623.8490        STREAM LEAKAGE =       44166.9473

           TOTAL OUT =   100827497.5734             TOTAL OUT =       92179.1675

            IN - OUT =          -1.7310              IN - OUT =      -1.1058E-03

 PERCENT DISCREPANCY =          -0.00     PERCENT DISCREPANCY =          -0.00






         TIME SUMMARY AT END OF TIME STEP    1 IN STRESS PERIOD    9
                    SECONDS     MINUTES      HOURS       DAYS        YEARS
                    -----------------------------------------------------------
   TIME STEP LENGTH 7.94880E+06 1.32480E+05  2208.0      92.000     0.25188    
 STRESS PERIOD TIME 7.94880E+06 1.32480E+05  2208.0      92.000     0.25188    
         TOTAL TIME 7.10208E+07 1.18368E+06  19728.      822.00      2.2505    
1
1
                            STRESS PERIOD NO.   10, LENGTH =   91.00000    
                            -----------------------------------------------

                              NUMBER OF TIME STEPS =     1

                               MULTIPLIER FOR DELT =     1.500

                            INITIAL TIME STEP SIZE =   91.00000    

 WELL NO.  LAYER   ROW   COL   STRESS RATE         
 --------------------------------------------------
      1      1     17     29     -0.1404E+05
      2      1     18     28     -0.1091E+05
      3      1     12     29      -8101.    
      4      1     19     29     -0.1496E+05

      4 WELLS

                 RECHARGE =  2.000000E-03

 REUSING STREAM SEGMENT DATA FROM LAST STRESS PERIOD
 
 SOLVING FOR HEAD 


     7 CALLS TO PCG ROUTINE FOR TIME STEP   1 IN STRESS PERIOD   10
    26 TOTAL ITERATIONS

 OUTPUT CONTROL FOR STRESS PERIOD   10   TIME STEP    1
    SAVE BUDGET
    SAVE HEAD FOR ALL LAYERS
    PRINT HEAD FOR ALL LAYERS
 UBDSV2 SAVING "STREAMFLOW OUT  " ON UNIT  50 AT TIME STEP  1, STRESS PERIOD  10



 STREAM LISTING     PERIOD     10   STEP        1

 LAYER ROW COL. STREAM  RCH.  FLOW INTO     FLOW TO   FLOW OUT OF   OVRLND.     DIRECT     STREAM       STREAM     STREAM     STREAM   STREAMBED  STREAMBED
                SEG.NO.  NO.  STRM. RCH.    AQUIFER    STRM. RCH.    RUNOFF     PRECIP       ET          HEAD       DEPTH      WIDTH   CONDCTNC.   GRADIENT

   1   13    1     1     1    1.0000E+05 -2.1539E+03   1.0215E+05  0.000E+00  0.000E+00  0.000E+00  4.84069E+01  1.456E-01  2.000E+01  2.000E+04 -1.077E-01
   1   13    2     1     2    1.0215E+05 -3.1513E+03   1.0531E+05  0.000E+00  0.000E+00  0.000E+00  4.79320E+01  1.479E-01  2.000E+01  2.000E+04 -1.576E-01
   1   14    3     1     3    1.0531E+05 -5.9945E+02   1.0590E+05  0.000E+00  0.000E+00  0.000E+00  4.74563E+01  1.495E-01  2.000E+01  2.000E+04 -2.997E-02
   1   15    4     1     4    1.0590E+05 -5.8213E+02   1.0649E+05  0.000E+00  0.000E+00  0.000E+00  4.69795E+01  1.500E-01  2.000E+01  2.000E+04 -2.911E-02
   1   16    5     1     5    1.0649E+05 -2.0942E+03   1.0858E+05  0.000E+00  0.000E+00  0.000E+00  4.65034E+01  1.511E-01  2.000E+01  2.000E+04 -1.047E-01
   1   16    6     1     6    1.0858E+05 -1.3081E+03   1.0989E+05  0.000E+00  0.000E+00  0.000E+00  4.60275E+01  1.525E-01  2.000E+01  2.000E+04 -6.541E-02
   1   16    7     1     7    1.0989E+05 -1.2789E+03   1.1117E+05  0.000E+00  0.000E+00  0.000E+00  4.55513E+01  1.536E-01  2.000E+01  2.000E+04 -6.395E-02
   1   16    8     1     8    1.1117E+05 -1.2734E+03   1.1244E+05  0.000E+00  0.000E+00  0.000E+00  4.50751E+01  1.547E-01  2.000E+01  2.000E+04 -6.367E-02
   1   16    9     1     9    1.1244E+05 -1.2674E+03   1.1371E+05  0.000E+00  0.000E+00  0.000E+00  4.45989E+01  1.557E-01  2.000E+01  2.000E+04 -6.337E-02
   1   16   10     1    10    1.1371E+05 -1.2588E+03   1.1497E+05  0.000E+00  0.000E+00  0.000E+00  4.41227E+01  1.568E-01  2.000E+01  2.000E+04 -6.294E-02
   1   16   11     1    11    1.1497E+05 -1.2672E+03   1.1623E+05  0.000E+00  0.000E+00  0.000E+00  4.36464E+01  1.578E-01  2.000E+01  2.000E+04 -6.336E-02
   1   16   12     1    12    1.1623E+05 -2.1484E+03   1.1838E+05  0.000E+00  0.000E+00  0.000E+00  4.31706E+01  1.592E-01  2.000E+01  2.000E+04 -1.074E-01
   1   15   13     1    13    1.1838E+05 -2.0949E+03   1.2048E+05  0.000E+00  0.000E+00  0.000E+00  4.26950E+01  1.609E-01  2.000E+01  2.000E+04 -1.047E-01
   1   14   14     1    14    1.2048E+05 -2.3855E+03   1.2286E+05  0.000E+00  0.000E+00  0.000E+00  4.22195E+01  1.627E-01  2.000E+01  2.000E+04 -1.193E-01
   1   13   15     1    15    1.2286E+05 -2.6991E+03   1.2556E+05  0.000E+00  0.000E+00  0.000E+00  4.17443E+01  1.647E-01  2.000E+01  2.000E+04 -1.350E-01
   1   12   16     1    16    1.2556E+05 -3.3535E+03   1.2892E+05  0.000E+00  0.000E+00  0.000E+00  4.12694E+01  1.671E-01  2.000E+01  2.000E+04 -1.677E-01
   1   12   17     1    17    1.2892E+05 -2.2384E+03   1.3115E+05  0.000E+00  0.000E+00  0.000E+00  4.07943E+01  1.693E-01  2.000E+01  2.000E+04 -1.119E-01
   1   12   18     1    18    1.3115E+05 -2.1505E+03   1.3331E+05  0.000E+00  0.000E+00  0.000E+00  4.03188E+01  1.710E-01  2.000E+01  2.000E+04 -1.075E-01
   1   12   19     1    19    1.3331E+05 -2.7912E+03   1.3610E+05  0.000E+00  0.000E+00  0.000E+00  3.98434E+01  1.730E-01  2.000E+01  2.000E+04 -1.396E-01
   1   13   20     1    20    1.3610E+05 -2.1478E+03   1.3824E+05  0.000E+00  0.000E+00  0.000E+00  3.93680E+01  1.749E-01  2.000E+01  2.000E+04 -1.074E-01
   1   14   21     1    21    1.3824E+05 -1.8471E+03   1.4009E+05  0.000E+00  0.000E+00  0.000E+00  3.88923E+01  1.764E-01  2.000E+01  2.000E+04 -9.236E-02
   1   14   22     1    22    1.4009E+05  4.8738E+03   1.3522E+05  0.000E+00  0.000E+00  0.000E+00  3.84139E+01  1.752E-01  2.000E+01  2.000E+04  2.437E-01
   1    9   30     2     1    5.0000E+04  4.4196E+02   4.9558E+04  0.000E+00  0.000E+00  0.000E+00  4.02406E+01  1.156E-01  2.000E+01  2.000E+04  2.210E-02
   1    9   29     2     2    4.9558E+04  8.7039E+01   4.9471E+04  0.000E+00  0.000E+00  0.000E+00  3.99902E+01  1.152E-01  2.000E+01  2.000E+04  4.352E-03
   1    9   28     2     3    4.9471E+04 -4.9849E+02   4.9969E+04  0.000E+00  0.000E+00  0.000E+00  3.97405E+01  1.155E-01  2.000E+01  2.000E+04 -2.492E-02
   1    9   27     2     4    4.9969E+04 -2.2932E+03   5.2263E+04  0.000E+00  0.000E+00  0.000E+00  3.94924E+01  1.174E-01  2.000E+01  2.000E+04 -1.147E-01
   1   10   26     2     5    5.2263E+04 -9.9507E+02   5.3258E+04  0.000E+00  0.000E+00  0.000E+00  3.92447E+01  1.197E-01  2.000E+01  2.000E+04 -4.975E-02
   1   11   25     2     6    5.3258E+04 -1.0336E+03   5.4291E+04  0.000E+00  0.000E+00  0.000E+00  3.89960E+01  1.210E-01  2.000E+01  2.000E+04 -5.168E-02
   1   12   24     2     7    5.4291E+04 -1.5843E+03   5.5876E+04  0.000E+00  0.000E+00  0.000E+00  3.87478E+01  1.228E-01  2.000E+01  2.000E+04 -7.921E-02
   1   13   23     2     8    5.5876E+04 -3.6204E+02   5.6238E+04  0.000E+00  0.000E+00  0.000E+00  3.84991E+01  1.241E-01  2.000E+01  2.000E+04 -1.810E-02
   1   14   22     2     9    5.6238E+04  1.5625E+03   5.4675E+04  0.000E+00  0.000E+00  0.000E+00  3.82483E+01  1.233E-01  2.000E+01  2.000E+04  7.812E-02
   1   14   22     3     1    1.8989E+05 -8.7167E+03   1.9861E+05  0.000E+00  0.000E+00  0.000E+00  3.77343E+01  1.788E-01  2.000E+01  2.000E+04 -4.358E-01
   1   15   23     3     2    1.9861E+05 -5.9478E+02   1.9920E+05  0.000E+00  0.000E+00  0.000E+00  3.68480E+01  1.813E-01  2.000E+01  2.000E+04 -2.974E-02
   1   15   24     3     3    1.9920E+05 -3.1970E+02   1.9952E+05  0.000E+00  0.000E+00  0.000E+00  3.59594E+01  1.816E-01  2.000E+01  2.000E+04 -1.598E-02
   1   15   25     3     4    1.9952E+05 -2.8095E+02   1.9980E+05  0.000E+00  0.000E+00  0.000E+00  3.50706E+01  1.818E-01  2.000E+01  2.000E+04 -1.405E-02
   1   15   26     3     5    1.9980E+05 -1.5072E+02   1.9996E+05  0.000E+00  0.000E+00  0.000E+00  3.41819E+01  1.819E-01  2.000E+01  2.000E+04 -7.536E-03
   1   16   27     3     6    1.9996E+05  2.0987E+02   1.9975E+05  0.000E+00  0.000E+00  0.000E+00  3.32930E+01  1.819E-01  2.000E+01  2.000E+04  1.049E-02
   1   17   28     3     7    1.9975E+05  1.0601E+04   1.8914E+05  0.000E+00  0.000E+00  0.000E+00  3.24011E+01  1.789E-01  2.000E+01  2.000E+04  5.301E-01
   1   18   29     3     8    1.8914E+05  1.4277E+04   1.7487E+05  0.000E+00  0.000E+00  0.000E+00  3.15053E+01  1.719E-01  2.000E+01  2.000E+04  7.138E-01
   1   18   30     3     9    1.7487E+05  3.7360E+03   1.7113E+05  0.000E+00  0.000E+00  0.000E+00  3.06112E+01  1.668E-01  2.000E+01  2.000E+04  1.868E-01



1
              HEAD IN LAYER   1 AT END OF TIME STEP   1 IN STRESS PERIOD   10
  ---------------------------------------------------------------------------

          1      2      3      4      5      6      7      8      9     10
         11     12     13     14     15     16     17     18     19     20
         21     22     23     24     25     26     27     28     29     30
 .........................................................................
   1  ****** ****** ****** ****** ****** ****** ****** ****** ****** ******
      ****** ****** ****** ****** ****** ****** ****** ****** ****** ******
      ****** ****** ****** ****** ****** ****** ****** ****** ****** ******
   2  ****** ****** ****** ****** ****** ****** ****** ****** ****** ******
      ****** ****** ****** ****** ****** ****** ****** ****** ****** ******
      ****** ****** ****** ****** ****** ****** ****** ****** ****** ******
   3  ****** ****** ****** ****** ****** ****** ****** ****** ****** ******
      ****** ****** ****** ****** ****** ****** ****** ****** ****** ******
      ****** ****** ****** ****** ****** ****** ****** ****** ****** ******
   4  ****** ****** ****** ****** ****** ****** ****** ****** ****** ******
      ****** ****** ****** ****** ****** ****** ****** ****** ****** ******
      ****** ****** ****** ****** ****** ****** ****** ****** ****** ******
   5  ****** ****** ****** ****** ****** ****** ****** ****** ****** ******
      ****** ****** ****** ****** ****** ****** ****** ****** ****** ******
      ****** ****** ****** ****** ****** ****** ****** ****** ****** ******
   6  ****** ****** ****** ****** ****** ****** ****** ****** ****** ******
      ****** ****** ****** ****** ****** ****** ****** ****** ****** ******
      ****** ****** ****** ****** ****** ****** ****** ****** ****** ******
   7  ****** ****** ****** ****** ****** ****** ****** ****** ****** ******
      ****** ****** ****** ****** ****** ****** ****** ****** ****** ******
      ****** ****** ****** ****** ****** ****** ****** ****** ****** ******
   8  ****** ****** ****** ****** ****** ****** ****** ****** ****** ******
      ****** ****** ****** ****** ****** ****** ****** ****** ****** ******
      ****** ****** ****** ****** ****** ****** ****** ****** ****** ******
   9  ****** ****** ****** ****** ****** ****** ****** ****** ****** ******
      ****** ****** ****** ****** ****** ****** ****** ****** ****** ******
      ****** ****** ****** ****** ****** ****** ****** ****** ****** ******
  10  ****** ****** ****** ****** ****** ****** ****** ****** ****** ******
      ****** ****** ****** ****** ****** ****** ****** ****** ****** ******
      ****** ****** ****** ****** ****** ****** ****** ****** ****** ******
  11  ****** ****** ****** ****** ****** ****** ****** ****** ****** ******
      ****** ****** ****** ****** ****** ****** ****** ****** ****** ******
      ****** ****** ****** ****** ****** ****** ****** ****** ****** ******
  12  ****** ****** ****** ****** ****** ****** ****** ****** ****** ******
      ****** ****** ****** ****** ****** ****** ****** ****** ****** ******
      ****** ****** ****** ****** ****** ****** ****** ****** ****** ******
  13  ****** ****** ****** ****** ****** ****** ****** ****** ****** ******
      ****** ****** ****** ****** ****** ****** ****** ****** ****** ******
      ****** ****** ****** ****** ****** ****** ****** ****** ****** ******
  14  ****** ****** ****** ****** ****** ****** ****** ****** ****** ******
      ****** ****** ****** ****** ****** ****** ****** ****** ****** ******
      ****** ****** ****** ****** ****** ****** ****** ****** ****** ******
  15  ****** ****** ****** ****** ****** ****** ****** ****** ****** ******
      ****** ****** ****** ****** ****** ****** ****** ****** ****** ******
      ****** ****** ****** ****** ****** ****** ****** ****** ****** ******
  16  ****** ****** ****** ****** ****** ****** ****** ****** ****** ******
      ****** ****** ****** ****** ****** ****** ****** ****** ****** ******
      ****** ****** ****** ****** ****** ****** ****** ****** ****** ******
  17  ****** ****** ****** ****** ****** ****** ****** ****** ****** ******
      ****** ****** ****** ****** ****** ****** ****** ****** ****** ******
      ****** ****** ****** ****** ****** ****** ****** ****** ****** ******
  18  ****** ****** ****** ****** ****** ****** ****** ****** ****** ******
      ****** ****** ****** ****** ****** ****** ****** ****** ****** ******
      ****** ****** ****** ****** ****** ****** ****** ****** ****** ******
  19  ****** ****** ****** ****** ****** ****** ****** ****** ****** ******
      ****** ****** ****** ****** ****** ****** ****** ****** ****** ******
      ****** ****** ****** ****** ****** ****** ****** ****** ****** ******
  20  ****** ****** ****** ****** ****** ****** ****** ****** ****** ******
      ****** ****** ****** ****** ****** ****** ****** ****** ****** ******
      ****** ****** ****** ****** ****** ****** ****** ****** ****** ******
  21  ****** ****** ****** ****** ****** ****** ****** ****** ****** ******
      ****** ****** ****** ****** ****** ****** ****** ****** ****** ******
      ****** ****** ****** ****** ****** ****** ****** ****** ****** ******
  22  ****** ****** ****** ****** ****** ****** ****** ****** ****** ******
      ****** ****** ****** ****** ****** ****** ****** ****** ****** ******
      ****** ****** ****** ****** ****** ****** ****** ****** ****** ******
  23  ****** ****** ****** ****** ****** ****** ****** ****** ****** ******
      ****** ****** ****** ****** ****** ****** ****** ****** ****** ******
      ****** ****** ****** ****** ****** ****** ****** ****** ****** ******
  24  ****** ****** ****** ****** ****** ****** ****** ****** ****** ******
      ****** ****** ****** ****** ****** ****** ****** ****** ****** ******
      ****** ****** ****** ****** ****** ****** ****** ****** ****** ******
  25  ****** ****** ****** ****** ****** ****** ****** ****** ****** ******
      ****** ****** ****** ****** ****** ****** ****** ****** ****** ******
      ****** ****** ****** ****** ****** ****** ****** ****** ****** ******

 HEAD WILL BE SAVED ON UNIT   51 AT END OF TIME STEP    1, STRESS PERIOD   10
1
  VOLUMETRIC BUDGET FOR ENTIRE MODEL AT END OF TIME STEP    1, STRESS PERIOD  10
  ------------------------------------------------------------------------------

     CUMULATIVE VOLUMES      L**3       RATES FOR THIS TIME STEP      L**3/T
     ------------------                 ------------------------

           IN:                                      IN:
           ---                                      ---
             STORAGE =    32741344.0567               STORAGE =           0.0000
       CONSTANT HEAD =    24159204.3701         CONSTANT HEAD =       29768.7472
               WELLS =           0.0000                 WELLS =           0.0000
            RECHARGE =    23901600.0000              RECHARGE =       55200.0000
      STREAM LEAKAGE =    31014307.4546        STREAM LEAKAGE =       35789.0554

            TOTAL IN =   111816455.8814              TOTAL IN =      120757.8026

          OUT:                                     OUT:
          ----                                     ----
             STORAGE =     2430882.6723               STORAGE =       15824.7695
       CONSTANT HEAD =           0.0000         CONSTANT HEAD =           0.0000
               WELLS =    43835157.1208                 WELLS =       48012.2203
            RECHARGE =           0.0000              RECHARGE =           0.0000
      STREAM LEAKAGE =    65550417.5424        STREAM LEAKAGE =       56920.8098

           TOTAL OUT =   111816457.3355             TOTAL OUT =      120757.7996

            IN - OUT =          -1.4542              IN - OUT =       3.0420E-03

 PERCENT DISCREPANCY =          -0.00     PERCENT DISCREPANCY =           0.00






         TIME SUMMARY AT END OF TIME STEP    1 IN STRESS PERIOD   10
                    SECONDS     MINUTES      HOURS       DAYS        YEARS
                    -----------------------------------------------------------
   TIME STEP LENGTH 7.86240E+06 1.31040E+05  2184.0      91.000     0.24914    
 STRESS PERIOD TIME 7.86240E+06 1.31040E+05  2184.0      91.000     0.24914    
         TOTAL TIME 7.88832E+07 1.31472E+06  21912.      913.00      2.4997    
1
1
                            STRESS PERIOD NO.   11, LENGTH =   91.00000    
                            -----------------------------------------------

                              NUMBER OF TIME STEPS =     1

                               MULTIPLIER FOR DELT =     1.500

                            INITIAL TIME STEP SIZE =   91.00000    

 WELL NO.  LAYER   ROW   COL   STRESS RATE         
 --------------------------------------------------
      1      1     17     29     -0.1404E+05
      2      1     18     28     -0.1091E+05
      3      1     12     29      -8101.    
      4      1     19     29     -0.1496E+05

      4 WELLS

                 RECHARGE =   0.00000    

 REUSING STREAM SEGMENT DATA FROM LAST STRESS PERIOD
 
 SOLVING FOR HEAD 


     7 CALLS TO PCG ROUTINE FOR TIME STEP   1 IN STRESS PERIOD   11
    26 TOTAL ITERATIONS

 OUTPUT CONTROL FOR STRESS PERIOD   11   TIME STEP    1
    SAVE BUDGET
    SAVE HEAD FOR ALL LAYERS
    PRINT HEAD FOR ALL LAYERS
 UBDSV2 SAVING "STREAMFLOW OUT  " ON UNIT  50 AT TIME STEP  1, STRESS PERIOD  11



 STREAM LISTING     PERIOD     11   STEP        1

 LAYER ROW COL. STREAM  RCH.  FLOW INTO     FLOW TO   FLOW OUT OF   OVRLND.     DIRECT     STREAM       STREAM     STREAM     STREAM   STREAMBED  STREAMBED
                SEG.NO.  NO.  STRM. RCH.    AQUIFER    STRM. RCH.    RUNOFF     PRECIP       ET          HEAD       DEPTH      WIDTH   CONDCTNC.   GRADIENT

   1   13    1     1     1    1.0000E+05 -1.5890E+03   1.0159E+05  0.000E+00  0.000E+00  0.000E+00  4.84067E+01  1.453E-01  2.000E+01  2.000E+04 -7.945E-02
   1   13    2     1     2    1.0159E+05 -2.5224E+03   1.0411E+05  0.000E+00  0.000E+00  0.000E+00  4.79312E+01  1.471E-01  2.000E+01  2.000E+04 -1.261E-01
   1   14    3     1     3    1.0411E+05 -3.6906E+02   1.0448E+05  0.000E+00  0.000E+00  0.000E+00  4.74552E+01  1.483E-01  2.000E+01  2.000E+04 -1.845E-02
   1   15    4     1     4    1.0448E+05 -3.4065E+02   1.0482E+05  0.000E+00  0.000E+00  0.000E+00  4.69782E+01  1.487E-01  2.000E+01  2.000E+04 -1.703E-02
   1   16    5     1     5    1.0482E+05 -1.4067E+03   1.0623E+05  0.000E+00  0.000E+00  0.000E+00  4.65017E+01  1.494E-01  2.000E+01  2.000E+04 -7.034E-02
   1   16    6     1     6    1.0623E+05 -8.9426E+02   1.0712E+05  0.000E+00  0.000E+00  0.000E+00  4.60254E+01  1.504E-01  2.000E+01  2.000E+04 -4.471E-02
   1   16    7     1     7    1.0712E+05 -8.8267E+02   1.0800E+05  0.000E+00  0.000E+00  0.000E+00  4.55488E+01  1.511E-01  2.000E+01  2.000E+04 -4.413E-02
   1   16    8     1     8    1.0800E+05 -8.8262E+02   1.0889E+05  0.000E+00  0.000E+00  0.000E+00  4.50723E+01  1.519E-01  2.000E+01  2.000E+04 -4.413E-02
   1   16    9     1     9    1.0889E+05 -8.7881E+02   1.0977E+05  0.000E+00  0.000E+00  0.000E+00  4.45958E+01  1.526E-01  2.000E+01  2.000E+04 -4.394E-02
   1   16   10     1    10    1.0977E+05 -8.7121E+02   1.1064E+05  0.000E+00  0.000E+00  0.000E+00  4.41192E+01  1.533E-01  2.000E+01  2.000E+04 -4.356E-02
   1   16   11     1    11    1.1064E+05 -8.7774E+02   1.1152E+05  0.000E+00  0.000E+00  0.000E+00  4.36427E+01  1.541E-01  2.000E+01  2.000E+04 -4.389E-02
   1   16   12     1    12    1.1152E+05 -1.5031E+03   1.1302E+05  0.000E+00  0.000E+00  0.000E+00  4.31664E+01  1.551E-01  2.000E+01  2.000E+04 -7.516E-02
   1   15   13     1    13    1.1302E+05 -1.4074E+03   1.1443E+05  0.000E+00  0.000E+00  0.000E+00  4.26903E+01  1.563E-01  2.000E+01  2.000E+04 -7.037E-02
   1   14   14     1    14    1.1443E+05 -1.6807E+03   1.1611E+05  0.000E+00  0.000E+00  0.000E+00  4.22143E+01  1.575E-01  2.000E+01  2.000E+04 -8.404E-02
   1   13   15     1    15    1.1611E+05 -2.0003E+03   1.1811E+05  0.000E+00  0.000E+00  0.000E+00  4.17386E+01  1.590E-01  2.000E+01  2.000E+04 -1.000E-01
   1   12   16     1    16    1.1811E+05 -2.6789E+03   1.2079E+05  0.000E+00  0.000E+00  0.000E+00  4.12632E+01  1.609E-01  2.000E+01  2.000E+04 -1.339E-01
   1   12   17     1    17    1.2079E+05 -1.7330E+03   1.2252E+05  0.000E+00  0.000E+00  0.000E+00  4.07877E+01  1.627E-01  2.000E+01  2.000E+04 -8.665E-02
   1   12   18     1    18    1.2252E+05 -1.6526E+03   1.2417E+05  0.000E+00  0.000E+00  0.000E+00  4.03118E+01  1.641E-01  2.000E+01  2.000E+04 -8.263E-02
   1   12   19     1    19    1.2417E+05 -2.1798E+03   1.2635E+05  0.000E+00  0.000E+00  0.000E+00  3.98360E+01  1.656E-01  2.000E+01  2.000E+04 -1.090E-01
   1   13   20     1    20    1.2635E+05 -1.5360E+03   1.2789E+05  0.000E+00  0.000E+00  0.000E+00  3.93602E+01  1.671E-01  2.000E+01  2.000E+04 -7.680E-02
   1   14   21     1    21    1.2789E+05 -1.2502E+03   1.2914E+05  0.000E+00  0.000E+00  0.000E+00  3.88841E+01  1.681E-01  2.000E+01  2.000E+04 -6.251E-02
   1   14   22     1    22    1.2914E+05  5.0237E+03   1.2411E+05  0.000E+00  0.000E+00  0.000E+00  3.84053E+01  1.667E-01  2.000E+01  2.000E+04  2.512E-01
   1    9   30     2     1    5.0000E+04  9.2967E+02   4.9070E+04  0.000E+00  0.000E+00  0.000E+00  4.02402E+01  1.152E-01  2.000E+01  2.000E+04  4.648E-02
   1    9   29     2     2    4.9070E+04  5.7167E+02   4.8499E+04  0.000E+00  0.000E+00  0.000E+00  3.99892E+01  1.142E-01  2.000E+01  2.000E+04  2.858E-02
   1    9   28     2     3    4.8499E+04 -1.6135E+01   4.8515E+04  0.000E+00  0.000E+00  0.000E+00  3.97388E+01  1.138E-01  2.000E+01  2.000E+04 -8.067E-04
   1    9   27     2     4    4.8515E+04 -1.6544E+03   5.0169E+04  0.000E+00  0.000E+00  0.000E+00  3.94899E+01  1.149E-01  2.000E+01  2.000E+04 -8.272E-02
   1   10   26     2     5    5.0169E+04 -3.4172E+02   5.0511E+04  0.000E+00  0.000E+00  0.000E+00  3.92413E+01  1.163E-01  2.000E+01  2.000E+04 -1.709E-02
   1   11   25     2     6    5.0511E+04 -4.0403E+02   5.0915E+04  0.000E+00  0.000E+00  0.000E+00  3.89919E+01  1.169E-01  2.000E+01  2.000E+04 -2.020E-02
   1   12   24     2     7    5.0915E+04 -1.0117E+03   5.1927E+04  0.000E+00  0.000E+00  0.000E+00  3.87428E+01  1.178E-01  2.000E+01  2.000E+04 -5.059E-02
   1   13   23     2     8    5.1927E+04 -1.7633E+02   5.2103E+04  0.000E+00  0.000E+00  0.000E+00  3.84936E+01  1.186E-01  2.000E+01  2.000E+04 -8.817E-03
   1   14   22     2     9    5.2103E+04  1.7688E+03   5.0334E+04  0.000E+00  0.000E+00  0.000E+00  3.82426E+01  1.176E-01  2.000E+01  2.000E+04  8.844E-02
   1   14   22     3     1    1.7445E+05 -8.5698E+03   1.8302E+05  0.000E+00  0.000E+00  0.000E+00  3.77256E+01  1.701E-01  2.000E+01  2.000E+04 -4.285E-01
   1   15   23     3     2    1.8302E+05 -4.0270E+02   1.8342E+05  0.000E+00  0.000E+00  0.000E+00  3.68393E+01  1.726E-01  2.000E+01  2.000E+04 -2.013E-02
   1   15   24     3     3    1.8342E+05 -1.5453E+02   1.8357E+05  0.000E+00  0.000E+00  0.000E+00  3.59506E+01  1.728E-01  2.000E+01  2.000E+04 -7.727E-03
   1   15   25     3     4    1.8357E+05 -1.1195E+02   1.8369E+05  0.000E+00  0.000E+00  0.000E+00  3.50617E+01  1.728E-01  2.000E+01  2.000E+04 -5.597E-03
   1   15   26     3     5    1.8369E+05  4.5007E+01   1.8364E+05  0.000E+00  0.000E+00  0.000E+00  3.41729E+01  1.729E-01  2.000E+01  2.000E+04  2.250E-03
   1   16   27     3     6    1.8364E+05  4.3294E+02   1.8321E+05  0.000E+00  0.000E+00  0.000E+00  3.32838E+01  1.727E-01  2.000E+01  2.000E+04  2.165E-02
   1   17   28     3     7    1.8321E+05  1.1211E+04   1.7200E+05  0.000E+00  0.000E+00  0.000E+00  3.23916E+01  1.694E-01  2.000E+01  2.000E+04  5.606E-01
   1   18   29     3     8    1.7200E+05  1.4899E+04   1.5710E+05  0.000E+00  0.000E+00  0.000E+00  3.14952E+01  1.618E-01  2.000E+01  2.000E+04  7.449E-01
   1   18   30     3     9    1.5710E+05  4.2249E+03   1.5287E+05  0.000E+00  0.000E+00  0.000E+00  3.06006E+01  1.561E-01  2.000E+01  2.000E+04  2.112E-01



1
              HEAD IN LAYER   1 AT END OF TIME STEP   1 IN STRESS PERIOD   11
  ---------------------------------------------------------------------------

          1      2      3      4      5      6      7      8      9     10
         11     12     13     14     15     16     17     18     19     20
         21     22     23     24     25     26     27     28     29     30
 .........................................................................
   1  ****** ****** ****** ****** ****** ****** ****** ****** ****** ******
      ****** ****** ****** ****** ****** ****** ****** ****** ****** ******
      ****** ****** ****** ****** ****** ****** ****** ****** ****** ******
   2  ****** ****** ****** ****** ****** ****** ****** ****** ****** ******
      ****** ****** ****** ****** ****** ****** ****** ****** ****** ******
      ****** ****** ****** ****** ****** ****** ****** ****** ****** ******
   3  ****** ****** ****** ****** ****** ****** ****** ****** ****** ******
      ****** ****** ****** ****** ****** ****** ****** ****** ****** ******
      ****** ****** ****** ****** ****** ****** ****** ****** ****** ******
   4  ****** ****** ****** ****** ****** ****** ****** ****** ****** ******
      ****** ****** ****** ****** ****** ****** ****** ****** ****** ******
      ****** ****** ****** ****** ****** ****** ****** ****** ****** ******
   5  ****** ****** ****** ****** ****** ****** ****** ****** ****** ******
      ****** ****** ****** ****** ****** ****** ****** ****** ****** ******
      ****** ****** ****** ****** ****** ****** ****** ****** ****** ******
   6  ****** ****** ****** ****** ****** ****** ****** ****** ****** ******
      ****** ****** ****** ****** ****** ****** ****** ****** ****** ******
      ****** ****** ****** ****** ****** ****** ****** ****** ****** ******
   7  ****** ****** ****** ****** ****** ****** ****** ****** ****** ******
      ****** ****** ****** ****** ****** ****** ****** ****** ****** ******
      ****** ****** ****** ****** ****** ****** ****** ****** ****** ******
   8  ****** ****** ****** ****** ****** ****** ****** ****** ****** ******
      ****** ****** ****** ****** ****** ****** ****** ****** ****** ******
      ****** ****** ****** ****** ****** ****** ****** ****** ****** ******
   9  ****** ****** ****** ****** ****** ****** ****** ****** ****** ******
      ****** ****** ****** ****** ****** ****** ****** ****** ****** ******
      ****** ****** ****** ****** ****** ****** ****** ****** ****** ******
  10  ****** ****** ****** ****** ****** ****** ****** ****** ****** ******
      ****** ****** ****** ****** ****** ****** ****** ****** ****** ******
      ****** ****** ****** ****** ****** ****** ****** ****** ****** ******
  11  ****** ****** ****** ****** ****** ****** ****** ****** ****** ******
      ****** ****** ****** ****** ****** ****** ****** ****** ****** ******
      ****** ****** ****** ****** ****** ****** ****** ****** ****** ******
  12  ****** ****** ****** ****** ****** ****** ****** ****** ****** ******
      ****** ****** ****** ****** ****** ****** ****** ****** ****** ******
      ****** ****** ****** ****** ****** ****** ****** ****** ****** ******
  13  ****** ****** ****** ****** ****** ****** ****** ****** ****** ******
      ****** ****** ****** ****** ****** ****** ****** ****** ****** ******
      ****** ****** ****** ****** ****** ****** ****** ****** ****** ******
  14  ****** ****** ****** ****** ****** ****** ****** ****** ****** ******
      ****** ****** ****** ****** ****** ****** ****** ****** ****** ******
      ****** ****** ****** ****** ****** ****** ****** ****** ****** ******
  15  ****** ****** ****** ****** ****** ****** ****** ****** ****** ******
      ****** ****** ****** ****** ****** ****** ****** ****** ****** ******
      ****** ****** ****** ****** ****** ****** ****** ****** ****** ******
  16  ****** ****** ****** ****** ****** ****** ****** ****** ****** ******
      ****** ****** ****** ****** ****** ****** ****** ****** ****** ******
      ****** ****** ****** ****** ****** ****** ****** ****** ****** ******
  17  ****** ****** ****** ****** ****** ****** ****** ****** ****** ******
      ****** ****** ****** ****** ****** ****** ****** ****** ****** ******
      ****** ****** ****** ****** ****** ****** ****** ****** ****** ******
  18  ****** ****** ****** ****** ****** ****** ****** ****** ****** ******
      ****** ****** ****** ****** ****** ****** ****** ****** ****** ******
      ****** ****** ****** ****** ****** ****** ****** ****** ****** ******
  19  ****** ****** ****** ****** ****** ****** ****** ****** ****** ******
      ****** ****** ****** ****** ****** ****** ****** ****** ****** ******
      ****** ****** ****** ****** ****** ****** ****** ****** ****** ******
  20  ****** ****** ****** ****** ****** ****** ****** ****** ****** ******
      ****** ****** ****** ****** ****** ****** ****** ****** ****** ******
      ****** ****** ****** ****** ****** ****** ****** ****** ****** ******
  21  ****** ****** ****** ****** ****** ****** ****** ****** ****** ******
      ****** ****** ****** ****** ****** ****** ****** ****** ****** ******
      ****** ****** ****** ****** ****** ****** ****** ****** ****** ******
  22  ****** ****** ****** ****** ****** ****** ****** ****** ****** ******
      ****** ****** ****** ****** ****** ****** ****** ****** ****** ******
      ****** ****** ****** ****** ****** ****** ****** ****** ****** ******
  23  ****** ****** ****** ****** ****** ****** ****** ****** ****** ******
      ****** ****** ****** ****** ****** ****** ****** ****** ****** ******
      ****** ****** ****** ****** ****** ****** ****** ****** ****** ******
  24  ****** ****** ****** ****** ****** ****** ****** ****** ****** ******
      ****** ****** ****** ****** ****** ****** ****** ****** ****** ******
      ****** ****** ****** ****** ****** ****** ****** ****** ****** ******
  25  ****** ****** ****** ****** ****** ****** ****** ****** ****** ******
      ****** ****** ****** ****** ****** ****** ****** ****** ****** ******
      ****** ****** ****** ****** ****** ****** ****** ****** ****** ******

 HEAD WILL BE SAVED ON UNIT   51 AT END OF TIME STEP    1, STRESS PERIOD   11
1
  VOLUMETRIC BUDGET FOR ENTIRE MODEL AT END OF TIME STEP    1, STRESS PERIOD  11
  ------------------------------------------------------------------------------

     CUMULATIVE VOLUMES      L**3       RATES FOR THIS TIME STEP      L**3/T
     ------------------                 ------------------------

           IN:                                      IN:
           ---                                      ---
             STORAGE =    34365022.5422               STORAGE =       17842.6207
       CONSTANT HEAD =    27166167.3672         CONSTANT HEAD =       33043.5494
               WELLS =           0.0000                 WELLS =           0.0000
            RECHARGE =    23901600.0000              RECHARGE =           0.0000
      STREAM LEAKAGE =    34573005.4004        STREAM LEAKAGE =       39106.5708

            TOTAL IN =   120005795.3099              TOTAL IN =       89992.7410

          OUT:                                     OUT:
          ----                                     ----
             STORAGE =     2430882.6723               STORAGE =           0.0000
       CONSTANT HEAD =           0.0000         CONSTANT HEAD =           0.0000
               WELLS =    48204269.1668                 WELLS =       48012.2203
            RECHARGE =           0.0000              RECHARGE =           0.0000
      STREAM LEAKAGE =    69370645.3291        STREAM LEAKAGE =       41980.5251

           TOTAL OUT =   120005797.1682             TOTAL OUT =       89992.7454

            IN - OUT =          -1.8584              IN - OUT =      -4.4414E-03

 PERCENT DISCREPANCY =          -0.00     PERCENT DISCREPANCY =          -0.00






         TIME SUMMARY AT END OF TIME STEP    1 IN STRESS PERIOD   11
                    SECONDS     MINUTES      HOURS       DAYS        YEARS
                    -----------------------------------------------------------
   TIME STEP LENGTH 7.86240E+06 1.31040E+05  2184.0      91.000     0.24914    
 STRESS PERIOD TIME 7.86240E+06 1.31040E+05  2184.0      91.000     0.24914    
         TOTAL TIME 8.67456E+07 1.44576E+06  24096.      1004.0      2.7488    
1
1
                            STRESS PERIOD NO.   12, LENGTH =   91.00000    
                            -----------------------------------------------

                              NUMBER OF TIME STEPS =     1

                               MULTIPLIER FOR DELT =     1.500

                            INITIAL TIME STEP SIZE =   91.00000    

 WELL NO.  LAYER   ROW   COL   STRESS RATE         
 --------------------------------------------------
      1      1     17     29     -0.1404E+05
      2      1     18     28     -0.1091E+05
      3      1     12     29      -8101.    
      4      1     19     29     -0.1496E+05

      4 WELLS

                 RECHARGE =  1.000000E-03

 REUSING STREAM SEGMENT DATA FROM LAST STRESS PERIOD
 
 SOLVING FOR HEAD 


     7 CALLS TO PCG ROUTINE FOR TIME STEP   1 IN STRESS PERIOD   12
    24 TOTAL ITERATIONS

 OUTPUT CONTROL FOR STRESS PERIOD   12   TIME STEP    1
    SAVE BUDGET
    SAVE HEAD FOR ALL LAYERS
    PRINT HEAD FOR ALL LAYERS
 UBDSV2 SAVING "STREAMFLOW OUT  " ON UNIT  50 AT TIME STEP  1, STRESS PERIOD  12



 STREAM LISTING     PERIOD     12   STEP        1

 LAYER ROW COL. STREAM  RCH.  FLOW INTO     FLOW TO   FLOW OUT OF   OVRLND.     DIRECT     STREAM       STREAM     STREAM     STREAM   STREAMBED  STREAMBED
                SEG.NO.  NO.  STRM. RCH.    AQUIFER    STRM. RCH.    RUNOFF     PRECIP       ET          HEAD       DEPTH      WIDTH   CONDCTNC.   GRADIENT

   1   13    1     1     1    1.0000E+05 -1.7353E+03   1.0174E+05  0.000E+00  0.000E+00  0.000E+00  4.84068E+01  1.454E-01  2.000E+01  2.000E+04 -8.677E-02
   1   13    2     1     2    1.0174E+05 -2.6800E+03   1.0442E+05  0.000E+00  0.000E+00  0.000E+00  4.79314E+01  1.473E-01  2.000E+01  2.000E+04 -1.340E-01
   1   14    3     1     3    1.0442E+05 -4.4799E+02   1.0486E+05  0.000E+00  0.000E+00  0.000E+00  4.74555E+01  1.486E-01  2.000E+01  2.000E+04 -2.240E-02
   1   15    4     1     4    1.0486E+05 -4.2331E+02   1.0529E+05  0.000E+00  0.000E+00  0.000E+00  4.69786E+01  1.490E-01  2.000E+01  2.000E+04 -2.117E-02
   1   16    5     1     5    1.0529E+05 -1.6168E+03   1.0690E+05  0.000E+00  0.000E+00  0.000E+00  4.65022E+01  1.499E-01  2.000E+01  2.000E+04 -8.084E-02
   1   16    6     1     6    1.0690E+05 -1.0250E+03   1.0793E+05  0.000E+00  0.000E+00  0.000E+00  4.60260E+01  1.510E-01  2.000E+01  2.000E+04 -5.125E-02
   1   16    7     1     7    1.0793E+05 -1.0084E+03   1.0894E+05  0.000E+00  0.000E+00  0.000E+00  4.55496E+01  1.519E-01  2.000E+01  2.000E+04 -5.042E-02
   1   16    8     1     8    1.0894E+05 -1.0073E+03   1.0994E+05  0.000E+00  0.000E+00  0.000E+00  4.50732E+01  1.527E-01  2.000E+01  2.000E+04 -5.036E-02
   1   16    9     1     9    1.0994E+05 -1.0038E+03   1.1095E+05  0.000E+00  0.000E+00  0.000E+00  4.45967E+01  1.535E-01  2.000E+01  2.000E+04 -5.019E-02
   1   16   10     1    10    1.1095E+05 -9.9750E+02   1.1195E+05  0.000E+00  0.000E+00  0.000E+00  4.41203E+01  1.544E-01  2.000E+01  2.000E+04 -4.987E-02
   1   16   11     1    11    1.1195E+05 -1.0062E+03   1.1295E+05  0.000E+00  0.000E+00  0.000E+00  4.36438E+01  1.552E-01  2.000E+01  2.000E+04 -5.031E-02
   1   16   12     1    12    1.1295E+05 -1.7051E+03   1.1466E+05  0.000E+00  0.000E+00  0.000E+00  4.31677E+01  1.563E-01  2.000E+01  2.000E+04 -8.525E-02
   1   15   13     1    13    1.1466E+05 -1.6251E+03   1.1628E+05  0.000E+00  0.000E+00  0.000E+00  4.26918E+01  1.577E-01  2.000E+01  2.000E+04 -8.126E-02
   1   14   14     1    14    1.1628E+05 -1.8994E+03   1.1818E+05  0.000E+00  0.000E+00  0.000E+00  4.22159E+01  1.591E-01  2.000E+01  2.000E+04 -9.497E-02
   1   13   15     1    15    1.1818E+05 -2.2120E+03   1.2039E+05  0.000E+00  0.000E+00  0.000E+00  4.17403E+01  1.608E-01  2.000E+01  2.000E+04 -1.106E-01
   1   12   16     1    16    1.2039E+05 -2.8646E+03   1.2326E+05  0.000E+00  0.000E+00  0.000E+00  4.12651E+01  1.628E-01  2.000E+01  2.000E+04 -1.432E-01
   1   12   17     1    17    1.2326E+05 -1.8876E+03   1.2515E+05  0.000E+00  0.000E+00  0.000E+00  4.07897E+01  1.647E-01  2.000E+01  2.000E+04 -9.438E-02
   1   12   18     1    18    1.2515E+05 -1.8091E+03   1.2695E+05  0.000E+00  0.000E+00  0.000E+00  4.03139E+01  1.662E-01  2.000E+01  2.000E+04 -9.046E-02
   1   12   19     1    19    1.2695E+05 -2.3734E+03   1.2933E+05  0.000E+00  0.000E+00  0.000E+00  3.98383E+01  1.679E-01  2.000E+01  2.000E+04 -1.187E-01
   1   13   20     1    20    1.2933E+05 -1.7468E+03   1.3107E+05  0.000E+00  0.000E+00  0.000E+00  3.93627E+01  1.695E-01  2.000E+01  2.000E+04 -8.734E-02
   1   14   21     1    21    1.3107E+05 -1.4445E+03   1.3252E+05  0.000E+00  0.000E+00  0.000E+00  3.88866E+01  1.707E-01  2.000E+01  2.000E+04 -7.222E-02
   1   14   22     1    22    1.3252E+05  4.9696E+03   1.2755E+05  0.000E+00  0.000E+00  0.000E+00  3.84080E+01  1.693E-01  2.000E+01  2.000E+04  2.485E-01
   1    9   30     2     1    5.0000E+04  7.5302E+02   4.9247E+04  0.000E+00  0.000E+00  0.000E+00  4.02403E+01  1.153E-01  2.000E+01  2.000E+04  3.765E-02
   1    9   29     2     2    4.9247E+04  3.9705E+02   4.8850E+04  0.000E+00  0.000E+00  0.000E+00  3.99895E+01  1.145E-01  2.000E+01  2.000E+04  1.985E-02
   1    9   28     2     3    4.8850E+04 -1.8728E+02   4.9037E+04  0.000E+00  0.000E+00  0.000E+00  3.97394E+01  1.144E-01  2.000E+01  2.000E+04 -9.364E-03
   1    9   27     2     4    4.9037E+04 -1.8642E+03   5.0901E+04  0.000E+00  0.000E+00  0.000E+00  3.94908E+01  1.158E-01  2.000E+01  2.000E+04 -9.321E-02
   1   10   26     2     5    5.0901E+04 -5.7208E+02   5.1473E+04  0.000E+00  0.000E+00  0.000E+00  3.92425E+01  1.175E-01  2.000E+01  2.000E+04 -2.860E-02
   1   11   25     2     6    5.1473E+04 -6.3046E+02   5.2104E+04  0.000E+00  0.000E+00  0.000E+00  3.89933E+01  1.183E-01  2.000E+01  2.000E+04 -3.152E-02
   1   12   24     2     7    5.2104E+04 -1.2184E+03   5.3322E+04  0.000E+00  0.000E+00  0.000E+00  3.87446E+01  1.196E-01  2.000E+01  2.000E+04 -6.092E-02
   1   13   23     2     8    5.3322E+04 -2.5404E+02   5.3576E+04  0.000E+00  0.000E+00  0.000E+00  3.84956E+01  1.206E-01  2.000E+01  2.000E+04 -1.270E-02
   1   14   22     2     9    5.3576E+04  1.7024E+03   5.1874E+04  0.000E+00  0.000E+00  0.000E+00  3.82446E+01  1.196E-01  2.000E+01  2.000E+04  8.512E-02
   1   14   22     3     1    1.7942E+05 -8.6206E+03   1.8804E+05  0.000E+00  0.000E+00  0.000E+00  3.77285E+01  1.729E-01  2.000E+01  2.000E+04 -4.310E-01
   1   15   23     3     2    1.8804E+05 -4.7474E+02   1.8852E+05  0.000E+00  0.000E+00  0.000E+00  3.68421E+01  1.755E-01  2.000E+01  2.000E+04 -2.374E-02
   1   15   24     3     3    1.8852E+05 -2.1963E+02   1.8874E+05  0.000E+00  0.000E+00  0.000E+00  3.59534E+01  1.757E-01  2.000E+01  2.000E+04 -1.098E-02
   1   15   25     3     4    1.8874E+05 -1.7832E+02   1.8892E+05  0.000E+00  0.000E+00  0.000E+00  3.50647E+01  1.758E-01  2.000E+01  2.000E+04 -8.916E-03
   1   15   26     3     5    1.8892E+05 -3.2492E+01   1.8895E+05  0.000E+00  0.000E+00  0.000E+00  3.41758E+01  1.758E-01  2.000E+01  2.000E+04 -1.625E-03
   1   16   27     3     6    1.8895E+05  3.4614E+02   1.8860E+05  0.000E+00  0.000E+00  0.000E+00  3.32869E+01  1.757E-01  2.000E+01  2.000E+04  1.731E-02
   1   17   28     3     7    1.8860E+05  1.0991E+04   1.7761E+05  0.000E+00  0.000E+00  0.000E+00  3.23948E+01  1.726E-01  2.000E+01  2.000E+04  5.495E-01
   1   18   29     3     8    1.7761E+05  1.4698E+04   1.6291E+05  0.000E+00  0.000E+00  0.000E+00  3.14985E+01  1.652E-01  2.000E+01  2.000E+04  7.349E-01
   1   18   30     3     9    1.6291E+05  4.0569E+03   1.5886E+05  0.000E+00  0.000E+00  0.000E+00  3.06041E+01  1.597E-01  2.000E+01  2.000E+04  2.028E-01



1
              HEAD IN LAYER   1 AT END OF TIME STEP   1 IN STRESS PERIOD   12
  ---------------------------------------------------------------------------

          1      2      3      4      5      6      7      8      9     10
         11     12     13     14     15     16     17     18     19     20
         21     22     23     24     25     26     27     28     29     30
 .........................................................................
   1  ****** ****** ****** ****** ****** ****** ****** ****** ****** ******
      ****** ****** ****** ****** ****** ****** ****** ****** ****** ******
      ****** ****** ****** ****** ****** ****** ****** ****** ****** ******
   2  ****** ****** ****** ****** ****** ****** ****** ****** ****** ******
      ****** ****** ****** ****** ****** ****** ****** ****** ****** ******
      ****** ****** ****** ****** ****** ****** ****** ****** ****** ******
   3  ****** ****** ****** ****** ****** ****** ****** ****** ****** ******
      ****** ****** ****** ****** ****** ****** ****** ****** ****** ******
      ****** ****** ****** ****** ****** ****** ****** ****** ****** ******
   4  ****** ****** ****** ****** ****** ****** ****** ****** ****** ******
      ****** ****** ****** ****** ****** ****** ****** ****** ****** ******
      ****** ****** ****** ****** ****** ****** ****** ****** ****** ******
   5  ****** ****** ****** ****** ****** ****** ****** ****** ****** ******
      ****** ****** ****** ****** ****** ****** ****** ****** ****** ******
      ****** ****** ****** ****** ****** ****** ****** ****** ****** ******
   6  ****** ****** ****** ****** ****** ****** ****** ****** ****** ******
      ****** ****** ****** ****** ****** ****** ****** ****** ****** ******
      ****** ****** ****** ****** ****** ****** ****** ****** ****** ******
   7  ****** ****** ****** ****** ****** ****** ****** ****** ****** ******
      ****** ****** ****** ****** ****** ****** ****** ****** ****** ******
      ****** ****** ****** ****** ****** ****** ****** ****** ****** ******
   8  ****** ****** ****** ****** ****** ****** ****** ****** ****** ******
      ****** ****** ****** ****** ****** ****** ****** ****** ****** ******
      ****** ****** ****** ****** ****** ****** ****** ****** ****** ******
   9  ****** ****** ****** ****** ****** ****** ****** ****** ****** ******
      ****** ****** ****** ****** ****** ****** ****** ****** ****** ******
      ****** ****** ****** ****** ****** ****** ****** ****** ****** ******
  10  ****** ****** ****** ****** ****** ****** ****** ****** ****** ******
      ****** ****** ****** ****** ****** ****** ****** ****** ****** ******
      ****** ****** ****** ****** ****** ****** ****** ****** ****** ******
  11  ****** ****** ****** ****** ****** ****** ****** ****** ****** ******
      ****** ****** ****** ****** ****** ****** ****** ****** ****** ******
      ****** ****** ****** ****** ****** ****** ****** ****** ****** ******
  12  ****** ****** ****** ****** ****** ****** ****** ****** ****** ******
      ****** ****** ****** ****** ****** ****** ****** ****** ****** ******
      ****** ****** ****** ****** ****** ****** ****** ****** ****** ******
  13  ****** ****** ****** ****** ****** ****** ****** ****** ****** ******
      ****** ****** ****** ****** ****** ****** ****** ****** ****** ******
      ****** ****** ****** ****** ****** ****** ****** ****** ****** ******
  14  ****** ****** ****** ****** ****** ****** ****** ****** ****** ******
      ****** ****** ****** ****** ****** ****** ****** ****** ****** ******
      ****** ****** ****** ****** ****** ****** ****** ****** ****** ******
  15  ****** ****** ****** ****** ****** ****** ****** ****** ****** ******
      ****** ****** ****** ****** ****** ****** ****** ****** ****** ******
      ****** ****** ****** ****** ****** ****** ****** ****** ****** ******
  16  ****** ****** ****** ****** ****** ****** ****** ****** ****** ******
      ****** ****** ****** ****** ****** ****** ****** ****** ****** ******
      ****** ****** ****** ****** ****** ****** ****** ****** ****** ******
  17  ****** ****** ****** ****** ****** ****** ****** ****** ****** ******
      ****** ****** ****** ****** ****** ****** ****** ****** ****** ******
      ****** ****** ****** ****** ****** ****** ****** ****** ****** ******
  18  ****** ****** ****** ****** ****** ****** ****** ****** ****** ******
      ****** ****** ****** ****** ****** ****** ****** ****** ****** ******
      ****** ****** ****** ****** ****** ****** ****** ****** ****** ******
  19  ****** ****** ****** ****** ****** ****** ****** ****** ****** ******
      ****** ****** ****** ****** ****** ****** ****** ****** ****** ******
      ****** ****** ****** ****** ****** ****** ****** ****** ****** ******
  20  ****** ****** ****** ****** ****** ****** ****** ****** ****** ******
      ****** ****** ****** ****** ****** ****** ****** ****** ****** ******
      ****** ****** ****** ****** ****** ****** ****** ****** ****** ******
  21  ****** ****** ****** ****** ****** ****** ****** ****** ****** ******
      ****** ****** ****** ****** ****** ****** ****** ****** ****** ******
      ****** ****** ****** ****** ****** ****** ****** ****** ****** ******
  22  ****** ****** ****** ****** ****** ****** ****** ****** ****** ******
      ****** ****** ****** ****** ****** ****** ****** ****** ****** ******
      ****** ****** ****** ****** ****** ****** ****** ****** ****** ******
  23  ****** ****** ****** ****** ****** ****** ****** ****** ****** ******
      ****** ****** ****** ****** ****** ****** ****** ****** ****** ******
      ****** ****** ****** ****** ****** ****** ****** ****** ****** ******
  24  ****** ****** ****** ****** ****** ****** ****** ****** ****** ******
      ****** ****** ****** ****** ****** ****** ****** ****** ****** ******
      ****** ****** ****** ****** ****** ****** ****** ****** ****** ******
  25  ****** ****** ****** ****** ****** ****** ****** ****** ****** ******
      ****** ****** ****** ****** ****** ****** ****** ****** ****** ******
      ****** ****** ****** ****** ****** ****** ****** ****** ****** ******

 HEAD WILL BE SAVED ON UNIT   51 AT END OF TIME STEP    1, STRESS PERIOD   12
1
  VOLUMETRIC BUDGET FOR ENTIRE MODEL AT END OF TIME STEP    1, STRESS PERIOD  12
  ------------------------------------------------------------------------------

     CUMULATIVE VOLUMES      L**3       RATES FOR THIS TIME STEP      L**3/T
     ------------------                 ------------------------

           IN:                                      IN:
           ---                                      ---
             STORAGE =    34365456.7881               STORAGE =           4.7719
       CONSTANT HEAD =    30109075.6202         CONSTANT HEAD =       32339.6511
               WELLS =           0.0000                 WELLS =           0.0000
            RECHARGE =    26413200.0000              RECHARGE =       27600.0000
      STREAM LEAKAGE =    38023153.8372        STREAM LEAKAGE =       37913.7191

            TOTAL IN =   128910886.2455              TOTAL IN =       97858.1421

          OUT:                                     OUT:
          ----                                     ----
             STORAGE =     2710652.6539               STORAGE =        3074.3954
       CONSTANT HEAD =           0.0000         CONSTANT HEAD =           0.0000
               WELLS =    52573381.2128                 WELLS =       48012.2203
            RECHARGE =           0.0000              RECHARGE =           0.0000
      STREAM LEAKAGE =    73626854.1546        STREAM LEAKAGE =       46771.5256

           TOTAL OUT =   128910888.0213             TOTAL OUT =       97858.1412

            IN - OUT =          -1.7759              IN - OUT =       9.0658E-04

 PERCENT DISCREPANCY =          -0.00     PERCENT DISCREPANCY =           0.00






         TIME SUMMARY AT END OF TIME STEP    1 IN STRESS PERIOD   12
                    SECONDS     MINUTES      HOURS       DAYS        YEARS
                    -----------------------------------------------------------
   TIME STEP LENGTH 7.86240E+06 1.31040E+05  2184.0      91.000     0.24914    
 STRESS PERIOD TIME 7.86240E+06 1.31040E+05  2184.0      91.000     0.24914    
         TOTAL TIME 9.46080E+07 1.57680E+06  26280.      1095.0      2.9979    
1

 Run end date and time (yyyy/mm/dd hh:mm:ss): 2019/03/28 22:44:53
 Elapsed run time:  0.174 Seconds

