                                  MODFLOW-2005     
      U.S. GEOLOGICAL SURVEY MODULAR FINITE-DIFFERENCE GROUND-WATER FLOW MODEL
                            VERSION 1.11.00 8/8/2013

 LIST FILE: supply2.lst
                         UNIT   10

 OPENING ..\data\supply.dis
 FILE TYPE:DIS   UNIT   11   STATUS:OLD    
 FORMAT:FORMATTED              ACCESS:SEQUENTIAL          

 OPENING ..\data\supply.ba6
 FILE TYPE:BAS6   UNIT   12   STATUS:OLD    
 FORMAT:FORMATTED              ACCESS:SEQUENTIAL          

 OPENING ..\data\supply.bc6
 FILE TYPE:BCF6   UNIT   13   STATUS:OLD    
 FORMAT:FORMATTED              ACCESS:SEQUENTIAL          

 OPENING ..\data\supply.rch
 FILE TYPE:RCH   UNIT   15   STATUS:OLD    
 FORMAT:FORMATTED              ACCESS:SEQUENTIAL          

 OPENING ..\data\supply2.sfr
 FILE TYPE:SFR   UNIT   16   STATUS:OLD    
 FORMAT:FORMATTED              ACCESS:SEQUENTIAL          

 OPENING ..\data\supply.oc
 FILE TYPE:OC   UNIT   17   STATUS:OLD    
 FORMAT:FORMATTED              ACCESS:SEQUENTIAL          

 OPENING ..\data\supply.pcg
 FILE TYPE:PCG   UNIT   18   STATUS:OLD    
 FORMAT:FORMATTED              ACCESS:SEQUENTIAL          

 OPENING supply2.wel
 FILE TYPE:WEL   UNIT   19   STATUS:OLD    
 FORMAT:FORMATTED              ACCESS:SEQUENTIAL          

 OPENING supply2sf.cbc
 FILE TYPE:DATA(BINARY)   UNIT   50   STATUS:UNKNOWN
 FORMAT:BINARY                 ACCESS:SEQUENTIAL          

 OPENING supply2hd.bhd
 FILE TYPE:DATA(BINARY)   UNIT   51   STATUS:UNKNOWN
 FORMAT:BINARY                 ACCESS:SEQUENTIAL          

 BAS -- BASIC PACKAGE, VERSION 7, 5/2/2005 INPUT READ FROM UNIT   12
 
 MODFLOW was compiled using uniform precision
 Precision of REAL and DOUBLE PRECISION variables:          15

 DISCRETIZATION INPUT DATA READ FROM UNIT   11
    1 LAYERS        25 ROWS        30 COLUMNS
   12 STRESS PERIOD(S) IN SIMULATION
 MODEL TIME UNIT IS DAYS
 MODEL LENGTH UNIT IS UNDEFINED
  Confining bed flag for each layer:
   0

                     DELR =   200.000    

                     DELC =   200.000    

 TOP ELEVATION OF LAYER 1 =  100.0000    

   MODEL LAYER BOTTOM EL. =   0.00000     FOR LAYER   1


 STRESS PERIOD     LENGTH       TIME STEPS     MULTIPLIER FOR DELT    SS FLAG
 ----------------------------------------------------------------------------
        1         92.00000          1                    1.500         TR
        2         91.00000          1                    1.500         TR
        3         91.00000          1                    1.500         TR
        4         91.00000          1                    1.500         TR
        5         92.00000          1                    1.500         TR
        6         91.00000          1                    1.500         TR
        7         91.00000          1                    1.500         TR
        8         91.00000          1                    1.500         TR
        9         92.00000          1                    1.500         TR
       10         91.00000          1                    1.500         TR
       11         91.00000          1                    1.500         TR
       12         91.00000          1                    1.500         TR

 TRANSIENT SIMULATION



 
 #MODOFC transient water supply sample problem                                   
 #                                                                               
 THE FREE FORMAT OPTION HAS BEEN SELECTED



                     BOUNDARY ARRAY FOR LAYER   1
 READING ON UNIT   12 WITH FORMAT: (20I4)              

 AQUIFER HEAD WILL BE SET TO   0.0000     AT ALL NO-FLOW NODES (IBOUND=0).



                       INITIAL HEAD FOR LAYER   1
 READING ON UNIT   12 WITH FORMAT: (10F13.0)           

 OUTPUT CONTROL IS SPECIFIED ONLY AT TIME STEPS FOR WHICH OUTPUT IS DESIRED
 COMPACT CELL-BY-CELL BUDGET FILES WILL BE WRITTEN
 HEAD PRINT FORMAT CODE IS  18    DRAWDOWN PRINT FORMAT CODE IS   0
 HEADS WILL BE SAVED ON UNIT   51    DRAWDOWNS WILL BE SAVED ON UNIT    0

 BCF -- BLOCK-CENTERED FLOW PACKAGE, VERSION 7, 5/2/2005
         INPUT READ FROM UNIT 13
 TRANSIENT SIMULATION
 HEAD AT CELLS THAT CONVERT TO DRY=   0.0000    
 WETTING CAPABILITY IS NOT ACTIVE
      LAYER  LAYER-TYPE CODE     INTERBLOCK T
      --------------------------------------------
         1            0          0 -- HARMONIC    

 COLUMN TO ROW ANISOTROPY =  1.000000    

     PRIMARY STORAGE COEF =  5.000000E-02 FOR LAYER   1

     TRANSMIS. ALONG ROWS =   500.000     FOR LAYER   1

 WEL -- WELL PACKAGE, VERSION 7, 5/2/2005 INPUT READ FROM UNIT   19
 # Well package input file written by MMProc
 No named parameters
 MAXIMUM OF      4 ACTIVE WELLS AT ONE TIME


     0 Well parameters

 RCH -- RECHARGE PACKAGE, VERSION 7, 5/2/2005 INPUT READ FROM UNIT   15
 No named parameters
 OPTION 1 -- RECHARGE TO TOP LAYER


     0 Recharge parameters

 SFR7 -- STREAMFLOW ROUTING PACKAGE, VERSION 1.0.7, 2013-01-15
         INPUT READ FROM UNIT  16
 #  Supply2 test problem for GWM-VI
 #  The eighth entry in the first data line is ISTCB2 -
 #    Setting this to a negative number indicates that
 #    streamflows out of the reach will be saved to a
 #    binary file.  The absolute value of ISTCB2 is the
 #    unit to which unformatted flows will be written.
 #
 No named parameters
 Segment information will not be 
 read by reach
 No named parameters
 No specifed inflow files


 NUMBER OF STREAM REACHES IS   40

 NUMBER OF STREAM SEGMENTS IS    3

 NUMBER OF STREAM PARAMETERS IS    0

 NUMBER OF STREAM SEGMENTS DEFINED USING PARAMETERS IS              0

 MAXIMUM ERROR FOR STREAM LEAKAGE RATES IS  1.00E-04

 CONSTANT FOR MANNINGS EQUATION IS  1.2839E+05





   STREAM NETWORK DESCRIPTION: 

   LAYER    ROW    COL   SEGMENT   REACH     LENGTH
                          NUMBER   NUMBER    IN CELL        
   --------------------------------------------------
      1     13      1       1        1    2.0000E+02
      1     13      2       1        2    2.0000E+02
      1     14      3       1        3    2.0000E+02
      1     15      4       1        4    2.0000E+02
      1     16      5       1        5    2.0000E+02
      1     16      6       1        6    2.0000E+02
      1     16      7       1        7    2.0000E+02
      1     16      8       1        8    2.0000E+02
      1     16      9       1        9    2.0000E+02
      1     16     10       1       10    2.0000E+02
      1     16     11       1       11    2.0000E+02
      1     16     12       1       12    2.0000E+02
      1     15     13       1       13    2.0000E+02
      1     14     14       1       14    2.0000E+02
      1     13     15       1       15    2.0000E+02
      1     12     16       1       16    2.0000E+02
      1     12     17       1       17    2.0000E+02
      1     12     18       1       18    2.0000E+02
      1     12     19       1       19    2.0000E+02
      1     13     20       1       20    2.0000E+02
      1     14     21       1       21    2.0000E+02
      1     14     22       1       22    2.0000E+02
      1      9     30       2        1    2.0000E+02
      1      9     29       2        2    2.0000E+02
      1      9     28       2        3    2.0000E+02
      1      9     27       2        4    2.0000E+02
      1     10     26       2        5    2.0000E+02
      1     11     25       2        6    2.0000E+02
      1     12     24       2        7    2.0000E+02
      1     13     23       2        8    2.0000E+02
      1     14     22       2        9    2.0000E+02
      1     14     22       3        1    2.0000E+02
      1     15     23       3        2    2.0000E+02
      1     15     24       3        3    2.0000E+02
      1     15     25       3        4    2.0000E+02
      1     15     26       3        5    2.0000E+02
      1     16     27       3        6    2.0000E+02
      1     17     28       3        7    2.0000E+02
      1     18     29       3        8    2.0000E+02
      1     18     30       3        9    2.0000E+02




 PCG -- CONJUGATE-GRADIENT SOLUTION PACKAGE, VERSION 7, 5/2/2005
 MAXIMUM OF    500 CALLS OF SOLUTION ROUTINE
 MAXIMUM OF      5 INTERNAL ITERATIONS PER CALL TO SOLUTION ROUTINE
 MATRIX PRECONDITIONING TYPE :    1



                                    SOLUTION BY THE CONJUGATE-GRADIENT METHOD
                                   -------------------------------------------
                    MAXIMUM NUMBER OF CALLS TO PCG ROUTINE =      500
                        MAXIMUM ITERATIONS PER CALL TO PCG =        5
                               MATRIX PRECONDITIONING TYPE =        1
        RELAXATION FACTOR (ONLY USED WITH PRECOND. TYPE 1) =    0.10000E+01
 PARAMETER OF POLYNOMIAL PRECOND. = 2 (2) OR IS CALCULATED :        0
                         HEAD CHANGE CRITERION FOR CLOSURE =    0.10000E-05
                     RESIDUAL CHANGE CRITERION FOR CLOSURE =    0.10000E+01
            PCG HEAD AND RESIDUAL CHANGE PRINTOUT INTERVAL =        1
     PRINTING FROM SOLVER IS LIMITED(1) OR SUPPRESSED (>1) =        1
                            STEADY-STATE DAMPING PARAMETER =    0.10000E+01
                               TRANSIENT DAMPING PARAMETER =    0.10000E+01
1
                            STRESS PERIOD NO.    1, LENGTH =   92.00000    
                            -----------------------------------------------

                              NUMBER OF TIME STEPS =     1

                               MULTIPLIER FOR DELT =     1.500

                            INITIAL TIME STEP SIZE =   92.00000    

 WELL NO.  LAYER   ROW   COL   STRESS RATE         
 --------------------------------------------------
      1      1     17     21     -0.3064E+05
      2      1     16     17     -0.1161E+05
      3      1     13     18       0.000    
      4      1     14     25      -5001.    

      4 WELLS

                 RECHARGE =  5.000000E-04



 CLASSIFICATION & COUNT OF STREAM SEGMENTS BASED ON SOURCE OF INFLOW:

                HEADWATER     DIVERSION     RECEIVES TRIBUTARY FLOW
                ---------     ---------     -----------------------
                     2              0               1



                    INPUT DATA FOR EACH STREAM SEGMENT
 ---------------------------------------------------------------------------------------------

 SEGMENT    SEG.     INFLOW   OVERLAND   STREAM    STREAM   ICALC  OUTFLOW  DIVERSION PRIORITY
    NO.    LENGTH     RATE     RUNOFF      ET       PPT.    METH.  TO SEG.  FROM SEG.    NO.

      1  4.400E+03 1.000E+05 0.000E+00 0.000E+00 0.000E+00    1        3        0        0
      2  1.800E+03 5.000E+04 0.000E+00 0.000E+00 0.000E+00    1        3        0        0
      3  1.800E+03 0.000E+00 0.000E+00 0.000E+00 0.000E+00    1        0        0        0


         STREAMBED PROPERTIES AND STREAM DIMENSIONS

 SEGMENT     BED HYD. COND.      BED THICKNESS     ELEV.-TOP OF BED     WIDTH OF STREAM     DEPTH OF STREAM    STREAM ROUGHNESS
    No.     UPPER     LOWER     UPPER     LOWER     UPPER     LOWER     UPPER     LOWER     UPPER     LOWER   CHANNEL      BANK

     1  5.000E+00 5.000E+00 1.000E+00 1.000E+00 4.850E+01 3.800E+01 2.000E+01 2.000E+01                     5.000E-02
     2  5.000E+00 5.000E+00 1.000E+00 1.000E+00 4.025E+01 3.800E+01 2.000E+01 2.000E+01                     5.000E-02
     3  5.000E+00 5.000E+00 1.000E+00 1.000E+00 3.800E+01 3.000E+01 2.000E+01 2.000E+01                     5.000E-02



 
 SOLVING FOR HEAD 


     8 CALLS TO PCG ROUTINE FOR TIME STEP   1 IN STRESS PERIOD    1
    34 TOTAL ITERATIONS

 OUTPUT CONTROL FOR STRESS PERIOD    1   TIME STEP    1
    SAVE BUDGET
    SAVE HEAD FOR ALL LAYERS
    PRINT HEAD FOR ALL LAYERS
 UBDSV2 SAVING "STREAMFLOW OUT  " ON UNIT  50 AT TIME STEP  1, STRESS PERIOD   1



 STREAM LISTING     PERIOD      1   STEP        1

 LAYER ROW COL. STREAM  RCH.  FLOW INTO     FLOW TO   FLOW OUT OF   OVRLND.     DIRECT     STREAM       STREAM     STREAM     STREAM   STREAMBED  STREAMBED
                SEG.NO.  NO.  STRM. RCH.    AQUIFER    STRM. RCH.    RUNOFF     PRECIP       ET          HEAD       DEPTH      WIDTH   CONDCTNC.   GRADIENT

   1   13    1     1     1    1.0000E+05 -5.7565E+03   1.0576E+05  0.000E+00  0.000E+00  0.000E+00  4.84085E+01  1.471E-01  2.000E+01  2.000E+04 -2.878E-01
   1   13    2     1     2    1.0576E+05 -8.6047E+03   1.1436E+05  0.000E+00  0.000E+00  0.000E+00  4.79373E+01  1.532E-01  2.000E+01  2.000E+04 -4.302E-01
   1   14    3     1     3    1.1436E+05 -7.8815E+03   1.2224E+05  0.000E+00  0.000E+00  0.000E+00  4.74668E+01  1.600E-01  2.000E+01  2.000E+04 -3.941E-01
   1   15    4     1     4    1.2224E+05 -7.7098E+03   1.2995E+05  0.000E+00  0.000E+00  0.000E+00  4.69958E+01  1.662E-01  2.000E+01  2.000E+04 -3.855E-01
   1   16    5     1     5    1.2995E+05 -7.4927E+03   1.3745E+05  0.000E+00  0.000E+00  0.000E+00  4.65245E+01  1.722E-01  2.000E+01  2.000E+04 -3.746E-01
   1   16    6     1     6    1.3745E+05 -5.9957E+03   1.4344E+05  0.000E+00  0.000E+00  0.000E+00  4.60523E+01  1.773E-01  2.000E+01  2.000E+04 -2.998E-01
   1   16    7     1     7    1.4344E+05 -6.1268E+03   1.4957E+05  0.000E+00  0.000E+00  0.000E+00  4.55796E+01  1.819E-01  2.000E+01  2.000E+04 -3.063E-01
   1   16    8     1     8    1.4957E+05 -6.1995E+03   1.5577E+05  0.000E+00  0.000E+00  0.000E+00  4.51069E+01  1.865E-01  2.000E+01  2.000E+04 -3.100E-01
   1   16    9     1     9    1.5577E+05 -6.1934E+03   1.6196E+05  0.000E+00  0.000E+00  0.000E+00  4.46341E+01  1.910E-01  2.000E+01  2.000E+04 -3.097E-01
   1   16   10     1    10    1.6196E+05 -6.1053E+03   1.6807E+05  0.000E+00  0.000E+00  0.000E+00  4.41613E+01  1.954E-01  2.000E+01  2.000E+04 -3.053E-01
   1   16   11     1    11    1.6807E+05 -5.9428E+03   1.7401E+05  0.000E+00  0.000E+00  0.000E+00  4.36882E+01  1.996E-01  2.000E+01  2.000E+04 -2.971E-01
   1   16   12     1    12    1.7401E+05 -7.2156E+03   1.8122E+05  0.000E+00  0.000E+00  0.000E+00  4.32155E+01  2.042E-01  2.000E+01  2.000E+04 -3.608E-01
   1   15   13     1    13    1.8122E+05 -7.2094E+03   1.8843E+05  0.000E+00  0.000E+00  0.000E+00  4.27432E+01  2.091E-01  2.000E+01  2.000E+04 -3.605E-01
   1   14   14     1    14    1.8843E+05 -7.1750E+03   1.9561E+05  0.000E+00  0.000E+00  0.000E+00  4.22708E+01  2.140E-01  2.000E+01  2.000E+04 -3.587E-01
   1   13   15     1    15    1.9561E+05 -7.4604E+03   2.0307E+05  0.000E+00  0.000E+00  0.000E+00  4.17984E+01  2.188E-01  2.000E+01  2.000E+04 -3.730E-01
   1   12   16     1    16    2.0307E+05 -8.8923E+03   2.1196E+05  0.000E+00  0.000E+00  0.000E+00  4.13264E+01  2.242E-01  2.000E+01  2.000E+04 -4.446E-01
   1   12   17     1    17    2.1196E+05 -5.8563E+03   2.1782E+05  0.000E+00  0.000E+00  0.000E+00  4.08539E+01  2.289E-01  2.000E+01  2.000E+04 -2.928E-01
   1   12   18     1    18    2.1782E+05 -5.6572E+03   2.2347E+05  0.000E+00  0.000E+00  0.000E+00  4.03803E+01  2.326E-01  2.000E+01  2.000E+04 -2.829E-01
   1   12   19     1    19    2.2347E+05 -7.5083E+03   2.3098E+05  0.000E+00  0.000E+00  0.000E+00  3.99072E+01  2.367E-01  2.000E+01  2.000E+04 -3.754E-01
   1   13   20     1    20    2.3098E+05 -4.9062E+03   2.3589E+05  0.000E+00  0.000E+00  0.000E+00  3.94337E+01  2.406E-01  2.000E+01  2.000E+04 -2.453E-01
   1   14   21     1    21    2.3589E+05 -1.6671E+03   2.3756E+05  0.000E+00  0.000E+00  0.000E+00  3.89585E+01  2.426E-01  2.000E+01  2.000E+04 -8.336E-02
   1   14   22     1    22    2.3756E+05  5.0108E+03   2.3255E+05  0.000E+00  0.000E+00  0.000E+00  3.84802E+01  2.416E-01  2.000E+01  2.000E+04  2.505E-01
   1    9   30     2     1    5.0000E+04 -5.5419E+03   5.5542E+04  0.000E+00  0.000E+00  0.000E+00  4.02447E+01  1.197E-01  2.000E+01  2.000E+04 -2.771E-01
   1    9   29     2     2    5.5542E+04 -5.8385E+03   6.1380E+04  0.000E+00  0.000E+00  0.000E+00  4.00023E+01  1.273E-01  2.000E+01  2.000E+04 -2.919E-01
   1    9   28     2     3    6.1380E+04 -6.1599E+03   6.7540E+04  0.000E+00  0.000E+00  0.000E+00  3.97599E+01  1.349E-01  2.000E+01  2.000E+04 -3.080E-01
   1    9   27     2     4    6.7540E+04 -9.5546E+03   7.7095E+04  0.000E+00  0.000E+00  0.000E+00  3.95196E+01  1.446E-01  2.000E+01  2.000E+04 -4.777E-01
   1   10   26     2     5    7.7095E+04 -7.6100E+03   8.4705E+04  0.000E+00  0.000E+00  0.000E+00  3.92796E+01  1.546E-01  2.000E+01  2.000E+04 -3.805E-01
   1   11   25     2     6    8.4705E+04 -6.3050E+03   9.1010E+04  0.000E+00  0.000E+00  0.000E+00  3.90375E+01  1.625E-01  2.000E+01  2.000E+04 -3.153E-01
   1   12   24     2     7    9.1010E+04 -4.8363E+03   9.5846E+04  0.000E+00  0.000E+00  0.000E+00  3.87936E+01  1.686E-01  2.000E+01  2.000E+04 -2.418E-01
   1   13   23     2     8    9.5846E+04 -3.3310E+03   9.9177E+04  0.000E+00  0.000E+00  0.000E+00  3.85480E+01  1.730E-01  2.000E+01  2.000E+04 -1.666E-01
   1   14   22     2     9    9.9177E+04  1.3873E+03   9.7790E+04  0.000E+00  0.000E+00  0.000E+00  3.82990E+01  1.740E-01  2.000E+01  2.000E+04  6.936E-02
   1   14   22     3     1    3.3034E+05 -8.5269E+03   3.3886E+05  0.000E+00  0.000E+00  0.000E+00  3.78033E+01  2.478E-01  2.000E+01  2.000E+04 -4.263E-01
   1   15   23     3     2    3.3886E+05 -1.9200E+03   3.4078E+05  0.000E+00  0.000E+00  0.000E+00  3.69167E+01  2.501E-01  2.000E+01  2.000E+04 -9.600E-02
   1   15   24     3     3    3.4078E+05 -2.5398E+03   3.4332E+05  0.000E+00  0.000E+00  0.000E+00  3.60288E+01  2.510E-01  2.000E+01  2.000E+04 -1.270E-01
   1   15   25     3     4    3.4332E+05 -2.0970E+03   3.4542E+05  0.000E+00  0.000E+00  0.000E+00  3.51410E+01  2.521E-01  2.000E+01  2.000E+04 -1.048E-01
   1   15   26     3     5    3.4542E+05 -4.6661E+03   3.5009E+05  0.000E+00  0.000E+00  0.000E+00  3.42535E+01  2.535E-01  2.000E+01  2.000E+04 -2.333E-01
   1   16   27     3     6    3.5009E+05 -6.5798E+03   3.5667E+05  0.000E+00  0.000E+00  0.000E+00  3.33671E+01  2.560E-01  2.000E+01  2.000E+04 -3.290E-01
   1   17   28     3     7    3.5667E+05 -7.5790E+03   3.6424E+05  0.000E+00  0.000E+00  0.000E+00  3.24813E+01  2.591E-01  2.000E+01  2.000E+04 -3.790E-01
   1   18   29     3     8    3.6424E+05 -8.7771E+03   3.7302E+05  0.000E+00  0.000E+00  0.000E+00  3.15959E+01  2.626E-01  2.000E+01  2.000E+04 -4.389E-01
   1   18   30     3     9    3.7302E+05 -7.4077E+03   3.8043E+05  0.000E+00  0.000E+00  0.000E+00  3.07105E+01  2.660E-01  2.000E+01  2.000E+04 -3.704E-01



1
              HEAD IN LAYER   1 AT END OF TIME STEP   1 IN STRESS PERIOD    1
  ---------------------------------------------------------------------------

          1      2      3      4      5      6      7      8      9     10
         11     12     13     14     15     16     17     18     19     20
         21     22     23     24     25     26     27     28     29     30
 .........................................................................
   1  ****** ****** ****** ****** ****** ****** ****** ****** ****** ******
      ****** ****** ****** ****** ****** ****** ****** ****** ****** ******
      ****** ****** ****** ****** ****** ****** ****** ****** ****** ******
   2  ****** ****** ****** ****** ****** ****** ****** ****** ****** ******
      ****** ****** ****** ****** ****** ****** ****** ****** ****** ******
      ****** ****** ****** ****** ****** ****** ****** ****** ****** ******
   3  ****** ****** ****** ****** ****** ****** ****** ****** ****** ******
      ****** ****** ****** ****** ****** ****** ****** ****** ****** ******
      ****** ****** ****** ****** ****** ****** ****** ****** ****** ******
   4  ****** ****** ****** ****** ****** ****** ****** ****** ****** ******
      ****** ****** ****** ****** ****** ****** ****** ****** ****** ******
      ****** ****** ****** ****** ****** ****** ****** ****** ****** ******
   5  ****** ****** ****** ****** ****** ****** ****** ****** ****** ******
      ****** ****** ****** ****** ****** ****** ****** ****** ****** ******
      ****** ****** ****** ****** ****** ****** ****** ****** ****** ******
   6  ****** ****** ****** ****** ****** ****** ****** ****** ****** ******
      ****** ****** ****** ****** ****** ****** ****** ****** ****** ******
      ****** ****** ****** ****** ****** ****** ****** ****** ****** ******
   7  ****** ****** ****** ****** ****** ****** ****** ****** ****** ******
      ****** ****** ****** ****** ****** ****** ****** ****** ****** ******
      ****** ****** ****** ****** ****** ****** ****** ****** ****** ******
   8  ****** ****** ****** ****** ****** ****** ****** ****** ****** ******
      ****** ****** ****** ****** ****** ****** ****** ****** ****** ******
      ****** ****** ****** ****** ****** ****** ****** ****** ****** ******
   9  ****** ****** ****** ****** ****** ****** ****** ****** ****** ******
      ****** ****** ****** ****** ****** ****** ****** ****** ****** ******
      ****** ****** ****** ****** ****** ****** ****** ****** ****** ******
  10  ****** ****** ****** ****** ****** ****** ****** ****** ****** ******
      ****** ****** ****** ****** ****** ****** ****** ****** ****** ******
      ****** ****** ****** ****** ****** ****** ****** ****** ****** ******
  11  ****** ****** ****** ****** ****** ****** ****** ****** ****** ******
      ****** ****** ****** ****** ****** ****** ****** ****** ****** ******
      ****** ****** ****** ****** ****** ****** ****** ****** ****** ******
  12  ****** ****** ****** ****** ****** ****** ****** ****** ****** ******
      ****** ****** ****** ****** ****** ****** ****** ****** ****** ******
      ****** ****** ****** ****** ****** ****** ****** ****** ****** ******
  13  ****** ****** ****** ****** ****** ****** ****** ****** ****** ******
      ****** ****** ****** ****** ****** ****** ****** ****** ****** ******
      ****** ****** ****** ****** ****** ****** ****** ****** ****** ******
  14  ****** ****** ****** ****** ****** ****** ****** ****** ****** ******
      ****** ****** ****** ****** ****** ****** ****** ****** ****** ******
      ****** ****** ****** ****** ****** ****** ****** ****** ****** ******
  15  ****** ****** ****** ****** ****** ****** ****** ****** ****** ******
      ****** ****** ****** ****** ****** ****** ****** ****** ****** ******
      ****** ****** ****** ****** ****** ****** ****** ****** ****** ******
  16  ****** ****** ****** ****** ****** ****** ****** ****** ****** ******
      ****** ****** ****** ****** ****** ****** ****** ****** ****** ******
      ****** ****** ****** ****** ****** ****** ****** ****** ****** ******
  17  ****** ****** ****** ****** ****** ****** ****** ****** ****** ******
      ****** ****** ****** ****** ****** ****** ****** ****** ****** ******
      ****** ****** ****** ****** ****** ****** ****** ****** ****** ******
  18  ****** ****** ****** ****** ****** ****** ****** ****** ****** ******
      ****** ****** ****** ****** ****** ****** ****** ****** ****** ******
      ****** ****** ****** ****** ****** ****** ****** ****** ****** ******
  19  ****** ****** ****** ****** ****** ****** ****** ****** ****** ******
      ****** ****** ****** ****** ****** ****** ****** ****** ****** ******
      ****** ****** ****** ****** ****** ****** ****** ****** ****** ******
  20  ****** ****** ****** ****** ****** ****** ****** ****** ****** ******
      ****** ****** ****** ****** ****** ****** ****** ****** ****** ******
      ****** ****** ****** ****** ****** ****** ****** ****** ****** ******
  21  ****** ****** ****** ****** ****** ****** ****** ****** ****** ******
      ****** ****** ****** ****** ****** ****** ****** ****** ****** ******
      ****** ****** ****** ****** ****** ****** ****** ****** ****** ******
  22  ****** ****** ****** ****** ****** ****** ****** ****** ****** ******
      ****** ****** ****** ****** ****** ****** ****** ****** ****** ******
      ****** ****** ****** ****** ****** ****** ****** ****** ****** ******
  23  ****** ****** ****** ****** ****** ****** ****** ****** ****** ******
      ****** ****** ****** ****** ****** ****** ****** ****** ****** ******
      ****** ****** ****** ****** ****** ****** ****** ****** ****** ******
  24  ****** ****** ****** ****** ****** ****** ****** ****** ****** ******
      ****** ****** ****** ****** ****** ****** ****** ****** ****** ******
      ****** ****** ****** ****** ****** ****** ****** ****** ****** ******
  25  ****** ****** ****** ****** ****** ****** ****** ****** ****** ******
      ****** ****** ****** ****** ****** ****** ****** ****** ****** ******
      ****** ****** ****** ****** ****** ****** ****** ****** ****** ******

 HEAD WILL BE SAVED ON UNIT   51 AT END OF TIME STEP    1, STRESS PERIOD    1
1
  VOLUMETRIC BUDGET FOR ENTIRE MODEL AT END OF TIME STEP    1, STRESS PERIOD   1
  ------------------------------------------------------------------------------

     CUMULATIVE VOLUMES      L**3       RATES FOR THIS TIME STEP      L**3/T
     ------------------                 ------------------------

           IN:                                      IN:
           ---                                      ---
             STORAGE =    16551462.1750               STORAGE =      179907.1976
       CONSTANT HEAD =     7725181.5202         CONSTANT HEAD =       83969.3644
               WELLS =           0.0000                 WELLS =           0.0000
            RECHARGE =     1269600.0000              RECHARGE =       13800.0000
      STREAM LEAKAGE =      588623.4848        STREAM LEAKAGE =        6398.0814

            TOTAL IN =    26134867.1801              TOTAL IN =      284074.6433

          OUT:                                     OUT:
          ----                                     ----
             STORAGE =           0.0000               STORAGE =           0.0000
       CONSTANT HEAD =           0.0000         CONSTANT HEAD =           0.0000
               WELLS =     4346763.7077                 WELLS =       47247.4316
            RECHARGE =           0.0000              RECHARGE =           0.0000
      STREAM LEAKAGE =    21788103.6125        STREAM LEAKAGE =      236827.2132

           TOTAL OUT =    26134867.3201             TOTAL OUT =      284074.6448

            IN - OUT =          -0.1401              IN - OUT =      -1.5225E-03

 PERCENT DISCREPANCY =          -0.00     PERCENT DISCREPANCY =          -0.00






         TIME SUMMARY AT END OF TIME STEP    1 IN STRESS PERIOD    1
                    SECONDS     MINUTES      HOURS       DAYS        YEARS
                    -----------------------------------------------------------
   TIME STEP LENGTH 7.94880E+06 1.32480E+05  2208.0      92.000     0.25188    
 STRESS PERIOD TIME 7.94880E+06 1.32480E+05  2208.0      92.000     0.25188    
         TOTAL TIME 7.94880E+06 1.32480E+05  2208.0      92.000     0.25188    
1
1
                            STRESS PERIOD NO.    2, LENGTH =   91.00000    
                            -----------------------------------------------

                              NUMBER OF TIME STEPS =     1

                               MULTIPLIER FOR DELT =     1.500

                            INITIAL TIME STEP SIZE =   91.00000    

 WELL NO.  LAYER   ROW   COL   STRESS RATE         
 --------------------------------------------------
      1      1     17     21     -0.3064E+05
      2      1     16     17     -0.1161E+05
      3      1     13     18       0.000    
      4      1     14     25      -5001.    

      4 WELLS

                 RECHARGE =  2.000000E-03

 REUSING STREAM SEGMENT DATA FROM LAST STRESS PERIOD
 
 SOLVING FOR HEAD 


     7 CALLS TO PCG ROUTINE FOR TIME STEP   1 IN STRESS PERIOD    2
    27 TOTAL ITERATIONS

 OUTPUT CONTROL FOR STRESS PERIOD    2   TIME STEP    1
    SAVE BUDGET
    SAVE HEAD FOR ALL LAYERS
    PRINT HEAD FOR ALL LAYERS
 UBDSV2 SAVING "STREAMFLOW OUT  " ON UNIT  50 AT TIME STEP  1, STRESS PERIOD   2



 STREAM LISTING     PERIOD      2   STEP        1

 LAYER ROW COL. STREAM  RCH.  FLOW INTO     FLOW TO   FLOW OUT OF   OVRLND.     DIRECT     STREAM       STREAM     STREAM     STREAM   STREAMBED  STREAMBED
                SEG.NO.  NO.  STRM. RCH.    AQUIFER    STRM. RCH.    RUNOFF     PRECIP       ET          HEAD       DEPTH      WIDTH   CONDCTNC.   GRADIENT

   1   13    1     1     1    1.0000E+05 -3.8483E+03   1.0385E+05  0.000E+00  0.000E+00  0.000E+00  4.84077E+01  1.463E-01  2.000E+01  2.000E+04 -1.924E-01
   1   13    2     1     2    1.0385E+05 -6.1997E+03   1.1005E+05  0.000E+00  0.000E+00  0.000E+00  4.79347E+01  1.506E-01  2.000E+01  2.000E+04 -3.100E-01
   1   14    3     1     3    1.1005E+05 -5.1640E+03   1.1521E+05  0.000E+00  0.000E+00  0.000E+00  4.74622E+01  1.554E-01  2.000E+01  2.000E+04 -2.582E-01
   1   15    4     1     4    1.1521E+05 -5.0081E+03   1.2022E+05  0.000E+00  0.000E+00  0.000E+00  4.69891E+01  1.595E-01  2.000E+01  2.000E+04 -2.504E-01
   1   16    5     1     5    1.2022E+05 -5.1733E+03   1.2539E+05  0.000E+00  0.000E+00  0.000E+00  4.65159E+01  1.636E-01  2.000E+01  2.000E+04 -2.587E-01
   1   16    6     1     6    1.2539E+05 -4.0983E+03   1.2949E+05  0.000E+00  0.000E+00  0.000E+00  4.60423E+01  1.673E-01  2.000E+01  2.000E+04 -2.049E-01
   1   16    7     1     7    1.2949E+05 -4.1860E+03   1.3368E+05  0.000E+00  0.000E+00  0.000E+00  4.55683E+01  1.705E-01  2.000E+01  2.000E+04 -2.093E-01
   1   16    8     1     8    1.3368E+05 -4.2254E+03   1.3790E+05  0.000E+00  0.000E+00  0.000E+00  4.50943E+01  1.738E-01  2.000E+01  2.000E+04 -2.113E-01
   1   16    9     1     9    1.3790E+05 -4.1966E+03   1.4210E+05  0.000E+00  0.000E+00  0.000E+00  4.46202E+01  1.770E-01  2.000E+01  2.000E+04 -2.098E-01
   1   16   10     1    10    1.4210E+05 -4.0933E+03   1.4619E+05  0.000E+00  0.000E+00  0.000E+00  4.41460E+01  1.801E-01  2.000E+01  2.000E+04 -2.047E-01
   1   16   11     1    11    1.4619E+05 -3.9127E+03   1.5011E+05  0.000E+00  0.000E+00  0.000E+00  4.36718E+01  1.831E-01  2.000E+01  2.000E+04 -1.956E-01
   1   16   12     1    12    1.5011E+05 -4.5125E+03   1.5462E+05  0.000E+00  0.000E+00  0.000E+00  4.31976E+01  1.862E-01  2.000E+01  2.000E+04 -2.256E-01
   1   15   13     1    13    1.5462E+05 -4.0116E+03   1.5863E+05  0.000E+00  0.000E+00  0.000E+00  4.27234E+01  1.893E-01  2.000E+01  2.000E+04 -2.006E-01
   1   14   14     1    14    1.5863E+05 -3.8253E+03   1.6246E+05  0.000E+00  0.000E+00  0.000E+00  4.22490E+01  1.922E-01  2.000E+01  2.000E+04 -1.913E-01
   1   13   15     1    15    1.6246E+05 -4.1902E+03   1.6665E+05  0.000E+00  0.000E+00  0.000E+00  4.17746E+01  1.950E-01  2.000E+01  2.000E+04 -2.095E-01
   1   12   16     1    16    1.6665E+05 -6.1545E+03   1.7280E+05  0.000E+00  0.000E+00  0.000E+00  4.13010E+01  1.987E-01  2.000E+01  2.000E+04 -3.077E-01
   1   12   17     1    17    1.7280E+05 -3.5600E+03   1.7636E+05  0.000E+00  0.000E+00  0.000E+00  4.08271E+01  2.021E-01  2.000E+01  2.000E+04 -1.780E-01
   1   12   18     1    18    1.7636E+05 -3.3549E+03   1.7971E+05  0.000E+00  0.000E+00  0.000E+00  4.03522E+01  2.045E-01  2.000E+01  2.000E+04 -1.677E-01
   1   12   19     1    19    1.7971E+05 -4.8189E+03   1.8453E+05  0.000E+00  0.000E+00  0.000E+00  3.98777E+01  2.073E-01  2.000E+01  2.000E+04 -2.409E-01
   1   13   20     1    20    1.8453E+05 -1.7839E+03   1.8632E+05  0.000E+00  0.000E+00  0.000E+00  3.94027E+01  2.095E-01  2.000E+01  2.000E+04 -8.919E-02
   1   14   21     1    21    1.8632E+05  1.4337E+03   1.8488E+05  0.000E+00  0.000E+00  0.000E+00  3.89255E+01  2.096E-01  2.000E+01  2.000E+04  7.168E-02
   1   14   22     1    22    1.8488E+05  5.6602E+03   1.7922E+05  0.000E+00  0.000E+00  0.000E+00  3.84459E+01  2.072E-01  2.000E+01  2.000E+04  2.830E-01
   1    9   30     2     1    5.0000E+04 -3.4190E+03   5.3419E+04  0.000E+00  0.000E+00  0.000E+00  4.02432E+01  1.182E-01  2.000E+01  2.000E+04 -1.710E-01
   1    9   29     2     2    5.3419E+04 -3.7407E+03   5.7160E+04  0.000E+00  0.000E+00  0.000E+00  3.99981E+01  1.231E-01  2.000E+01  2.000E+04 -1.870E-01
   1    9   28     2     3    5.7160E+04 -4.1142E+03   6.1274E+04  0.000E+00  0.000E+00  0.000E+00  3.97532E+01  1.282E-01  2.000E+01  2.000E+04 -2.057E-01
   1    9   27     2     4    6.1274E+04 -7.1236E+03   6.8398E+04  0.000E+00  0.000E+00  0.000E+00  3.95104E+01  1.354E-01  2.000E+01  2.000E+04 -3.562E-01
   1   10   26     2     5    6.8398E+04 -4.7075E+03   7.3105E+04  0.000E+00  0.000E+00  0.000E+00  3.92677E+01  1.427E-01  2.000E+01  2.000E+04 -2.354E-01
   1   11   25     2     6    7.3105E+04 -3.4206E+03   7.6526E+04  0.000E+00  0.000E+00  0.000E+00  3.90226E+01  1.476E-01  2.000E+01  2.000E+04 -1.710E-01
   1   12   24     2     7    7.6526E+04 -2.2113E+03   7.8737E+04  0.000E+00  0.000E+00  0.000E+00  3.87759E+01  1.509E-01  2.000E+01  2.000E+04 -1.106E-01
   1   13   23     2     8    7.8737E+04 -1.2098E+03   7.9947E+04  0.000E+00  0.000E+00  0.000E+00  3.85279E+01  1.529E-01  2.000E+01  2.000E+04 -6.049E-02
   1   14   22     2     9    7.9947E+04  2.2875E+03   7.7659E+04  0.000E+00  0.000E+00  0.000E+00  3.82772E+01  1.522E-01  2.000E+01  2.000E+04  1.144E-01
   1   14   22     3     1    2.5688E+05 -7.8788E+03   2.6476E+05  0.000E+00  0.000E+00  0.000E+00  3.77689E+01  2.134E-01  2.000E+01  2.000E+04 -3.939E-01
   1   15   23     3     2    2.6476E+05  9.6008E+02   2.6380E+05  0.000E+00  0.000E+00  0.000E+00  3.68817E+01  2.151E-01  2.000E+01  2.000E+04  4.800E-02
   1   15   24     3     3    2.6380E+05 -4.9187E+02   2.6429E+05  0.000E+00  0.000E+00  0.000E+00  3.59927E+01  2.149E-01  2.000E+01  2.000E+04 -2.459E-02
   1   15   25     3     4    2.6429E+05 -1.4398E+01   2.6431E+05  0.000E+00  0.000E+00  0.000E+00  3.51039E+01  2.151E-01  2.000E+01  2.000E+04 -7.199E-04
   1   15   26     3     5    2.6431E+05 -1.8977E+03   2.6621E+05  0.000E+00  0.000E+00  0.000E+00  3.42155E+01  2.155E-01  2.000E+01  2.000E+04 -9.489E-02
   1   16   27     3     6    2.6621E+05 -3.3066E+03   2.6951E+05  0.000E+00  0.000E+00  0.000E+00  3.33279E+01  2.168E-01  2.000E+01  2.000E+04 -1.653E-01
   1   17   28     3     7    2.6951E+05 -4.3893E+03   2.7390E+05  0.000E+00  0.000E+00  0.000E+00  3.24409E+01  2.187E-01  2.000E+01  2.000E+04 -2.195E-01
   1   18   29     3     8    2.7390E+05 -6.1582E+03   2.8006E+05  0.000E+00  0.000E+00  0.000E+00  3.15545E+01  2.212E-01  2.000E+01  2.000E+04 -3.079E-01
   1   18   30     3     9    2.8006E+05 -5.2612E+03   2.8532E+05  0.000E+00  0.000E+00  0.000E+00  3.06684E+01  2.239E-01  2.000E+01  2.000E+04 -2.631E-01



1
              HEAD IN LAYER   1 AT END OF TIME STEP   1 IN STRESS PERIOD    2
  ---------------------------------------------------------------------------

          1      2      3      4      5      6      7      8      9     10
         11     12     13     14     15     16     17     18     19     20
         21     22     23     24     25     26     27     28     29     30
 .........................................................................
   1  ****** ****** ****** ****** ****** ****** ****** ****** ****** ******
      ****** ****** ****** ****** ****** ****** ****** ****** ****** ******
      ****** ****** ****** ****** ****** ****** ****** ****** ****** ******
   2  ****** ****** ****** ****** ****** ****** ****** ****** ****** ******
      ****** ****** ****** ****** ****** ****** ****** ****** ****** ******
      ****** ****** ****** ****** ****** ****** ****** ****** ****** ******
   3  ****** ****** ****** ****** ****** ****** ****** ****** ****** ******
      ****** ****** ****** ****** ****** ****** ****** ****** ****** ******
      ****** ****** ****** ****** ****** ****** ****** ****** ****** ******
   4  ****** ****** ****** ****** ****** ****** ****** ****** ****** ******
      ****** ****** ****** ****** ****** ****** ****** ****** ****** ******
      ****** ****** ****** ****** ****** ****** ****** ****** ****** ******
   5  ****** ****** ****** ****** ****** ****** ****** ****** ****** ******
      ****** ****** ****** ****** ****** ****** ****** ****** ****** ******
      ****** ****** ****** ****** ****** ****** ****** ****** ****** ******
   6  ****** ****** ****** ****** ****** ****** ****** ****** ****** ******
      ****** ****** ****** ****** ****** ****** ****** ****** ****** ******
      ****** ****** ****** ****** ****** ****** ****** ****** ****** ******
   7  ****** ****** ****** ****** ****** ****** ****** ****** ****** ******
      ****** ****** ****** ****** ****** ****** ****** ****** ****** ******
      ****** ****** ****** ****** ****** ****** ****** ****** ****** ******
   8  ****** ****** ****** ****** ****** ****** ****** ****** ****** ******
      ****** ****** ****** ****** ****** ****** ****** ****** ****** ******
      ****** ****** ****** ****** ****** ****** ****** ****** ****** ******
   9  ****** ****** ****** ****** ****** ****** ****** ****** ****** ******
      ****** ****** ****** ****** ****** ****** ****** ****** ****** ******
      ****** ****** ****** ****** ****** ****** ****** ****** ****** ******
  10  ****** ****** ****** ****** ****** ****** ****** ****** ****** ******
      ****** ****** ****** ****** ****** ****** ****** ****** ****** ******
      ****** ****** ****** ****** ****** ****** ****** ****** ****** ******
  11  ****** ****** ****** ****** ****** ****** ****** ****** ****** ******
      ****** ****** ****** ****** ****** ****** ****** ****** ****** ******
      ****** ****** ****** ****** ****** ****** ****** ****** ****** ******
  12  ****** ****** ****** ****** ****** ****** ****** ****** ****** ******
      ****** ****** ****** ****** ****** ****** ****** ****** ****** ******
      ****** ****** ****** ****** ****** ****** ****** ****** ****** ******
  13  ****** ****** ****** ****** ****** ****** ****** ****** ****** ******
      ****** ****** ****** ****** ****** ****** ****** ****** ****** ******
      ****** ****** ****** ****** ****** ****** ****** ****** ****** ******
  14  ****** ****** ****** ****** ****** ****** ****** ****** ****** ******
      ****** ****** ****** ****** ****** ****** ****** ****** ****** ******
      ****** ****** ****** ****** ****** ****** ****** ****** ****** ******
  15  ****** ****** ****** ****** ****** ****** ****** ****** ****** ******
      ****** ****** ****** ****** ****** ****** ****** ****** ****** ******
      ****** ****** ****** ****** ****** ****** ****** ****** ****** ******
  16  ****** ****** ****** ****** ****** ****** ****** ****** ****** ******
      ****** ****** ****** ****** ****** ****** ****** ****** ****** ******
      ****** ****** ****** ****** ****** ****** ****** ****** ****** ******
  17  ****** ****** ****** ****** ****** ****** ****** ****** ****** ******
      ****** ****** ****** ****** ****** ****** ****** ****** ****** ******
      ****** ****** ****** ****** ****** ****** ****** ****** ****** ******
  18  ****** ****** ****** ****** ****** ****** ****** ****** ****** ******
      ****** ****** ****** ****** ****** ****** ****** ****** ****** ******
      ****** ****** ****** ****** ****** ****** ****** ****** ****** ******
  19  ****** ****** ****** ****** ****** ****** ****** ****** ****** ******
      ****** ****** ****** ****** ****** ****** ****** ****** ****** ******
      ****** ****** ****** ****** ****** ****** ****** ****** ****** ******
  20  ****** ****** ****** ****** ****** ****** ****** ****** ****** ******
      ****** ****** ****** ****** ****** ****** ****** ****** ****** ******
      ****** ****** ****** ****** ****** ****** ****** ****** ****** ******
  21  ****** ****** ****** ****** ****** ****** ****** ****** ****** ******
      ****** ****** ****** ****** ****** ****** ****** ****** ****** ******
      ****** ****** ****** ****** ****** ****** ****** ****** ****** ******
  22  ****** ****** ****** ****** ****** ****** ****** ****** ****** ******
      ****** ****** ****** ****** ****** ****** ****** ****** ****** ******
      ****** ****** ****** ****** ****** ****** ****** ****** ****** ******
  23  ****** ****** ****** ****** ****** ****** ****** ****** ****** ******
      ****** ****** ****** ****** ****** ****** ****** ****** ****** ******
      ****** ****** ****** ****** ****** ****** ****** ****** ****** ******
  24  ****** ****** ****** ****** ****** ****** ****** ****** ****** ******
      ****** ****** ****** ****** ****** ****** ****** ****** ****** ******
      ****** ****** ****** ****** ****** ****** ****** ****** ****** ******
  25  ****** ****** ****** ****** ****** ****** ****** ****** ****** ******
      ****** ****** ****** ****** ****** ****** ****** ****** ****** ******
      ****** ****** ****** ****** ****** ****** ****** ****** ****** ******

 HEAD WILL BE SAVED ON UNIT   51 AT END OF TIME STEP    1, STRESS PERIOD    2
1
  VOLUMETRIC BUDGET FOR ENTIRE MODEL AT END OF TIME STEP    1, STRESS PERIOD   2
  ------------------------------------------------------------------------------

     CUMULATIVE VOLUMES      L**3       RATES FOR THIS TIME STEP      L**3/T
     ------------------                 ------------------------

           IN:                                      IN:
           ---                                      ---
             STORAGE =    19354210.2712               STORAGE =       30799.4296
       CONSTANT HEAD =    16512943.1008         CONSTANT HEAD =       96568.8086
               WELLS =           0.0000                 WELLS =           0.0000
            RECHARGE =     6292800.0000              RECHARGE =       55200.0000
      STREAM LEAKAGE =     1529695.7851        STREAM LEAKAGE =       10341.4538

            TOTAL IN =    43689649.1571              TOTAL IN =      192909.6921

          OUT:                                     OUT:
          ----                                     ----
             STORAGE =           0.0000               STORAGE =           0.0000
       CONSTANT HEAD =           0.0000         CONSTANT HEAD =           0.0000
               WELLS =     8646279.9837                 WELLS =       47247.4316
            RECHARGE =           0.0000              RECHARGE =           0.0000
      STREAM LEAKAGE =    35043369.7629        STREAM LEAKAGE =      145662.2654

           TOTAL OUT =    43689649.7467             TOTAL OUT =      192909.6970

            IN - OUT =          -0.5895              IN - OUT =      -4.9389E-03

 PERCENT DISCREPANCY =          -0.00     PERCENT DISCREPANCY =          -0.00






         TIME SUMMARY AT END OF TIME STEP    1 IN STRESS PERIOD    2
                    SECONDS     MINUTES      HOURS       DAYS        YEARS
                    -----------------------------------------------------------
   TIME STEP LENGTH 7.86240E+06 1.31040E+05  2184.0      91.000     0.24914    
 STRESS PERIOD TIME 7.86240E+06 1.31040E+05  2184.0      91.000     0.24914    
         TOTAL TIME 1.58112E+07 2.63520E+05  4392.0      183.00     0.50103    
1
1
                            STRESS PERIOD NO.    3, LENGTH =   91.00000    
                            -----------------------------------------------

                              NUMBER OF TIME STEPS =     1

                               MULTIPLIER FOR DELT =     1.500

                            INITIAL TIME STEP SIZE =   91.00000    

 WELL NO.  LAYER   ROW   COL   STRESS RATE         
 --------------------------------------------------
      1      1     17     21     -0.3064E+05
      2      1     16     17     -0.1161E+05
      3      1     13     18       0.000    
      4      1     14     25      -5001.    

      4 WELLS

                 RECHARGE =   0.00000    

 REUSING STREAM SEGMENT DATA FROM LAST STRESS PERIOD
 
 SOLVING FOR HEAD 


     7 CALLS TO PCG ROUTINE FOR TIME STEP   1 IN STRESS PERIOD    3
    27 TOTAL ITERATIONS

 OUTPUT CONTROL FOR STRESS PERIOD    3   TIME STEP    1
    SAVE BUDGET
    SAVE HEAD FOR ALL LAYERS
    PRINT HEAD FOR ALL LAYERS
 UBDSV2 SAVING "STREAMFLOW OUT  " ON UNIT  50 AT TIME STEP  1, STRESS PERIOD   3



 STREAM LISTING     PERIOD      3   STEP        1

 LAYER ROW COL. STREAM  RCH.  FLOW INTO     FLOW TO   FLOW OUT OF   OVRLND.     DIRECT     STREAM       STREAM     STREAM     STREAM   STREAMBED  STREAMBED
                SEG.NO.  NO.  STRM. RCH.    AQUIFER    STRM. RCH.    RUNOFF     PRECIP       ET          HEAD       DEPTH      WIDTH   CONDCTNC.   GRADIENT

   1   13    1     1     1    1.0000E+05 -2.9388E+03   1.0294E+05  0.000E+00  0.000E+00  0.000E+00  4.84073E+01  1.459E-01  2.000E+01  2.000E+04 -1.469E-01
   1   13    2     1     2    1.0294E+05 -4.9546E+03   1.0789E+05  0.000E+00  0.000E+00  0.000E+00  4.79334E+01  1.493E-01  2.000E+01  2.000E+04 -2.477E-01
   1   14    3     1     3    1.0789E+05 -3.9258E+03   1.1182E+05  0.000E+00  0.000E+00  0.000E+00  4.74599E+01  1.530E-01  2.000E+01  2.000E+04 -1.963E-01
   1   15    4     1     4    1.1182E+05 -3.7917E+03   1.1561E+05  0.000E+00  0.000E+00  0.000E+00  4.69858E+01  1.562E-01  2.000E+01  2.000E+04 -1.896E-01
   1   16    5     1     5    1.1561E+05 -4.0708E+03   1.1968E+05  0.000E+00  0.000E+00  0.000E+00  4.65117E+01  1.595E-01  2.000E+01  2.000E+04 -2.035E-01
   1   16    6     1     6    1.1968E+05 -3.2267E+03   1.2291E+05  0.000E+00  0.000E+00  0.000E+00  4.60374E+01  1.624E-01  2.000E+01  2.000E+04 -1.613E-01
   1   16    7     1     7    1.2291E+05 -3.2910E+03   1.2620E+05  0.000E+00  0.000E+00  0.000E+00  4.55627E+01  1.650E-01  2.000E+01  2.000E+04 -1.645E-01
   1   16    8     1     8    1.2620E+05 -3.3140E+03   1.2951E+05  0.000E+00  0.000E+00  0.000E+00  4.50881E+01  1.676E-01  2.000E+01  2.000E+04 -1.657E-01
   1   16    9     1     9    1.2951E+05 -3.2782E+03   1.3279E+05  0.000E+00  0.000E+00  0.000E+00  4.46134E+01  1.702E-01  2.000E+01  2.000E+04 -1.639E-01
   1   16   10     1    10    1.3279E+05 -3.1760E+03   1.3597E+05  0.000E+00  0.000E+00  0.000E+00  4.41386E+01  1.727E-01  2.000E+01  2.000E+04 -1.588E-01
   1   16   11     1    11    1.3597E+05 -2.9969E+03   1.3896E+05  0.000E+00  0.000E+00  0.000E+00  4.36637E+01  1.751E-01  2.000E+01  2.000E+04 -1.498E-01
   1   16   12     1    12    1.3896E+05 -3.2630E+03   1.4223E+05  0.000E+00  0.000E+00  0.000E+00  4.31888E+01  1.775E-01  2.000E+01  2.000E+04 -1.632E-01
   1   15   13     1    13    1.4223E+05 -2.6314E+03   1.4486E+05  0.000E+00  0.000E+00  0.000E+00  4.27138E+01  1.797E-01  2.000E+01  2.000E+04 -1.316E-01
   1   14   14     1    14    1.4486E+05 -2.4069E+03   1.4727E+05  0.000E+00  0.000E+00  0.000E+00  4.22384E+01  1.816E-01  2.000E+01  2.000E+04 -1.203E-01
   1   13   15     1    15    1.4727E+05 -2.8115E+03   1.5008E+05  0.000E+00  0.000E+00  0.000E+00  4.17631E+01  1.835E-01  2.000E+01  2.000E+04 -1.406E-01
   1   12   16     1    16    1.5008E+05 -4.8714E+03   1.5495E+05  0.000E+00  0.000E+00  0.000E+00  4.12886E+01  1.863E-01  2.000E+01  2.000E+04 -2.436E-01
   1   12   17     1    17    1.5495E+05 -2.6101E+03   1.5756E+05  0.000E+00  0.000E+00  0.000E+00  4.08141E+01  1.891E-01  2.000E+01  2.000E+04 -1.305E-01
   1   12   18     1    18    1.5756E+05 -2.4235E+03   1.5998E+05  0.000E+00  0.000E+00  0.000E+00  4.03386E+01  1.909E-01  2.000E+01  2.000E+04 -1.212E-01
   1   12   19     1    19    1.5998E+05 -3.7061E+03   1.6369E+05  0.000E+00  0.000E+00  0.000E+00  3.98635E+01  1.931E-01  2.000E+01  2.000E+04 -1.853E-01
   1   13   20     1    20    1.6369E+05 -6.5619E+02   1.6434E+05  0.000E+00  0.000E+00  0.000E+00  3.93878E+01  1.947E-01  2.000E+01  2.000E+04 -3.281E-02
   1   14   21     1    21    1.6434E+05  2.5593E+03   1.6179E+05  0.000E+00  0.000E+00  0.000E+00  3.89099E+01  1.940E-01  2.000E+01  2.000E+04  1.280E-01
   1   14   22     1    22    1.6179E+05  5.8369E+03   1.5595E+05  0.000E+00  0.000E+00  0.000E+00  3.84296E+01  1.910E-01  2.000E+01  2.000E+04  2.918E-01
   1    9   30     2     1    5.0000E+04 -2.6500E+03   5.2650E+04  0.000E+00  0.000E+00  0.000E+00  4.02427E+01  1.177E-01  2.000E+01  2.000E+04 -1.325E-01
   1    9   29     2     2    5.2650E+04 -2.9819E+03   5.5632E+04  0.000E+00  0.000E+00  0.000E+00  3.99965E+01  1.215E-01  2.000E+01  2.000E+04 -1.491E-01
   1    9   28     2     3    5.5632E+04 -3.3667E+03   5.8999E+04  0.000E+00  0.000E+00  0.000E+00  3.97508E+01  1.258E-01  2.000E+01  2.000E+04 -1.683E-01
   1    9   27     2     4    5.8999E+04 -6.1148E+03   6.5114E+04  0.000E+00  0.000E+00  0.000E+00  3.95069E+01  1.319E-01  2.000E+01  2.000E+04 -3.057E-01
   1   10   26     2     5    6.5114E+04 -3.6390E+03   6.8753E+04  0.000E+00  0.000E+00  0.000E+00  3.92630E+01  1.380E-01  2.000E+01  2.000E+04 -1.820E-01
   1   11   25     2     6    6.8753E+04 -2.4013E+03   7.1154E+04  0.000E+00  0.000E+00  0.000E+00  3.90167E+01  1.417E-01  2.000E+01  2.000E+04 -1.201E-01
   1   12   24     2     7    7.1154E+04 -1.3358E+03   7.2490E+04  0.000E+00  0.000E+00  0.000E+00  3.87690E+01  1.440E-01  2.000E+01  2.000E+04 -6.679E-02
   1   13   23     2     8    7.2490E+04 -5.6115E+02   7.3051E+04  0.000E+00  0.000E+00  0.000E+00  3.85201E+01  1.451E-01  2.000E+01  2.000E+04 -2.806E-02
   1   14   22     2     9    7.3051E+04  2.6227E+03   7.0428E+04  0.000E+00  0.000E+00  0.000E+00  3.82689E+01  1.439E-01  2.000E+01  2.000E+04  1.311E-01
   1   14   22     3     1    2.2638E+05 -7.6847E+03   2.3406E+05  0.000E+00  0.000E+00  0.000E+00  3.77535E+01  1.980E-01  2.000E+01  2.000E+04 -3.842E-01
   1   15   23     3     2    2.3406E+05  2.0083E+03   2.3205E+05  0.000E+00  0.000E+00  0.000E+00  3.68661E+01  1.994E-01  2.000E+01  2.000E+04  1.004E-01
   1   15   24     3     3    2.3205E+05  1.8789E+02   2.3186E+05  0.000E+00  0.000E+00  0.000E+00  3.59766E+01  1.989E-01  2.000E+01  2.000E+04  9.394E-03
   1   15   25     3     4    2.3186E+05  6.4205E+02   2.3122E+05  0.000E+00  0.000E+00  0.000E+00  3.50875E+01  1.986E-01  2.000E+01  2.000E+04  3.210E-02
   1   15   26     3     5    2.3122E+05 -1.0419E+03   2.3226E+05  0.000E+00  0.000E+00  0.000E+00  3.41987E+01  1.987E-01  2.000E+01  2.000E+04 -5.209E-02
   1   16   27     3     6    2.3226E+05 -2.1987E+03   2.3446E+05  0.000E+00  0.000E+00  0.000E+00  3.33107E+01  1.996E-01  2.000E+01  2.000E+04 -1.099E-01
   1   17   28     3     7    2.3446E+05 -3.2745E+03   2.3774E+05  0.000E+00  0.000E+00  0.000E+00  3.24232E+01  2.010E-01  2.000E+01  2.000E+04 -1.637E-01
   1   18   29     3     8    2.3774E+05 -5.1449E+03   2.4288E+05  0.000E+00  0.000E+00  0.000E+00  3.15365E+01  2.031E-01  2.000E+01  2.000E+04 -2.572E-01
   1   18   30     3     9    2.4288E+05 -4.5222E+03   2.4740E+05  0.000E+00  0.000E+00  0.000E+00  3.06500E+01  2.056E-01  2.000E+01  2.000E+04 -2.261E-01



1
              HEAD IN LAYER   1 AT END OF TIME STEP   1 IN STRESS PERIOD    3
  ---------------------------------------------------------------------------

          1      2      3      4      5      6      7      8      9     10
         11     12     13     14     15     16     17     18     19     20
         21     22     23     24     25     26     27     28     29     30
 .........................................................................
   1  ****** ****** ****** ****** ****** ****** ****** ****** ****** ******
      ****** ****** ****** ****** ****** ****** ****** ****** ****** ******
      ****** ****** ****** ****** ****** ****** ****** ****** ****** ******
   2  ****** ****** ****** ****** ****** ****** ****** ****** ****** ******
      ****** ****** ****** ****** ****** ****** ****** ****** ****** ******
      ****** ****** ****** ****** ****** ****** ****** ****** ****** ******
   3  ****** ****** ****** ****** ****** ****** ****** ****** ****** ******
      ****** ****** ****** ****** ****** ****** ****** ****** ****** ******
      ****** ****** ****** ****** ****** ****** ****** ****** ****** ******
   4  ****** ****** ****** ****** ****** ****** ****** ****** ****** ******
      ****** ****** ****** ****** ****** ****** ****** ****** ****** ******
      ****** ****** ****** ****** ****** ****** ****** ****** ****** ******
   5  ****** ****** ****** ****** ****** ****** ****** ****** ****** ******
      ****** ****** ****** ****** ****** ****** ****** ****** ****** ******
      ****** ****** ****** ****** ****** ****** ****** ****** ****** ******
   6  ****** ****** ****** ****** ****** ****** ****** ****** ****** ******
      ****** ****** ****** ****** ****** ****** ****** ****** ****** ******
      ****** ****** ****** ****** ****** ****** ****** ****** ****** ******
   7  ****** ****** ****** ****** ****** ****** ****** ****** ****** ******
      ****** ****** ****** ****** ****** ****** ****** ****** ****** ******
      ****** ****** ****** ****** ****** ****** ****** ****** ****** ******
   8  ****** ****** ****** ****** ****** ****** ****** ****** ****** ******
      ****** ****** ****** ****** ****** ****** ****** ****** ****** ******
      ****** ****** ****** ****** ****** ****** ****** ****** ****** ******
   9  ****** ****** ****** ****** ****** ****** ****** ****** ****** ******
      ****** ****** ****** ****** ****** ****** ****** ****** ****** ******
      ****** ****** ****** ****** ****** ****** ****** ****** ****** ******
  10  ****** ****** ****** ****** ****** ****** ****** ****** ****** ******
      ****** ****** ****** ****** ****** ****** ****** ****** ****** ******
      ****** ****** ****** ****** ****** ****** ****** ****** ****** ******
  11  ****** ****** ****** ****** ****** ****** ****** ****** ****** ******
      ****** ****** ****** ****** ****** ****** ****** ****** ****** ******
      ****** ****** ****** ****** ****** ****** ****** ****** ****** ******
  12  ****** ****** ****** ****** ****** ****** ****** ****** ****** ******
      ****** ****** ****** ****** ****** ****** ****** ****** ****** ******
      ****** ****** ****** ****** ****** ****** ****** ****** ****** ******
  13  ****** ****** ****** ****** ****** ****** ****** ****** ****** ******
      ****** ****** ****** ****** ****** ****** ****** ****** ****** ******
      ****** ****** ****** ****** ****** ****** ****** ****** ****** ******
  14  ****** ****** ****** ****** ****** ****** ****** ****** ****** ******
      ****** ****** ****** ****** ****** ****** ****** ****** ****** ******
      ****** ****** ****** ****** ****** ****** ****** ****** ****** ******
  15  ****** ****** ****** ****** ****** ****** ****** ****** ****** ******
      ****** ****** ****** ****** ****** ****** ****** ****** ****** ******
      ****** ****** ****** ****** ****** ****** ****** ****** ****** ******
  16  ****** ****** ****** ****** ****** ****** ****** ****** ****** ******
      ****** ****** ****** ****** ****** ****** ****** ****** ****** ******
      ****** ****** ****** ****** ****** ****** ****** ****** ****** ******
  17  ****** ****** ****** ****** ****** ****** ****** ****** ****** ******
      ****** ****** ****** ****** ****** ****** ****** ****** ****** ******
      ****** ****** ****** ****** ****** ****** ****** ****** ****** ******
  18  ****** ****** ****** ****** ****** ****** ****** ****** ****** ******
      ****** ****** ****** ****** ****** ****** ****** ****** ****** ******
      ****** ****** ****** ****** ****** ****** ****** ****** ****** ******
  19  ****** ****** ****** ****** ****** ****** ****** ****** ****** ******
      ****** ****** ****** ****** ****** ****** ****** ****** ****** ******
      ****** ****** ****** ****** ****** ****** ****** ****** ****** ******
  20  ****** ****** ****** ****** ****** ****** ****** ****** ****** ******
      ****** ****** ****** ****** ****** ****** ****** ****** ****** ******
      ****** ****** ****** ****** ****** ****** ****** ****** ****** ******
  21  ****** ****** ****** ****** ****** ****** ****** ****** ****** ******
      ****** ****** ****** ****** ****** ****** ****** ****** ****** ******
      ****** ****** ****** ****** ****** ****** ****** ****** ****** ******
  22  ****** ****** ****** ****** ****** ****** ****** ****** ****** ******
      ****** ****** ****** ****** ****** ****** ****** ****** ****** ******
      ****** ****** ****** ****** ****** ****** ****** ****** ****** ******
  23  ****** ****** ****** ****** ****** ****** ****** ****** ****** ******
      ****** ****** ****** ****** ****** ****** ****** ****** ****** ******
      ****** ****** ****** ****** ****** ****** ****** ****** ****** ******
  24  ****** ****** ****** ****** ****** ****** ****** ****** ****** ******
      ****** ****** ****** ****** ****** ****** ****** ****** ****** ******
      ****** ****** ****** ****** ****** ****** ****** ****** ****** ******
  25  ****** ****** ****** ****** ****** ****** ****** ****** ****** ******
      ****** ****** ****** ****** ****** ****** ****** ****** ****** ******
      ****** ****** ****** ****** ****** ****** ****** ****** ****** ******

 HEAD WILL BE SAVED ON UNIT   51 AT END OF TIME STEP    1, STRESS PERIOD    3
1
  VOLUMETRIC BUDGET FOR ENTIRE MODEL AT END OF TIME STEP    1, STRESS PERIOD   3
  ------------------------------------------------------------------------------

     CUMULATIVE VOLUMES      L**3       RATES FOR THIS TIME STEP      L**3/T
     ------------------                 ------------------------

           IN:                                      IN:
           ---                                      ---
             STORAGE =    21670030.0565               STORAGE =       25448.5691
       CONSTANT HEAD =    27360492.2810         CONSTANT HEAD =      119203.8371
               WELLS =           0.0000                 WELLS =           0.0000
            RECHARGE =     6292800.0000              RECHARGE =           0.0000
      STREAM LEAKAGE =     2790698.7019        STREAM LEAKAGE =       13857.1749

            TOTAL IN =    58114021.0395              TOTAL IN =      158509.5811

          OUT:                                     OUT:
          ----                                     ----
             STORAGE =           0.0000               STORAGE =           0.0000
       CONSTANT HEAD =           0.0000         CONSTANT HEAD =           0.0000
               WELLS =    12945796.2598                 WELLS =       47247.4316
            RECHARGE =           0.0000              RECHARGE =           0.0000
      STREAM LEAKAGE =    45168225.6041        STREAM LEAKAGE =      111262.1521

           TOTAL OUT =    58114021.8639             TOTAL OUT =      158509.5837

            IN - OUT =          -0.8244              IN - OUT =      -2.5817E-03

 PERCENT DISCREPANCY =          -0.00     PERCENT DISCREPANCY =          -0.00






         TIME SUMMARY AT END OF TIME STEP    1 IN STRESS PERIOD    3
                    SECONDS     MINUTES      HOURS       DAYS        YEARS
                    -----------------------------------------------------------
   TIME STEP LENGTH 7.86240E+06 1.31040E+05  2184.0      91.000     0.24914    
 STRESS PERIOD TIME 7.86240E+06 1.31040E+05  2184.0      91.000     0.24914    
         TOTAL TIME 2.36736E+07 3.94560E+05  6576.0      274.00     0.75017    
1
1
                            STRESS PERIOD NO.    4, LENGTH =   91.00000    
                            -----------------------------------------------

                              NUMBER OF TIME STEPS =     1

                               MULTIPLIER FOR DELT =     1.500

                            INITIAL TIME STEP SIZE =   91.00000    

 WELL NO.  LAYER   ROW   COL   STRESS RATE         
 --------------------------------------------------
      1      1     17     21     -0.3064E+05
      2      1     16     17     -0.1161E+05
      3      1     13     18       0.000    
      4      1     14     25      -5001.    

      4 WELLS

                 RECHARGE =  1.000000E-03

 REUSING STREAM SEGMENT DATA FROM LAST STRESS PERIOD
 
 SOLVING FOR HEAD 


     6 CALLS TO PCG ROUTINE FOR TIME STEP   1 IN STRESS PERIOD    4
    21 TOTAL ITERATIONS

 OUTPUT CONTROL FOR STRESS PERIOD    4   TIME STEP    1
    SAVE BUDGET
    SAVE HEAD FOR ALL LAYERS
    PRINT HEAD FOR ALL LAYERS
 UBDSV2 SAVING "STREAMFLOW OUT  " ON UNIT  50 AT TIME STEP  1, STRESS PERIOD   4



 STREAM LISTING     PERIOD      4   STEP        1

 LAYER ROW COL. STREAM  RCH.  FLOW INTO     FLOW TO   FLOW OUT OF   OVRLND.     DIRECT     STREAM       STREAM     STREAM     STREAM   STREAMBED  STREAMBED
                SEG.NO.  NO.  STRM. RCH.    AQUIFER    STRM. RCH.    RUNOFF     PRECIP       ET          HEAD       DEPTH      WIDTH   CONDCTNC.   GRADIENT

   1   13    1     1     1    1.0000E+05 -2.9635E+03   1.0296E+05  0.000E+00  0.000E+00  0.000E+00  4.84073E+01  1.459E-01  2.000E+01  2.000E+04 -1.482E-01
   1   13    2     1     2    1.0296E+05 -4.9499E+03   1.0791E+05  0.000E+00  0.000E+00  0.000E+00  4.79334E+01  1.493E-01  2.000E+01  2.000E+04 -2.475E-01
   1   14    3     1     3    1.0791E+05 -3.9761E+03   1.1189E+05  0.000E+00  0.000E+00  0.000E+00  4.74599E+01  1.531E-01  2.000E+01  2.000E+04 -1.988E-01
   1   15    4     1     4    1.1189E+05 -3.8592E+03   1.1575E+05  0.000E+00  0.000E+00  0.000E+00  4.69859E+01  1.563E-01  2.000E+01  2.000E+04 -1.930E-01
   1   16    5     1     5    1.1575E+05 -4.1457E+03   1.1989E+05  0.000E+00  0.000E+00  0.000E+00  4.65119E+01  1.596E-01  2.000E+01  2.000E+04 -2.073E-01
   1   16    6     1     6    1.1989E+05 -3.2812E+03   1.2318E+05  0.000E+00  0.000E+00  0.000E+00  4.60376E+01  1.626E-01  2.000E+01  2.000E+04 -1.641E-01
   1   16    7     1     7    1.2318E+05 -3.3407E+03   1.2652E+05  0.000E+00  0.000E+00  0.000E+00  4.55630E+01  1.653E-01  2.000E+01  2.000E+04 -1.670E-01
   1   16    8     1     8    1.2652E+05 -3.3604E+03   1.2988E+05  0.000E+00  0.000E+00  0.000E+00  4.50884E+01  1.679E-01  2.000E+01  2.000E+04 -1.680E-01
   1   16    9     1     9    1.2988E+05 -3.3222E+03   1.3320E+05  0.000E+00  0.000E+00  0.000E+00  4.46137E+01  1.705E-01  2.000E+01  2.000E+04 -1.661E-01
   1   16   10     1    10    1.3320E+05 -3.2182E+03   1.3642E+05  0.000E+00  0.000E+00  0.000E+00  4.41390E+01  1.730E-01  2.000E+01  2.000E+04 -1.609E-01
   1   16   11     1    11    1.3642E+05 -3.0366E+03   1.3945E+05  0.000E+00  0.000E+00  0.000E+00  4.36641E+01  1.754E-01  2.000E+01  2.000E+04 -1.518E-01
   1   16   12     1    12    1.3945E+05 -3.2908E+03   1.4274E+05  0.000E+00  0.000E+00  0.000E+00  4.31892E+01  1.778E-01  2.000E+01  2.000E+04 -1.645E-01
   1   15   13     1    13    1.4274E+05 -2.6556E+03   1.4540E+05  0.000E+00  0.000E+00  0.000E+00  4.27142E+01  1.801E-01  2.000E+01  2.000E+04 -1.328E-01
   1   14   14     1    14    1.4540E+05 -2.4247E+03   1.4782E+05  0.000E+00  0.000E+00  0.000E+00  4.22388E+01  1.820E-01  2.000E+01  2.000E+04 -1.212E-01
   1   13   15     1    15    1.4782E+05 -2.8288E+03   1.5065E+05  0.000E+00  0.000E+00  0.000E+00  4.17635E+01  1.839E-01  2.000E+01  2.000E+04 -1.414E-01
   1   12   16     1    16    1.5065E+05 -4.8718E+03   1.5553E+05  0.000E+00  0.000E+00  0.000E+00  4.12890E+01  1.868E-01  2.000E+01  2.000E+04 -2.436E-01
   1   12   17     1    17    1.5553E+05 -2.6368E+03   1.5816E+05  0.000E+00  0.000E+00  0.000E+00  4.08145E+01  1.895E-01  2.000E+01  2.000E+04 -1.318E-01
   1   12   18     1    18    1.5816E+05 -2.4579E+03   1.6062E+05  0.000E+00  0.000E+00  0.000E+00  4.03391E+01  1.913E-01  2.000E+01  2.000E+04 -1.229E-01
   1   12   19     1    19    1.6062E+05 -3.7585E+03   1.6438E+05  0.000E+00  0.000E+00  0.000E+00  3.98640E+01  1.936E-01  2.000E+01  2.000E+04 -1.879E-01
   1   13   20     1    20    1.6438E+05 -7.2455E+02   1.6510E+05  0.000E+00  0.000E+00  0.000E+00  3.93883E+01  1.952E-01  2.000E+01  2.000E+04 -3.623E-02
   1   14   21     1    21    1.6510E+05  2.5260E+03   1.6258E+05  0.000E+00  0.000E+00  0.000E+00  3.89104E+01  1.945E-01  2.000E+01  2.000E+04  1.263E-01
   1   14   22     1    22    1.6258E+05  5.8081E+03   1.5677E+05  0.000E+00  0.000E+00  0.000E+00  3.84302E+01  1.915E-01  2.000E+01  2.000E+04  2.904E-01
   1    9   30     2     1    5.0000E+04 -2.7620E+03   5.2762E+04  0.000E+00  0.000E+00  0.000E+00  4.02428E+01  1.178E-01  2.000E+01  2.000E+04 -1.381E-01
   1    9   29     2     2    5.2762E+04 -3.0922E+03   5.5854E+04  0.000E+00  0.000E+00  0.000E+00  3.99968E+01  1.218E-01  2.000E+01  2.000E+04 -1.546E-01
   1    9   28     2     3    5.5854E+04 -3.4729E+03   5.9327E+04  0.000E+00  0.000E+00  0.000E+00  3.97511E+01  1.261E-01  2.000E+01  2.000E+04 -1.736E-01
   1    9   27     2     4    5.9327E+04 -6.2252E+03   6.5552E+04  0.000E+00  0.000E+00  0.000E+00  3.95074E+01  1.324E-01  2.000E+01  2.000E+04 -3.113E-01
   1   10   26     2     5    6.5552E+04 -3.7675E+03   6.9320E+04  0.000E+00  0.000E+00  0.000E+00  3.92636E+01  1.386E-01  2.000E+01  2.000E+04 -1.884E-01
   1   11   25     2     6    6.9320E+04 -2.5306E+03   7.1850E+04  0.000E+00  0.000E+00  0.000E+00  3.90175E+01  1.425E-01  2.000E+01  2.000E+04 -1.265E-01
   1   12   24     2     7    7.1850E+04 -1.4623E+03   7.3313E+04  0.000E+00  0.000E+00  0.000E+00  3.87699E+01  1.449E-01  2.000E+01  2.000E+04 -7.312E-02
   1   13   23     2     8    7.3313E+04 -6.7468E+02   7.3987E+04  0.000E+00  0.000E+00  0.000E+00  3.85212E+01  1.462E-01  2.000E+01  2.000E+04 -3.373E-02
   1   14   22     2     9    7.3987E+04  2.6050E+03   7.1382E+04  0.000E+00  0.000E+00  0.000E+00  3.82700E+01  1.450E-01  2.000E+01  2.000E+04  1.302E-01
   1   14   22     3     1    2.2815E+05 -7.7067E+03   2.3586E+05  0.000E+00  0.000E+00  0.000E+00  3.77544E+01  1.989E-01  2.000E+01  2.000E+04 -3.853E-01
   1   15   23     3     2    2.3586E+05  1.9767E+03   2.3388E+05  0.000E+00  0.000E+00  0.000E+00  3.68670E+01  2.004E-01  2.000E+01  2.000E+04  9.883E-02
   1   15   24     3     3    2.3388E+05  1.2592E+02   2.3376E+05  0.000E+00  0.000E+00  0.000E+00  3.59776E+01  1.998E-01  2.000E+01  2.000E+04  6.296E-03
   1   15   25     3     4    2.3376E+05  5.6212E+02   2.3319E+05  0.000E+00  0.000E+00  0.000E+00  3.50885E+01  1.996E-01  2.000E+01  2.000E+04  2.811E-02
   1   15   26     3     5    2.3319E+05 -1.1607E+03   2.3435E+05  0.000E+00  0.000E+00  0.000E+00  3.41998E+01  1.998E-01  2.000E+01  2.000E+04 -5.804E-02
   1   16   27     3     6    2.3435E+05 -2.3176E+03   2.3667E+05  0.000E+00  0.000E+00  0.000E+00  3.33118E+01  2.007E-01  2.000E+01  2.000E+04 -1.159E-01
   1   17   28     3     7    2.3667E+05 -3.3930E+03   2.4006E+05  0.000E+00  0.000E+00  0.000E+00  3.24244E+01  2.021E-01  2.000E+01  2.000E+04 -1.696E-01
   1   18   29     3     8    2.4006E+05 -5.2473E+03   2.4531E+05  0.000E+00  0.000E+00  0.000E+00  3.15377E+01  2.043E-01  2.000E+01  2.000E+04 -2.624E-01
   1   18   30     3     9    2.4531E+05 -4.6218E+03   2.4993E+05  0.000E+00  0.000E+00  0.000E+00  3.06513E+01  2.068E-01  2.000E+01  2.000E+04 -2.311E-01



1
              HEAD IN LAYER   1 AT END OF TIME STEP   1 IN STRESS PERIOD    4
  ---------------------------------------------------------------------------

          1      2      3      4      5      6      7      8      9     10
         11     12     13     14     15     16     17     18     19     20
         21     22     23     24     25     26     27     28     29     30
 .........................................................................
   1  ****** ****** ****** ****** ****** ****** ****** ****** ****** ******
      ****** ****** ****** ****** ****** ****** ****** ****** ****** ******
      ****** ****** ****** ****** ****** ****** ****** ****** ****** ******
   2  ****** ****** ****** ****** ****** ****** ****** ****** ****** ******
      ****** ****** ****** ****** ****** ****** ****** ****** ****** ******
      ****** ****** ****** ****** ****** ****** ****** ****** ****** ******
   3  ****** ****** ****** ****** ****** ****** ****** ****** ****** ******
      ****** ****** ****** ****** ****** ****** ****** ****** ****** ******
      ****** ****** ****** ****** ****** ****** ****** ****** ****** ******
   4  ****** ****** ****** ****** ****** ****** ****** ****** ****** ******
      ****** ****** ****** ****** ****** ****** ****** ****** ****** ******
      ****** ****** ****** ****** ****** ****** ****** ****** ****** ******
   5  ****** ****** ****** ****** ****** ****** ****** ****** ****** ******
      ****** ****** ****** ****** ****** ****** ****** ****** ****** ******
      ****** ****** ****** ****** ****** ****** ****** ****** ****** ******
   6  ****** ****** ****** ****** ****** ****** ****** ****** ****** ******
      ****** ****** ****** ****** ****** ****** ****** ****** ****** ******
      ****** ****** ****** ****** ****** ****** ****** ****** ****** ******
   7  ****** ****** ****** ****** ****** ****** ****** ****** ****** ******
      ****** ****** ****** ****** ****** ****** ****** ****** ****** ******
      ****** ****** ****** ****** ****** ****** ****** ****** ****** ******
   8  ****** ****** ****** ****** ****** ****** ****** ****** ****** ******
      ****** ****** ****** ****** ****** ****** ****** ****** ****** ******
      ****** ****** ****** ****** ****** ****** ****** ****** ****** ******
   9  ****** ****** ****** ****** ****** ****** ****** ****** ****** ******
      ****** ****** ****** ****** ****** ****** ****** ****** ****** ******
      ****** ****** ****** ****** ****** ****** ****** ****** ****** ******
  10  ****** ****** ****** ****** ****** ****** ****** ****** ****** ******
      ****** ****** ****** ****** ****** ****** ****** ****** ****** ******
      ****** ****** ****** ****** ****** ****** ****** ****** ****** ******
  11  ****** ****** ****** ****** ****** ****** ****** ****** ****** ******
      ****** ****** ****** ****** ****** ****** ****** ****** ****** ******
      ****** ****** ****** ****** ****** ****** ****** ****** ****** ******
  12  ****** ****** ****** ****** ****** ****** ****** ****** ****** ******
      ****** ****** ****** ****** ****** ****** ****** ****** ****** ******
      ****** ****** ****** ****** ****** ****** ****** ****** ****** ******
  13  ****** ****** ****** ****** ****** ****** ****** ****** ****** ******
      ****** ****** ****** ****** ****** ****** ****** ****** ****** ******
      ****** ****** ****** ****** ****** ****** ****** ****** ****** ******
  14  ****** ****** ****** ****** ****** ****** ****** ****** ****** ******
      ****** ****** ****** ****** ****** ****** ****** ****** ****** ******
      ****** ****** ****** ****** ****** ****** ****** ****** ****** ******
  15  ****** ****** ****** ****** ****** ****** ****** ****** ****** ******
      ****** ****** ****** ****** ****** ****** ****** ****** ****** ******
      ****** ****** ****** ****** ****** ****** ****** ****** ****** ******
  16  ****** ****** ****** ****** ****** ****** ****** ****** ****** ******
      ****** ****** ****** ****** ****** ****** ****** ****** ****** ******
      ****** ****** ****** ****** ****** ****** ****** ****** ****** ******
  17  ****** ****** ****** ****** ****** ****** ****** ****** ****** ******
      ****** ****** ****** ****** ****** ****** ****** ****** ****** ******
      ****** ****** ****** ****** ****** ****** ****** ****** ****** ******
  18  ****** ****** ****** ****** ****** ****** ****** ****** ****** ******
      ****** ****** ****** ****** ****** ****** ****** ****** ****** ******
      ****** ****** ****** ****** ****** ****** ****** ****** ****** ******
  19  ****** ****** ****** ****** ****** ****** ****** ****** ****** ******
      ****** ****** ****** ****** ****** ****** ****** ****** ****** ******
      ****** ****** ****** ****** ****** ****** ****** ****** ****** ******
  20  ****** ****** ****** ****** ****** ****** ****** ****** ****** ******
      ****** ****** ****** ****** ****** ****** ****** ****** ****** ******
      ****** ****** ****** ****** ****** ****** ****** ****** ****** ******
  21  ****** ****** ****** ****** ****** ****** ****** ****** ****** ******
      ****** ****** ****** ****** ****** ****** ****** ****** ****** ******
      ****** ****** ****** ****** ****** ****** ****** ****** ****** ******
  22  ****** ****** ****** ****** ****** ****** ****** ****** ****** ******
      ****** ****** ****** ****** ****** ****** ****** ****** ****** ******
      ****** ****** ****** ****** ****** ****** ****** ****** ****** ******
  23  ****** ****** ****** ****** ****** ****** ****** ****** ****** ******
      ****** ****** ****** ****** ****** ****** ****** ****** ****** ******
      ****** ****** ****** ****** ****** ****** ****** ****** ****** ******
  24  ****** ****** ****** ****** ****** ****** ****** ****** ****** ******
      ****** ****** ****** ****** ****** ****** ****** ****** ****** ******
      ****** ****** ****** ****** ****** ****** ****** ****** ****** ******
  25  ****** ****** ****** ****** ****** ****** ****** ****** ****** ******
      ****** ****** ****** ****** ****** ****** ****** ****** ****** ******
      ****** ****** ****** ****** ****** ****** ****** ****** ****** ******

 HEAD WILL BE SAVED ON UNIT   51 AT END OF TIME STEP    1, STRESS PERIOD    4
1
  VOLUMETRIC BUDGET FOR ENTIRE MODEL AT END OF TIME STEP    1, STRESS PERIOD   4
  ------------------------------------------------------------------------------

     CUMULATIVE VOLUMES      L**3       RATES FOR THIS TIME STEP      L**3/T
     ------------------                 ------------------------

           IN:                                      IN:
           ---                                      ---
             STORAGE =    21794298.0166               STORAGE =        1365.5820
       CONSTANT HEAD =    38146002.8265         CONSTANT HEAD =      118522.0939
               WELLS =           0.0000                 WELLS =           0.0000
            RECHARGE =     8804400.0000              RECHARGE =       27600.0000
      STREAM LEAKAGE =     4028645.0911        STREAM LEAKAGE =       13603.8065

            TOTAL IN =    72773345.9342              TOTAL IN =      161091.4824

          OUT:                                     OUT:
          ----                                     ----
             STORAGE =       27857.4315               STORAGE =         306.1256
       CONSTANT HEAD =           0.0000         CONSTANT HEAD =           0.0000
               WELLS =    17245312.5359                 WELLS =       47247.4316
            RECHARGE =           0.0000              RECHARGE =           0.0000
      STREAM LEAKAGE =    55500176.6038        STREAM LEAKAGE =      113537.9231

           TOTAL OUT =    72773346.5712             TOTAL OUT =      161091.4803

            IN - OUT =          -0.6369              IN - OUT =       2.0607E-03

 PERCENT DISCREPANCY =          -0.00     PERCENT DISCREPANCY =           0.00






         TIME SUMMARY AT END OF TIME STEP    1 IN STRESS PERIOD    4
                    SECONDS     MINUTES      HOURS       DAYS        YEARS
                    -----------------------------------------------------------
   TIME STEP LENGTH 7.86240E+06 1.31040E+05  2184.0      91.000     0.24914    
 STRESS PERIOD TIME 7.86240E+06 1.31040E+05  2184.0      91.000     0.24914    
         TOTAL TIME 3.15360E+07 5.25600E+05  8760.0      365.00     0.99932    
1
1
                            STRESS PERIOD NO.    5, LENGTH =   92.00000    
                            -----------------------------------------------

                              NUMBER OF TIME STEPS =     1

                               MULTIPLIER FOR DELT =     1.500

                            INITIAL TIME STEP SIZE =   92.00000    

 WELL NO.  LAYER   ROW   COL   STRESS RATE         
 --------------------------------------------------
      1      1     17     21     -0.3064E+05
      2      1     16     17     -0.1161E+05
      3      1     13     18       0.000    
      4      1     14     25      -5001.    

      4 WELLS

                 RECHARGE =  5.000000E-04

 REUSING STREAM SEGMENT DATA FROM LAST STRESS PERIOD
 
 SOLVING FOR HEAD 


     6 CALLS TO PCG ROUTINE FOR TIME STEP   1 IN STRESS PERIOD    5
    23 TOTAL ITERATIONS

 OUTPUT CONTROL FOR STRESS PERIOD    5   TIME STEP    1
    SAVE BUDGET
    SAVE HEAD FOR ALL LAYERS
    PRINT HEAD FOR ALL LAYERS
 UBDSV2 SAVING "STREAMFLOW OUT  " ON UNIT  50 AT TIME STEP  1, STRESS PERIOD   5



 STREAM LISTING     PERIOD      5   STEP        1

 LAYER ROW COL. STREAM  RCH.  FLOW INTO     FLOW TO   FLOW OUT OF   OVRLND.     DIRECT     STREAM       STREAM     STREAM     STREAM   STREAMBED  STREAMBED
                SEG.NO.  NO.  STRM. RCH.    AQUIFER    STRM. RCH.    RUNOFF     PRECIP       ET          HEAD       DEPTH      WIDTH   CONDCTNC.   GRADIENT

   1   13    1     1     1    1.0000E+05 -2.7905E+03   1.0279E+05  0.000E+00  0.000E+00  0.000E+00  4.84072E+01  1.459E-01  2.000E+01  2.000E+04 -1.395E-01
   1   13    2     1     2    1.0279E+05 -4.7098E+03   1.0750E+05  0.000E+00  0.000E+00  0.000E+00  4.79332E+01  1.491E-01  2.000E+01  2.000E+04 -2.355E-01
   1   14    3     1     3    1.0750E+05 -3.7526E+03   1.1125E+05  0.000E+00  0.000E+00  0.000E+00  4.74595E+01  1.526E-01  2.000E+01  2.000E+04 -1.876E-01
   1   15    4     1     4    1.1125E+05 -3.6467E+03   1.1490E+05  0.000E+00  0.000E+00  0.000E+00  4.69853E+01  1.557E-01  2.000E+01  2.000E+04 -1.823E-01
   1   16    5     1     5    1.1490E+05 -3.9603E+03   1.1886E+05  0.000E+00  0.000E+00  0.000E+00  4.65111E+01  1.588E-01  2.000E+01  2.000E+04 -1.980E-01
   1   16    6     1     6    1.1886E+05 -3.1286E+03   1.2199E+05  0.000E+00  0.000E+00  0.000E+00  4.60367E+01  1.617E-01  2.000E+01  2.000E+04 -1.564E-01
   1   16    7     1     7    1.2199E+05 -3.1834E+03   1.2517E+05  0.000E+00  0.000E+00  0.000E+00  4.55620E+01  1.642E-01  2.000E+01  2.000E+04 -1.592E-01
   1   16    8     1     8    1.2517E+05 -3.2003E+03   1.2837E+05  0.000E+00  0.000E+00  0.000E+00  4.50872E+01  1.668E-01  2.000E+01  2.000E+04 -1.600E-01
   1   16    9     1     9    1.2837E+05 -3.1615E+03   1.3153E+05  0.000E+00  0.000E+00  0.000E+00  4.46125E+01  1.693E-01  2.000E+01  2.000E+04 -1.581E-01
   1   16   10     1    10    1.3153E+05 -3.0587E+03   1.3459E+05  0.000E+00  0.000E+00  0.000E+00  4.41376E+01  1.717E-01  2.000E+01  2.000E+04 -1.529E-01
   1   16   11     1    11    1.3459E+05 -2.8794E+03   1.3747E+05  0.000E+00  0.000E+00  0.000E+00  4.36626E+01  1.740E-01  2.000E+01  2.000E+04 -1.440E-01
   1   16   12     1    12    1.3747E+05 -3.0880E+03   1.4056E+05  0.000E+00  0.000E+00  0.000E+00  4.31876E+01  1.763E-01  2.000E+01  2.000E+04 -1.544E-01
   1   15   13     1    13    1.4056E+05 -2.4279E+03   1.4299E+05  0.000E+00  0.000E+00  0.000E+00  4.27124E+01  1.784E-01  2.000E+01  2.000E+04 -1.214E-01
   1   14   14     1    14    1.4299E+05 -2.1896E+03   1.4518E+05  0.000E+00  0.000E+00  0.000E+00  4.22369E+01  1.801E-01  2.000E+01  2.000E+04 -1.095E-01
   1   13   15     1    15    1.4518E+05 -2.5959E+03   1.4777E+05  0.000E+00  0.000E+00  0.000E+00  4.17614E+01  1.819E-01  2.000E+01  2.000E+04 -1.298E-01
   1   12   16     1    16    1.4777E+05 -4.6444E+03   1.5242E+05  0.000E+00  0.000E+00  0.000E+00  4.12868E+01  1.846E-01  2.000E+01  2.000E+04 -2.322E-01
   1   12   17     1    17    1.5242E+05 -2.4761E+03   1.5489E+05  0.000E+00  0.000E+00  0.000E+00  4.08122E+01  1.872E-01  2.000E+01  2.000E+04 -1.238E-01
   1   12   18     1    18    1.5489E+05 -2.3032E+03   1.5720E+05  0.000E+00  0.000E+00  0.000E+00  4.03366E+01  1.889E-01  2.000E+01  2.000E+04 -1.152E-01
   1   12   19     1    19    1.5720E+05 -3.5745E+03   1.6077E+05  0.000E+00  0.000E+00  0.000E+00  3.98615E+01  1.910E-01  2.000E+01  2.000E+04 -1.787E-01
   1   13   20     1    20    1.6077E+05 -5.4906E+02   1.6132E+05  0.000E+00  0.000E+00  0.000E+00  3.93857E+01  1.925E-01  2.000E+01  2.000E+04 -2.745E-02
   1   14   21     1    21    1.6132E+05  2.6922E+03   1.5863E+05  0.000E+00  0.000E+00  0.000E+00  3.89077E+01  1.918E-01  2.000E+01  2.000E+04  1.346E-01
   1   14   22     1    22    1.5863E+05  5.8342E+03   1.5279E+05  0.000E+00  0.000E+00  0.000E+00  3.84273E+01  1.887E-01  2.000E+01  2.000E+04  2.917E-01
   1    9   30     2     1    5.0000E+04 -2.6465E+03   5.2646E+04  0.000E+00  0.000E+00  0.000E+00  4.02427E+01  1.177E-01  2.000E+01  2.000E+04 -1.323E-01
   1    9   29     2     2    5.2646E+04 -2.9771E+03   5.5624E+04  0.000E+00  0.000E+00  0.000E+00  3.99965E+01  1.215E-01  2.000E+01  2.000E+04 -1.489E-01
   1    9   28     2     3    5.5624E+04 -3.3570E+03   5.8981E+04  0.000E+00  0.000E+00  0.000E+00  3.97507E+01  1.257E-01  2.000E+01  2.000E+04 -1.678E-01
   1    9   27     2     4    5.8981E+04 -6.0641E+03   6.5045E+04  0.000E+00  0.000E+00  0.000E+00  3.95068E+01  1.318E-01  2.000E+01  2.000E+04 -3.032E-01
   1   10   26     2     5    6.5045E+04 -3.6014E+03   6.8646E+04  0.000E+00  0.000E+00  0.000E+00  3.92629E+01  1.379E-01  2.000E+01  2.000E+04 -1.801E-01
   1   11   25     2     6    6.8646E+04 -2.3709E+03   7.1017E+04  0.000E+00  0.000E+00  0.000E+00  3.90166E+01  1.416E-01  2.000E+01  2.000E+04 -1.185E-01
   1   12   24     2     7    7.1017E+04 -1.3203E+03   7.2337E+04  0.000E+00  0.000E+00  0.000E+00  3.87688E+01  1.438E-01  2.000E+01  2.000E+04 -6.602E-02
   1   13   23     2     8    7.2337E+04 -5.6343E+02   7.2901E+04  0.000E+00  0.000E+00  0.000E+00  3.85199E+01  1.449E-01  2.000E+01  2.000E+04 -2.817E-02
   1   14   22     2     9    7.2901E+04  2.6617E+03   7.0239E+04  0.000E+00  0.000E+00  0.000E+00  3.82687E+01  1.437E-01  2.000E+01  2.000E+04  1.331E-01
   1   14   22     3     1    2.2303E+05 -7.6763E+03   2.3071E+05  0.000E+00  0.000E+00  0.000E+00  3.77518E+01  1.962E-01  2.000E+01  2.000E+04 -3.838E-01
   1   15   23     3     2    2.3071E+05  2.1313E+03   2.2858E+05  0.000E+00  0.000E+00  0.000E+00  3.68643E+01  1.977E-01  2.000E+01  2.000E+04  1.066E-01
   1   15   24     3     3    2.2858E+05  2.3116E+02   2.2835E+05  0.000E+00  0.000E+00  0.000E+00  3.59748E+01  1.971E-01  2.000E+01  2.000E+04  1.156E-02
   1   15   25     3     4    2.2835E+05  6.6330E+02   2.2768E+05  0.000E+00  0.000E+00  0.000E+00  3.50857E+01  1.968E-01  2.000E+01  2.000E+04  3.317E-02
   1   15   26     3     5    2.2768E+05 -1.0380E+03   2.2872E+05  0.000E+00  0.000E+00  0.000E+00  3.41969E+01  1.969E-01  2.000E+01  2.000E+04 -5.190E-02
   1   16   27     3     6    2.2872E+05 -2.1587E+03   2.3088E+05  0.000E+00  0.000E+00  0.000E+00  3.33089E+01  1.977E-01  2.000E+01  2.000E+04 -1.079E-01
   1   17   28     3     7    2.3088E+05 -3.2304E+03   2.3411E+05  0.000E+00  0.000E+00  0.000E+00  3.24214E+01  1.991E-01  2.000E+01  2.000E+04 -1.615E-01
   1   18   29     3     8    2.3411E+05 -5.0934E+03   2.3920E+05  0.000E+00  0.000E+00  0.000E+00  3.15346E+01  2.013E-01  2.000E+01  2.000E+04 -2.547E-01
   1   18   30     3     9    2.3920E+05 -4.5097E+03   2.4371E+05  0.000E+00  0.000E+00  0.000E+00  3.06482E+01  2.037E-01  2.000E+01  2.000E+04 -2.255E-01



1
              HEAD IN LAYER   1 AT END OF TIME STEP   1 IN STRESS PERIOD    5
  ---------------------------------------------------------------------------

          1      2      3      4      5      6      7      8      9     10
         11     12     13     14     15     16     17     18     19     20
         21     22     23     24     25     26     27     28     29     30
 .........................................................................
   1  ****** ****** ****** ****** ****** ****** ****** ****** ****** ******
      ****** ****** ****** ****** ****** ****** ****** ****** ****** ******
      ****** ****** ****** ****** ****** ****** ****** ****** ****** ******
   2  ****** ****** ****** ****** ****** ****** ****** ****** ****** ******
      ****** ****** ****** ****** ****** ****** ****** ****** ****** ******
      ****** ****** ****** ****** ****** ****** ****** ****** ****** ******
   3  ****** ****** ****** ****** ****** ****** ****** ****** ****** ******
      ****** ****** ****** ****** ****** ****** ****** ****** ****** ******
      ****** ****** ****** ****** ****** ****** ****** ****** ****** ******
   4  ****** ****** ****** ****** ****** ****** ****** ****** ****** ******
      ****** ****** ****** ****** ****** ****** ****** ****** ****** ******
      ****** ****** ****** ****** ****** ****** ****** ****** ****** ******
   5  ****** ****** ****** ****** ****** ****** ****** ****** ****** ******
      ****** ****** ****** ****** ****** ****** ****** ****** ****** ******
      ****** ****** ****** ****** ****** ****** ****** ****** ****** ******
   6  ****** ****** ****** ****** ****** ****** ****** ****** ****** ******
      ****** ****** ****** ****** ****** ****** ****** ****** ****** ******
      ****** ****** ****** ****** ****** ****** ****** ****** ****** ******
   7  ****** ****** ****** ****** ****** ****** ****** ****** ****** ******
      ****** ****** ****** ****** ****** ****** ****** ****** ****** ******
      ****** ****** ****** ****** ****** ****** ****** ****** ****** ******
   8  ****** ****** ****** ****** ****** ****** ****** ****** ****** ******
      ****** ****** ****** ****** ****** ****** ****** ****** ****** ******
      ****** ****** ****** ****** ****** ****** ****** ****** ****** ******
   9  ****** ****** ****** ****** ****** ****** ****** ****** ****** ******
      ****** ****** ****** ****** ****** ****** ****** ****** ****** ******
      ****** ****** ****** ****** ****** ****** ****** ****** ****** ******
  10  ****** ****** ****** ****** ****** ****** ****** ****** ****** ******
      ****** ****** ****** ****** ****** ****** ****** ****** ****** ******
      ****** ****** ****** ****** ****** ****** ****** ****** ****** ******
  11  ****** ****** ****** ****** ****** ****** ****** ****** ****** ******
      ****** ****** ****** ****** ****** ****** ****** ****** ****** ******
      ****** ****** ****** ****** ****** ****** ****** ****** ****** ******
  12  ****** ****** ****** ****** ****** ****** ****** ****** ****** ******
      ****** ****** ****** ****** ****** ****** ****** ****** ****** ******
      ****** ****** ****** ****** ****** ****** ****** ****** ****** ******
  13  ****** ****** ****** ****** ****** ****** ****** ****** ****** ******
      ****** ****** ****** ****** ****** ****** ****** ****** ****** ******
      ****** ****** ****** ****** ****** ****** ****** ****** ****** ******
  14  ****** ****** ****** ****** ****** ****** ****** ****** ****** ******
      ****** ****** ****** ****** ****** ****** ****** ****** ****** ******
      ****** ****** ****** ****** ****** ****** ****** ****** ****** ******
  15  ****** ****** ****** ****** ****** ****** ****** ****** ****** ******
      ****** ****** ****** ****** ****** ****** ****** ****** ****** ******
      ****** ****** ****** ****** ****** ****** ****** ****** ****** ******
  16  ****** ****** ****** ****** ****** ****** ****** ****** ****** ******
      ****** ****** ****** ****** ****** ****** ****** ****** ****** ******
      ****** ****** ****** ****** ****** ****** ****** ****** ****** ******
  17  ****** ****** ****** ****** ****** ****** ****** ****** ****** ******
      ****** ****** ****** ****** ****** ****** ****** ****** ****** ******
      ****** ****** ****** ****** ****** ****** ****** ****** ****** ******
  18  ****** ****** ****** ****** ****** ****** ****** ****** ****** ******
      ****** ****** ****** ****** ****** ****** ****** ****** ****** ******
      ****** ****** ****** ****** ****** ****** ****** ****** ****** ******
  19  ****** ****** ****** ****** ****** ****** ****** ****** ****** ******
      ****** ****** ****** ****** ****** ****** ****** ****** ****** ******
      ****** ****** ****** ****** ****** ****** ****** ****** ****** ******
  20  ****** ****** ****** ****** ****** ****** ****** ****** ****** ******
      ****** ****** ****** ****** ****** ****** ****** ****** ****** ******
      ****** ****** ****** ****** ****** ****** ****** ****** ****** ******
  21  ****** ****** ****** ****** ****** ****** ****** ****** ****** ******
      ****** ****** ****** ****** ****** ****** ****** ****** ****** ******
      ****** ****** ****** ****** ****** ****** ****** ****** ****** ******
  22  ****** ****** ****** ****** ****** ****** ****** ****** ****** ******
      ****** ****** ****** ****** ****** ****** ****** ****** ****** ******
      ****** ****** ****** ****** ****** ****** ****** ****** ****** ******
  23  ****** ****** ****** ****** ****** ****** ****** ****** ****** ******
      ****** ****** ****** ****** ****** ****** ****** ****** ****** ******
      ****** ****** ****** ****** ****** ****** ****** ****** ****** ******
  24  ****** ****** ****** ****** ****** ****** ****** ****** ****** ******
      ****** ****** ****** ****** ****** ****** ****** ****** ****** ******
      ****** ****** ****** ****** ****** ****** ****** ****** ****** ******
  25  ****** ****** ****** ****** ****** ****** ****** ****** ****** ******
      ****** ****** ****** ****** ****** ****** ****** ****** ****** ******
      ****** ****** ****** ****** ****** ****** ****** ****** ****** ******

 HEAD WILL BE SAVED ON UNIT   51 AT END OF TIME STEP    1, STRESS PERIOD    5
1
  VOLUMETRIC BUDGET FOR ENTIRE MODEL AT END OF TIME STEP    1, STRESS PERIOD   5
  ------------------------------------------------------------------------------

     CUMULATIVE VOLUMES      L**3       RATES FOR THIS TIME STEP      L**3/T
     ------------------                 ------------------------

           IN:                                      IN:
           ---                                      ---
             STORAGE =    22198077.5907               STORAGE =        4388.9084
       CONSTANT HEAD =    49441064.2429         CONSTANT HEAD =      122772.4067
               WELLS =           0.0000                 WELLS =           0.0000
            RECHARGE =    10074000.0000              RECHARGE =       13800.0000
      STREAM LEAKAGE =     5336323.4330        STREAM LEAKAGE =       14213.8950

            TOTAL IN =    87049465.2667              TOTAL IN =      155175.2101

          OUT:                                     OUT:
          ----                                     ----
             STORAGE =       27857.4315               STORAGE =           0.0000
       CONSTANT HEAD =           0.0000         CONSTANT HEAD =           0.0000
               WELLS =    21592076.2435                 WELLS =       47247.4316
            RECHARGE =           0.0000              RECHARGE =           0.0000
      STREAM LEAKAGE =    65429532.2990        STREAM LEAKAGE =      107927.7793

           TOTAL OUT =    87049465.9741             TOTAL OUT =      155175.2109

            IN - OUT =          -0.7074              IN - OUT =      -7.6627E-04

 PERCENT DISCREPANCY =          -0.00     PERCENT DISCREPANCY =          -0.00






         TIME SUMMARY AT END OF TIME STEP    1 IN STRESS PERIOD    5
                    SECONDS     MINUTES      HOURS       DAYS        YEARS
                    -----------------------------------------------------------
   TIME STEP LENGTH 7.94880E+06 1.32480E+05  2208.0      92.000     0.25188    
 STRESS PERIOD TIME 7.94880E+06 1.32480E+05  2208.0      92.000     0.25188    
         TOTAL TIME 3.94848E+07 6.58080E+05  10968.      457.00      1.2512    
1
1
                            STRESS PERIOD NO.    6, LENGTH =   91.00000    
                            -----------------------------------------------

                              NUMBER OF TIME STEPS =     1

                               MULTIPLIER FOR DELT =     1.500

                            INITIAL TIME STEP SIZE =   91.00000    

 WELL NO.  LAYER   ROW   COL   STRESS RATE         
 --------------------------------------------------
      1      1     17     21     -0.3064E+05
      2      1     16     17     -0.1161E+05
      3      1     13     18       0.000    
      4      1     14     25      -5001.    

      4 WELLS

                 RECHARGE =  2.000000E-03

 REUSING STREAM SEGMENT DATA FROM LAST STRESS PERIOD
 
 SOLVING FOR HEAD 


     7 CALLS TO PCG ROUTINE FOR TIME STEP   1 IN STRESS PERIOD    6
    26 TOTAL ITERATIONS

 OUTPUT CONTROL FOR STRESS PERIOD    6   TIME STEP    1
    SAVE BUDGET
    SAVE HEAD FOR ALL LAYERS
    PRINT HEAD FOR ALL LAYERS
 UBDSV2 SAVING "STREAMFLOW OUT  " ON UNIT  50 AT TIME STEP  1, STRESS PERIOD   6



 STREAM LISTING     PERIOD      6   STEP        1

 LAYER ROW COL. STREAM  RCH.  FLOW INTO     FLOW TO   FLOW OUT OF   OVRLND.     DIRECT     STREAM       STREAM     STREAM     STREAM   STREAMBED  STREAMBED
                SEG.NO.  NO.  STRM. RCH.    AQUIFER    STRM. RCH.    RUNOFF     PRECIP       ET          HEAD       DEPTH      WIDTH   CONDCTNC.   GRADIENT

   1   13    1     1     1    1.0000E+05 -3.1902E+03   1.0319E+05  0.000E+00  0.000E+00  0.000E+00  4.84074E+01  1.460E-01  2.000E+01  2.000E+04 -1.595E-01
   1   13    2     1     2    1.0319E+05 -5.2355E+03   1.0843E+05  0.000E+00  0.000E+00  0.000E+00  4.79337E+01  1.496E-01  2.000E+01  2.000E+04 -2.618E-01
   1   14    3     1     3    1.0843E+05 -4.2922E+03   1.1272E+05  0.000E+00  0.000E+00  0.000E+00  4.74605E+01  1.536E-01  2.000E+01  2.000E+04 -2.146E-01
   1   15    4     1     4    1.1272E+05 -4.1836E+03   1.1690E+05  0.000E+00  0.000E+00  0.000E+00  4.69867E+01  1.571E-01  2.000E+01  2.000E+04 -2.092E-01
   1   16    5     1     5    1.1690E+05 -4.4589E+03   1.2136E+05  0.000E+00  0.000E+00  0.000E+00  4.65129E+01  1.607E-01  2.000E+01  2.000E+04 -2.229E-01
   1   16    6     1     6    1.2136E+05 -3.5205E+03   1.2488E+05  0.000E+00  0.000E+00  0.000E+00  4.60389E+01  1.639E-01  2.000E+01  2.000E+04 -1.760E-01
   1   16    7     1     7    1.2488E+05 -3.5808E+03   1.2846E+05  0.000E+00  0.000E+00  0.000E+00  4.55644E+01  1.667E-01  2.000E+01  2.000E+04 -1.790E-01
   1   16    8     1     8    1.2846E+05 -3.6010E+03   1.3206E+05  0.000E+00  0.000E+00  0.000E+00  4.50900E+01  1.695E-01  2.000E+01  2.000E+04 -1.800E-01
   1   16    9     1     9    1.3206E+05 -3.5619E+03   1.3562E+05  0.000E+00  0.000E+00  0.000E+00  4.46155E+01  1.723E-01  2.000E+01  2.000E+04 -1.781E-01
   1   16   10     1    10    1.3562E+05 -3.4555E+03   1.3908E+05  0.000E+00  0.000E+00  0.000E+00  4.41409E+01  1.750E-01  2.000E+01  2.000E+04 -1.728E-01
   1   16   11     1    11    1.3908E+05 -3.2708E+03   1.4235E+05  0.000E+00  0.000E+00  0.000E+00  4.36662E+01  1.776E-01  2.000E+01  2.000E+04 -1.635E-01
   1   16   12     1    12    1.4235E+05 -3.5915E+03   1.4594E+05  0.000E+00  0.000E+00  0.000E+00  4.31915E+01  1.801E-01  2.000E+01  2.000E+04 -1.796E-01
   1   15   13     1    13    1.4594E+05 -2.9739E+03   1.4892E+05  0.000E+00  0.000E+00  0.000E+00  4.27167E+01  1.826E-01  2.000E+01  2.000E+04 -1.487E-01
   1   14   14     1    14    1.4892E+05 -2.7450E+03   1.5166E+05  0.000E+00  0.000E+00  0.000E+00  4.22415E+01  1.847E-01  2.000E+01  2.000E+04 -1.372E-01
   1   13   15     1    15    1.5166E+05 -3.1420E+03   1.5480E+05  0.000E+00  0.000E+00  0.000E+00  4.17664E+01  1.869E-01  2.000E+01  2.000E+04 -1.571E-01
   1   12   16     1    16    1.5480E+05 -5.1662E+03   1.5997E+05  0.000E+00  0.000E+00  0.000E+00  4.12922E+01  1.899E-01  2.000E+01  2.000E+04 -2.583E-01
   1   12   17     1    17    1.5997E+05 -2.8662E+03   1.6284E+05  0.000E+00  0.000E+00  0.000E+00  4.08178E+01  1.928E-01  2.000E+01  2.000E+04 -1.433E-01
   1   12   18     1    18    1.6284E+05 -2.6874E+03   1.6552E+05  0.000E+00  0.000E+00  0.000E+00  4.03425E+01  1.948E-01  2.000E+01  2.000E+04 -1.344E-01
   1   12   19     1    19    1.6552E+05 -4.0437E+03   1.6957E+05  0.000E+00  0.000E+00  0.000E+00  3.98676E+01  1.972E-01  2.000E+01  2.000E+04 -2.022E-01
   1   13   20     1    20    1.6957E+05 -1.0071E+03   1.7057E+05  0.000E+00  0.000E+00  0.000E+00  3.93921E+01  1.989E-01  2.000E+01  2.000E+04 -5.035E-02
   1   14   21     1    21    1.7057E+05  2.2717E+03   1.6830E+05  0.000E+00  0.000E+00  0.000E+00  3.89144E+01  1.985E-01  2.000E+01  2.000E+04  1.136E-01
   1   14   22     1    22    1.6830E+05  5.7552E+03   1.6255E+05  0.000E+00  0.000E+00  0.000E+00  3.84343E+01  1.957E-01  2.000E+01  2.000E+04  2.878E-01
   1    9   30     2     1    5.0000E+04 -3.0036E+03   5.3004E+04  0.000E+00  0.000E+00  0.000E+00  4.02429E+01  1.179E-01  2.000E+01  2.000E+04 -1.502E-01
   1    9   29     2     2    5.3004E+04 -3.3313E+03   5.6335E+04  0.000E+00  0.000E+00  0.000E+00  3.99972E+01  1.222E-01  2.000E+01  2.000E+04 -1.666E-01
   1    9   28     2     3    5.6335E+04 -3.7090E+03   6.0044E+04  0.000E+00  0.000E+00  0.000E+00  3.97519E+01  1.269E-01  2.000E+01  2.000E+04 -1.855E-01
   1    9   27     2     4    6.0044E+04 -6.5336E+03   6.6578E+04  0.000E+00  0.000E+00  0.000E+00  3.95085E+01  1.335E-01  2.000E+01  2.000E+04 -3.267E-01
   1   10   26     2     5    6.6578E+04 -4.0874E+03   7.0665E+04  0.000E+00  0.000E+00  0.000E+00  3.92651E+01  1.401E-01  2.000E+01  2.000E+04 -2.044E-01
   1   11   25     2     6    7.0665E+04 -2.8359E+03   7.3501E+04  0.000E+00  0.000E+00  0.000E+00  3.90193E+01  1.443E-01  2.000E+01  2.000E+04 -1.418E-01
   1   12   24     2     7    7.3501E+04 -1.7314E+03   7.5232E+04  0.000E+00  0.000E+00  0.000E+00  3.87720E+01  1.470E-01  2.000E+01  2.000E+04 -8.657E-02
   1   13   23     2     8    7.5232E+04 -8.8412E+02   7.6116E+04  0.000E+00  0.000E+00  0.000E+00  3.85236E+01  1.486E-01  2.000E+01  2.000E+04 -4.421E-02
   1   14   22     2     9    7.6116E+04  2.5216E+03   7.3595E+04  0.000E+00  0.000E+00  0.000E+00  3.82726E+01  1.476E-01  2.000E+01  2.000E+04  1.261E-01
   1   14   22     3     1    2.3614E+05 -7.7599E+03   2.4390E+05  0.000E+00  0.000E+00  0.000E+00  3.77585E+01  2.030E-01  2.000E+01  2.000E+04 -3.880E-01
   1   15   23     3     2    2.4390E+05  1.7386E+03   2.4216E+05  0.000E+00  0.000E+00  0.000E+00  3.68712E+01  2.045E-01  2.000E+01  2.000E+04  8.693E-02
   1   15   24     3     3    2.4216E+05 -5.3981E+01   2.4222E+05  0.000E+00  0.000E+00  0.000E+00  3.59819E+01  2.041E-01  2.000E+01  2.000E+04 -2.699E-03
   1   15   25     3     4    2.4222E+05  3.7682E+02   2.4184E+05  0.000E+00  0.000E+00  0.000E+00  3.50929E+01  2.040E-01  2.000E+01  2.000E+04  1.884E-02
   1   15   26     3     5    2.4184E+05 -1.4083E+03   2.4325E+05  0.000E+00  0.000E+00  0.000E+00  3.42043E+01  2.043E-01  2.000E+01  2.000E+04 -7.041E-02
   1   16   27     3     6    2.4325E+05 -2.6225E+03   2.4587E+05  0.000E+00  0.000E+00  0.000E+00  3.33164E+01  2.053E-01  2.000E+01  2.000E+04 -1.311E-01
   1   17   28     3     7    2.4587E+05 -3.7039E+03   2.4957E+05  0.000E+00  0.000E+00  0.000E+00  3.24291E+01  2.069E-01  2.000E+01  2.000E+04 -1.852E-01
   1   18   29     3     8    2.4957E+05 -5.5375E+03   2.5511E+05  0.000E+00  0.000E+00  0.000E+00  3.15425E+01  2.092E-01  2.000E+01  2.000E+04 -2.769E-01
   1   18   30     3     9    2.5511E+05 -4.8453E+03   2.5996E+05  0.000E+00  0.000E+00  0.000E+00  3.06562E+01  2.117E-01  2.000E+01  2.000E+04 -2.423E-01



1
              HEAD IN LAYER   1 AT END OF TIME STEP   1 IN STRESS PERIOD    6
  ---------------------------------------------------------------------------

          1      2      3      4      5      6      7      8      9     10
         11     12     13     14     15     16     17     18     19     20
         21     22     23     24     25     26     27     28     29     30
 .........................................................................
   1  ****** ****** ****** ****** ****** ****** ****** ****** ****** ******
      ****** ****** ****** ****** ****** ****** ****** ****** ****** ******
      ****** ****** ****** ****** ****** ****** ****** ****** ****** ******
   2  ****** ****** ****** ****** ****** ****** ****** ****** ****** ******
      ****** ****** ****** ****** ****** ****** ****** ****** ****** ******
      ****** ****** ****** ****** ****** ****** ****** ****** ****** ******
   3  ****** ****** ****** ****** ****** ****** ****** ****** ****** ******
      ****** ****** ****** ****** ****** ****** ****** ****** ****** ******
      ****** ****** ****** ****** ****** ****** ****** ****** ****** ******
   4  ****** ****** ****** ****** ****** ****** ****** ****** ****** ******
      ****** ****** ****** ****** ****** ****** ****** ****** ****** ******
      ****** ****** ****** ****** ****** ****** ****** ****** ****** ******
   5  ****** ****** ****** ****** ****** ****** ****** ****** ****** ******
      ****** ****** ****** ****** ****** ****** ****** ****** ****** ******
      ****** ****** ****** ****** ****** ****** ****** ****** ****** ******
   6  ****** ****** ****** ****** ****** ****** ****** ****** ****** ******
      ****** ****** ****** ****** ****** ****** ****** ****** ****** ******
      ****** ****** ****** ****** ****** ****** ****** ****** ****** ******
   7  ****** ****** ****** ****** ****** ****** ****** ****** ****** ******
      ****** ****** ****** ****** ****** ****** ****** ****** ****** ******
      ****** ****** ****** ****** ****** ****** ****** ****** ****** ******
   8  ****** ****** ****** ****** ****** ****** ****** ****** ****** ******
      ****** ****** ****** ****** ****** ****** ****** ****** ****** ******
      ****** ****** ****** ****** ****** ****** ****** ****** ****** ******
   9  ****** ****** ****** ****** ****** ****** ****** ****** ****** ******
      ****** ****** ****** ****** ****** ****** ****** ****** ****** ******
      ****** ****** ****** ****** ****** ****** ****** ****** ****** ******
  10  ****** ****** ****** ****** ****** ****** ****** ****** ****** ******
      ****** ****** ****** ****** ****** ****** ****** ****** ****** ******
      ****** ****** ****** ****** ****** ****** ****** ****** ****** ******
  11  ****** ****** ****** ****** ****** ****** ****** ****** ****** ******
      ****** ****** ****** ****** ****** ****** ****** ****** ****** ******
      ****** ****** ****** ****** ****** ****** ****** ****** ****** ******
  12  ****** ****** ****** ****** ****** ****** ****** ****** ****** ******
      ****** ****** ****** ****** ****** ****** ****** ****** ****** ******
      ****** ****** ****** ****** ****** ****** ****** ****** ****** ******
  13  ****** ****** ****** ****** ****** ****** ****** ****** ****** ******
      ****** ****** ****** ****** ****** ****** ****** ****** ****** ******
      ****** ****** ****** ****** ****** ****** ****** ****** ****** ******
  14  ****** ****** ****** ****** ****** ****** ****** ****** ****** ******
      ****** ****** ****** ****** ****** ****** ****** ****** ****** ******
      ****** ****** ****** ****** ****** ****** ****** ****** ****** ******
  15  ****** ****** ****** ****** ****** ****** ****** ****** ****** ******
      ****** ****** ****** ****** ****** ****** ****** ****** ****** ******
      ****** ****** ****** ****** ****** ****** ****** ****** ****** ******
  16  ****** ****** ****** ****** ****** ****** ****** ****** ****** ******
      ****** ****** ****** ****** ****** ****** ****** ****** ****** ******
      ****** ****** ****** ****** ****** ****** ****** ****** ****** ******
  17  ****** ****** ****** ****** ****** ****** ****** ****** ****** ******
      ****** ****** ****** ****** ****** ****** ****** ****** ****** ******
      ****** ****** ****** ****** ****** ****** ****** ****** ****** ******
  18  ****** ****** ****** ****** ****** ****** ****** ****** ****** ******
      ****** ****** ****** ****** ****** ****** ****** ****** ****** ******
      ****** ****** ****** ****** ****** ****** ****** ****** ****** ******
  19  ****** ****** ****** ****** ****** ****** ****** ****** ****** ******
      ****** ****** ****** ****** ****** ****** ****** ****** ****** ******
      ****** ****** ****** ****** ****** ****** ****** ****** ****** ******
  20  ****** ****** ****** ****** ****** ****** ****** ****** ****** ******
      ****** ****** ****** ****** ****** ****** ****** ****** ****** ******
      ****** ****** ****** ****** ****** ****** ****** ****** ****** ******
  21  ****** ****** ****** ****** ****** ****** ****** ****** ****** ******
      ****** ****** ****** ****** ****** ****** ****** ****** ****** ******
      ****** ****** ****** ****** ****** ****** ****** ****** ****** ******
  22  ****** ****** ****** ****** ****** ****** ****** ****** ****** ******
      ****** ****** ****** ****** ****** ****** ****** ****** ****** ******
      ****** ****** ****** ****** ****** ****** ****** ****** ****** ******
  23  ****** ****** ****** ****** ****** ****** ****** ****** ****** ******
      ****** ****** ****** ****** ****** ****** ****** ****** ****** ******
      ****** ****** ****** ****** ****** ****** ****** ****** ****** ******
  24  ****** ****** ****** ****** ****** ****** ****** ****** ****** ******
      ****** ****** ****** ****** ****** ****** ****** ****** ****** ******
      ****** ****** ****** ****** ****** ****** ****** ****** ****** ******
  25  ****** ****** ****** ****** ****** ****** ****** ****** ****** ******
      ****** ****** ****** ****** ****** ****** ****** ****** ****** ******
      ****** ****** ****** ****** ****** ****** ****** ****** ****** ******

 HEAD WILL BE SAVED ON UNIT   51 AT END OF TIME STEP    1, STRESS PERIOD    6
1
  VOLUMETRIC BUDGET FOR ENTIRE MODEL AT END OF TIME STEP    1, STRESS PERIOD   6
  ------------------------------------------------------------------------------

     CUMULATIVE VOLUMES      L**3       RATES FOR THIS TIME STEP      L**3/T
     ------------------                 ------------------------

           IN:                                      IN:
           ---                                      ---
             STORAGE =    22198077.5907               STORAGE =           0.0000
       CONSTANT HEAD =    59643866.1250         CONSTANT HEAD =      112118.7020
               WELLS =           0.0000                 WELLS =           0.0000
            RECHARGE =    15097200.0000              RECHARGE =       55200.0000
      STREAM LEAKAGE =     6488742.2070        STREAM LEAKAGE =       12663.9426

            TOTAL IN =   103427885.9227              TOTAL IN =      179982.6446

          OUT:                                     OUT:
          ----                                     ----
             STORAGE =      948193.3903               STORAGE =       10113.5820
       CONSTANT HEAD =           0.0000         CONSTANT HEAD =           0.0000
               WELLS =    25891592.5196                 WELLS =       47247.4316
            RECHARGE =           0.0000              RECHARGE =           0.0000
      STREAM LEAKAGE =    76588100.5675        STREAM LEAKAGE =      122621.6293

           TOTAL OUT =   103427886.4775             TOTAL OUT =      179982.6429

            IN - OUT =          -0.5548              IN - OUT =       1.6774E-03

 PERCENT DISCREPANCY =          -0.00     PERCENT DISCREPANCY =           0.00






         TIME SUMMARY AT END OF TIME STEP    1 IN STRESS PERIOD    6
                    SECONDS     MINUTES      HOURS       DAYS        YEARS
                    -----------------------------------------------------------
   TIME STEP LENGTH 7.86240E+06 1.31040E+05  2184.0      91.000     0.24914    
 STRESS PERIOD TIME 7.86240E+06 1.31040E+05  2184.0      91.000     0.24914    
         TOTAL TIME 4.73472E+07 7.89120E+05  13152.      548.00      1.5003    
1
1
                            STRESS PERIOD NO.    7, LENGTH =   91.00000    
                            -----------------------------------------------

                              NUMBER OF TIME STEPS =     1

                               MULTIPLIER FOR DELT =     1.500

                            INITIAL TIME STEP SIZE =   91.00000    

 WELL NO.  LAYER   ROW   COL   STRESS RATE         
 --------------------------------------------------
      1      1     17     21     -0.3064E+05
      2      1     16     17     -0.1161E+05
      3      1     13     18       0.000    
      4      1     14     25      -5001.    

      4 WELLS

                 RECHARGE =   0.00000    

 REUSING STREAM SEGMENT DATA FROM LAST STRESS PERIOD
 
 SOLVING FOR HEAD 


     7 CALLS TO PCG ROUTINE FOR TIME STEP   1 IN STRESS PERIOD    7
    26 TOTAL ITERATIONS

 OUTPUT CONTROL FOR STRESS PERIOD    7   TIME STEP    1
    SAVE BUDGET
    SAVE HEAD FOR ALL LAYERS
    PRINT HEAD FOR ALL LAYERS
 UBDSV2 SAVING "STREAMFLOW OUT  " ON UNIT  50 AT TIME STEP  1, STRESS PERIOD   7



 STREAM LISTING     PERIOD      7   STEP        1

 LAYER ROW COL. STREAM  RCH.  FLOW INTO     FLOW TO   FLOW OUT OF   OVRLND.     DIRECT     STREAM       STREAM     STREAM     STREAM   STREAMBED  STREAMBED
                SEG.NO.  NO.  STRM. RCH.    AQUIFER    STRM. RCH.    RUNOFF     PRECIP       ET          HEAD       DEPTH      WIDTH   CONDCTNC.   GRADIENT

   1   13    1     1     1    1.0000E+05 -2.6962E+03   1.0270E+05  0.000E+00  0.000E+00  0.000E+00  4.84072E+01  1.458E-01  2.000E+01  2.000E+04 -1.348E-01
   1   13    2     1     2    1.0270E+05 -4.5871E+03   1.0728E+05  0.000E+00  0.000E+00  0.000E+00  4.79330E+01  1.489E-01  2.000E+01  2.000E+04 -2.294E-01
   1   14    3     1     3    1.0728E+05 -3.6263E+03   1.1091E+05  0.000E+00  0.000E+00  0.000E+00  4.74592E+01  1.524E-01  2.000E+01  2.000E+04 -1.813E-01
   1   15    4     1     4    1.1091E+05 -3.5231E+03   1.1443E+05  0.000E+00  0.000E+00  0.000E+00  4.69849E+01  1.554E-01  2.000E+01  2.000E+04 -1.762E-01
   1   16    5     1     5    1.1443E+05 -3.8514E+03   1.1828E+05  0.000E+00  0.000E+00  0.000E+00  4.65107E+01  1.584E-01  2.000E+01  2.000E+04 -1.926E-01
   1   16    6     1     6    1.1828E+05 -3.0387E+03   1.2132E+05  0.000E+00  0.000E+00  0.000E+00  4.60362E+01  1.612E-01  2.000E+01  2.000E+04 -1.519E-01
   1   16    7     1     7    1.2132E+05 -3.0916E+03   1.2441E+05  0.000E+00  0.000E+00  0.000E+00  4.55614E+01  1.637E-01  2.000E+01  2.000E+04 -1.546E-01
   1   16    8     1     8    1.2441E+05 -3.1075E+03   1.2752E+05  0.000E+00  0.000E+00  0.000E+00  4.50866E+01  1.661E-01  2.000E+01  2.000E+04 -1.554E-01
   1   16    9     1     9    1.2752E+05 -3.0685E+03   1.3059E+05  0.000E+00  0.000E+00  0.000E+00  4.46118E+01  1.686E-01  2.000E+01  2.000E+04 -1.534E-01
   1   16   10     1    10    1.3059E+05 -2.9664E+03   1.3356E+05  0.000E+00  0.000E+00  0.000E+00  4.41368E+01  1.709E-01  2.000E+01  2.000E+04 -1.483E-01
   1   16   11     1    11    1.3356E+05 -2.7884E+03   1.3635E+05  0.000E+00  0.000E+00  0.000E+00  4.36618E+01  1.732E-01  2.000E+01  2.000E+04 -1.394E-01
   1   16   12     1    12    1.3635E+05 -2.9745E+03   1.3932E+05  0.000E+00  0.000E+00  0.000E+00  4.31867E+01  1.754E-01  2.000E+01  2.000E+04 -1.487E-01
   1   15   13     1    13    1.3932E+05 -2.3005E+03   1.4162E+05  0.000E+00  0.000E+00  0.000E+00  4.27115E+01  1.774E-01  2.000E+01  2.000E+04 -1.150E-01
   1   14   14     1    14    1.4162E+05 -2.0595E+03   1.4368E+05  0.000E+00  0.000E+00  0.000E+00  4.22358E+01  1.790E-01  2.000E+01  2.000E+04 -1.030E-01
   1   13   15     1    15    1.4368E+05 -2.4681E+03   1.4615E+05  0.000E+00  0.000E+00  0.000E+00  4.17603E+01  1.807E-01  2.000E+01  2.000E+04 -1.234E-01
   1   12   16     1    16    1.4615E+05 -4.5267E+03   1.5067E+05  0.000E+00  0.000E+00  0.000E+00  4.12856E+01  1.833E-01  2.000E+01  2.000E+04 -2.263E-01
   1   12   17     1    17    1.5067E+05 -2.3860E+03   1.5306E+05  0.000E+00  0.000E+00  0.000E+00  4.08109E+01  1.859E-01  2.000E+01  2.000E+04 -1.193E-01
   1   12   18     1    18    1.5306E+05 -2.2145E+03   1.5527E+05  0.000E+00  0.000E+00  0.000E+00  4.03353E+01  1.876E-01  2.000E+01  2.000E+04 -1.107E-01
   1   12   19     1    19    1.5527E+05 -3.4678E+03   1.5874E+05  0.000E+00  0.000E+00  0.000E+00  3.98601E+01  1.896E-01  2.000E+01  2.000E+04 -1.734E-01
   1   13   20     1    20    1.5874E+05 -4.3905E+02   1.5918E+05  0.000E+00  0.000E+00  0.000E+00  3.93842E+01  1.910E-01  2.000E+01  2.000E+04 -2.195E-02
   1   14   21     1    21    1.5918E+05  2.7917E+03   1.5639E+05  0.000E+00  0.000E+00  0.000E+00  3.89061E+01  1.902E-01  2.000E+01  2.000E+04  1.396E-01
   1   14   22     1    22    1.5639E+05  5.8552E+03   1.5053E+05  0.000E+00  0.000E+00  0.000E+00  3.84257E+01  1.870E-01  2.000E+01  2.000E+04  2.928E-01
   1    9   30     2     1    5.0000E+04 -2.5609E+03   5.2561E+04  0.000E+00  0.000E+00  0.000E+00  4.02426E+01  1.176E-01  2.000E+01  2.000E+04 -1.280E-01
   1    9   29     2     2    5.2561E+04 -2.8922E+03   5.5453E+04  0.000E+00  0.000E+00  0.000E+00  3.99964E+01  1.214E-01  2.000E+01  2.000E+04 -1.446E-01
   1    9   28     2     3    5.5453E+04 -3.2732E+03   5.8726E+04  0.000E+00  0.000E+00  0.000E+00  3.97505E+01  1.255E-01  2.000E+01  2.000E+04 -1.637E-01
   1    9   27     2     4    5.8726E+04 -5.9585E+03   6.4685E+04  0.000E+00  0.000E+00  0.000E+00  3.95065E+01  1.315E-01  2.000E+01  2.000E+04 -2.979E-01
   1   10   26     2     5    6.4685E+04 -3.4866E+03   6.8171E+04  0.000E+00  0.000E+00  0.000E+00  3.92624E+01  1.374E-01  2.000E+01  2.000E+04 -1.743E-01
   1   11   25     2     6    6.8171E+04 -2.2584E+03   7.0430E+04  0.000E+00  0.000E+00  0.000E+00  3.90159E+01  1.409E-01  2.000E+01  2.000E+04 -1.129E-01
   1   12   24     2     7    7.0430E+04 -1.2174E+03   7.1647E+04  0.000E+00  0.000E+00  0.000E+00  3.87680E+01  1.430E-01  2.000E+01  2.000E+04 -6.087E-02
   1   13   23     2     8    7.1647E+04 -4.7911E+02   7.2126E+04  0.000E+00  0.000E+00  0.000E+00  3.85191E+01  1.441E-01  2.000E+01  2.000E+04 -2.396E-02
   1   14   22     2     9    7.2126E+04  2.6963E+03   6.9430E+04  0.000E+00  0.000E+00  0.000E+00  3.82677E+01  1.427E-01  2.000E+01  2.000E+04  1.348E-01
   1   14   22     3     1    2.1996E+05 -7.6546E+03   2.2762E+05  0.000E+00  0.000E+00  0.000E+00  3.77502E+01  1.946E-01  2.000E+01  2.000E+04 -3.827E-01
   1   15   23     3     2    2.2762E+05  2.2244E+03   2.2539E+05  0.000E+00  0.000E+00  0.000E+00  3.68627E+01  1.960E-01  2.000E+01  2.000E+04  1.112E-01
   1   15   24     3     3    2.2539E+05  3.0320E+02   2.2509E+05  0.000E+00  0.000E+00  0.000E+00  3.59732E+01  1.954E-01  2.000E+01  2.000E+04  1.516E-02
   1   15   25     3     4    2.2509E+05  7.3713E+02   2.2435E+05  0.000E+00  0.000E+00  0.000E+00  3.50840E+01  1.951E-01  2.000E+01  2.000E+04  3.686E-02
   1   15   26     3     5    2.2435E+05 -9.4292E+02   2.2530E+05  0.000E+00  0.000E+00  0.000E+00  3.41952E+01  1.952E-01  2.000E+01  2.000E+04 -4.715E-02
   1   16   27     3     6    2.2530E+05 -2.0442E+03   2.2734E+05  0.000E+00  0.000E+00  0.000E+00  3.33071E+01  1.959E-01  2.000E+01  2.000E+04 -1.022E-01
   1   17   28     3     7    2.2734E+05 -3.1148E+03   2.3046E+05  0.000E+00  0.000E+00  0.000E+00  3.24195E+01  1.973E-01  2.000E+01  2.000E+04 -1.557E-01
   1   18   29     3     8    2.3046E+05 -4.9879E+03   2.3544E+05  0.000E+00  0.000E+00  0.000E+00  3.15327E+01  1.994E-01  2.000E+01  2.000E+04 -2.494E-01
   1   18   30     3     9    2.3544E+05 -4.4269E+03   2.3987E+05  0.000E+00  0.000E+00  0.000E+00  3.06462E+01  2.018E-01  2.000E+01  2.000E+04 -2.213E-01



1
              HEAD IN LAYER   1 AT END OF TIME STEP   1 IN STRESS PERIOD    7
  ---------------------------------------------------------------------------

          1      2      3      4      5      6      7      8      9     10
         11     12     13     14     15     16     17     18     19     20
         21     22     23     24     25     26     27     28     29     30
 .........................................................................
   1  ****** ****** ****** ****** ****** ****** ****** ****** ****** ******
      ****** ****** ****** ****** ****** ****** ****** ****** ****** ******
      ****** ****** ****** ****** ****** ****** ****** ****** ****** ******
   2  ****** ****** ****** ****** ****** ****** ****** ****** ****** ******
      ****** ****** ****** ****** ****** ****** ****** ****** ****** ******
      ****** ****** ****** ****** ****** ****** ****** ****** ****** ******
   3  ****** ****** ****** ****** ****** ****** ****** ****** ****** ******
      ****** ****** ****** ****** ****** ****** ****** ****** ****** ******
      ****** ****** ****** ****** ****** ****** ****** ****** ****** ******
   4  ****** ****** ****** ****** ****** ****** ****** ****** ****** ******
      ****** ****** ****** ****** ****** ****** ****** ****** ****** ******
      ****** ****** ****** ****** ****** ****** ****** ****** ****** ******
   5  ****** ****** ****** ****** ****** ****** ****** ****** ****** ******
      ****** ****** ****** ****** ****** ****** ****** ****** ****** ******
      ****** ****** ****** ****** ****** ****** ****** ****** ****** ******
   6  ****** ****** ****** ****** ****** ****** ****** ****** ****** ******
      ****** ****** ****** ****** ****** ****** ****** ****** ****** ******
      ****** ****** ****** ****** ****** ****** ****** ****** ****** ******
   7  ****** ****** ****** ****** ****** ****** ****** ****** ****** ******
      ****** ****** ****** ****** ****** ****** ****** ****** ****** ******
      ****** ****** ****** ****** ****** ****** ****** ****** ****** ******
   8  ****** ****** ****** ****** ****** ****** ****** ****** ****** ******
      ****** ****** ****** ****** ****** ****** ****** ****** ****** ******
      ****** ****** ****** ****** ****** ****** ****** ****** ****** ******
   9  ****** ****** ****** ****** ****** ****** ****** ****** ****** ******
      ****** ****** ****** ****** ****** ****** ****** ****** ****** ******
      ****** ****** ****** ****** ****** ****** ****** ****** ****** ******
  10  ****** ****** ****** ****** ****** ****** ****** ****** ****** ******
      ****** ****** ****** ****** ****** ****** ****** ****** ****** ******
      ****** ****** ****** ****** ****** ****** ****** ****** ****** ******
  11  ****** ****** ****** ****** ****** ****** ****** ****** ****** ******
      ****** ****** ****** ****** ****** ****** ****** ****** ****** ******
      ****** ****** ****** ****** ****** ****** ****** ****** ****** ******
  12  ****** ****** ****** ****** ****** ****** ****** ****** ****** ******
      ****** ****** ****** ****** ****** ****** ****** ****** ****** ******
      ****** ****** ****** ****** ****** ****** ****** ****** ****** ******
  13  ****** ****** ****** ****** ****** ****** ****** ****** ****** ******
      ****** ****** ****** ****** ****** ****** ****** ****** ****** ******
      ****** ****** ****** ****** ****** ****** ****** ****** ****** ******
  14  ****** ****** ****** ****** ****** ****** ****** ****** ****** ******
      ****** ****** ****** ****** ****** ****** ****** ****** ****** ******
      ****** ****** ****** ****** ****** ****** ****** ****** ****** ******
  15  ****** ****** ****** ****** ****** ****** ****** ****** ****** ******
      ****** ****** ****** ****** ****** ****** ****** ****** ****** ******
      ****** ****** ****** ****** ****** ****** ****** ****** ****** ******
  16  ****** ****** ****** ****** ****** ****** ****** ****** ****** ******
      ****** ****** ****** ****** ****** ****** ****** ****** ****** ******
      ****** ****** ****** ****** ****** ****** ****** ****** ****** ******
  17  ****** ****** ****** ****** ****** ****** ****** ****** ****** ******
      ****** ****** ****** ****** ****** ****** ****** ****** ****** ******
      ****** ****** ****** ****** ****** ****** ****** ****** ****** ******
  18  ****** ****** ****** ****** ****** ****** ****** ****** ****** ******
      ****** ****** ****** ****** ****** ****** ****** ****** ****** ******
      ****** ****** ****** ****** ****** ****** ****** ****** ****** ******
  19  ****** ****** ****** ****** ****** ****** ****** ****** ****** ******
      ****** ****** ****** ****** ****** ****** ****** ****** ****** ******
      ****** ****** ****** ****** ****** ****** ****** ****** ****** ******
  20  ****** ****** ****** ****** ****** ****** ****** ****** ****** ******
      ****** ****** ****** ****** ****** ****** ****** ****** ****** ******
      ****** ****** ****** ****** ****** ****** ****** ****** ****** ******
  21  ****** ****** ****** ****** ****** ****** ****** ****** ****** ******
      ****** ****** ****** ****** ****** ****** ****** ****** ****** ******
      ****** ****** ****** ****** ****** ****** ****** ****** ****** ******
  22  ****** ****** ****** ****** ****** ****** ****** ****** ****** ******
      ****** ****** ****** ****** ****** ****** ****** ****** ****** ******
      ****** ****** ****** ****** ****** ****** ****** ****** ****** ******
  23  ****** ****** ****** ****** ****** ****** ****** ****** ****** ******
      ****** ****** ****** ****** ****** ****** ****** ****** ****** ******
      ****** ****** ****** ****** ****** ****** ****** ****** ****** ******
  24  ****** ****** ****** ****** ****** ****** ****** ****** ****** ******
      ****** ****** ****** ****** ****** ****** ****** ****** ****** ******
      ****** ****** ****** ****** ****** ****** ****** ****** ****** ******
  25  ****** ****** ****** ****** ****** ****** ****** ****** ****** ******
      ****** ****** ****** ****** ****** ****** ****** ****** ****** ******
      ****** ****** ****** ****** ****** ****** ****** ****** ****** ******

 HEAD WILL BE SAVED ON UNIT   51 AT END OF TIME STEP    1, STRESS PERIOD    7
1
  VOLUMETRIC BUDGET FOR ENTIRE MODEL AT END OF TIME STEP    1, STRESS PERIOD   7
  ------------------------------------------------------------------------------

     CUMULATIVE VOLUMES      L**3       RATES FOR THIS TIME STEP      L**3/T
     ------------------                 ------------------------

           IN:                                      IN:
           ---                                      ---
             STORAGE =    23299102.1329               STORAGE =       12099.1708
       CONSTANT HEAD =    71020643.6862         CONSTANT HEAD =      125019.5336
               WELLS =           0.0000                 WELLS =           0.0000
            RECHARGE =    15097200.0000              RECHARGE =           0.0000
      STREAM LEAKAGE =     7818061.8943        STREAM LEAKAGE =       14607.9087

            TOTAL IN =   117235007.7134              TOTAL IN =      151726.6131

          OUT:                                     OUT:
          ----                                     ----
             STORAGE =      948193.3903               STORAGE =           0.0000
       CONSTANT HEAD =           0.0000         CONSTANT HEAD =           0.0000
               WELLS =    30191108.7957                 WELLS =       47247.4316
            RECHARGE =           0.0000              RECHARGE =           0.0000
      STREAM LEAKAGE =    86095706.2817        STREAM LEAKAGE =      104479.1837

           TOTAL OUT =   117235008.4677             TOTAL OUT =      151726.6153

            IN - OUT =          -0.7542              IN - OUT =      -2.1918E-03

 PERCENT DISCREPANCY =          -0.00     PERCENT DISCREPANCY =          -0.00






         TIME SUMMARY AT END OF TIME STEP    1 IN STRESS PERIOD    7
                    SECONDS     MINUTES      HOURS       DAYS        YEARS
                    -----------------------------------------------------------
   TIME STEP LENGTH 7.86240E+06 1.31040E+05  2184.0      91.000     0.24914    
 STRESS PERIOD TIME 7.86240E+06 1.31040E+05  2184.0      91.000     0.24914    
         TOTAL TIME 5.52096E+07 9.20160E+05  15336.      639.00      1.7495    
1
1
                            STRESS PERIOD NO.    8, LENGTH =   91.00000    
                            -----------------------------------------------

                              NUMBER OF TIME STEPS =     1

                               MULTIPLIER FOR DELT =     1.500

                            INITIAL TIME STEP SIZE =   91.00000    

 WELL NO.  LAYER   ROW   COL   STRESS RATE         
 --------------------------------------------------
      1      1     17     21     -0.3064E+05
      2      1     16     17     -0.1161E+05
      3      1     13     18       0.000    
      4      1     14     25      -5001.    

      4 WELLS

                 RECHARGE =  1.000000E-03

 REUSING STREAM SEGMENT DATA FROM LAST STRESS PERIOD
 
 SOLVING FOR HEAD 


     6 CALLS TO PCG ROUTINE FOR TIME STEP   1 IN STRESS PERIOD    8
    23 TOTAL ITERATIONS

 OUTPUT CONTROL FOR STRESS PERIOD    8   TIME STEP    1
    SAVE BUDGET
    SAVE HEAD FOR ALL LAYERS
    PRINT HEAD FOR ALL LAYERS
 UBDSV2 SAVING "STREAMFLOW OUT  " ON UNIT  50 AT TIME STEP  1, STRESS PERIOD   8



 STREAM LISTING     PERIOD      8   STEP        1

 LAYER ROW COL. STREAM  RCH.  FLOW INTO     FLOW TO   FLOW OUT OF   OVRLND.     DIRECT     STREAM       STREAM     STREAM     STREAM   STREAMBED  STREAMBED
                SEG.NO.  NO.  STRM. RCH.    AQUIFER    STRM. RCH.    RUNOFF     PRECIP       ET          HEAD       DEPTH      WIDTH   CONDCTNC.   GRADIENT

   1   13    1     1     1    1.0000E+05 -2.8656E+03   1.0287E+05  0.000E+00  0.000E+00  0.000E+00  4.84073E+01  1.459E-01  2.000E+01  2.000E+04 -1.433E-01
   1   13    2     1     2    1.0287E+05 -4.7986E+03   1.0766E+05  0.000E+00  0.000E+00  0.000E+00  4.79333E+01  1.492E-01  2.000E+01  2.000E+04 -2.399E-01
   1   14    3     1     3    1.0766E+05 -3.8607E+03   1.1152E+05  0.000E+00  0.000E+00  0.000E+00  4.74596E+01  1.528E-01  2.000E+01  2.000E+04 -1.930E-01
   1   15    4     1     4    1.1152E+05 -3.7606E+03   1.1529E+05  0.000E+00  0.000E+00  0.000E+00  4.69855E+01  1.560E-01  2.000E+01  2.000E+04 -1.880E-01
   1   16    5     1     5    1.1529E+05 -4.0717E+03   1.1936E+05  0.000E+00  0.000E+00  0.000E+00  4.65115E+01  1.592E-01  2.000E+01  2.000E+04 -2.036E-01
   1   16    6     1     6    1.1936E+05 -3.2135E+03   1.2257E+05  0.000E+00  0.000E+00  0.000E+00  4.60372E+01  1.622E-01  2.000E+01  2.000E+04 -1.607E-01
   1   16    7     1     7    1.2257E+05 -3.2680E+03   1.2584E+05  0.000E+00  0.000E+00  0.000E+00  4.55625E+01  1.647E-01  2.000E+01  2.000E+04 -1.634E-01
   1   16    8     1     8    1.2584E+05 -3.2850E+03   1.2912E+05  0.000E+00  0.000E+00  0.000E+00  4.50878E+01  1.673E-01  2.000E+01  2.000E+04 -1.642E-01
   1   16    9     1     9    1.2912E+05 -3.2459E+03   1.3237E+05  0.000E+00  0.000E+00  0.000E+00  4.46131E+01  1.699E-01  2.000E+01  2.000E+04 -1.623E-01
   1   16   10     1    10    1.3237E+05 -3.1427E+03   1.3551E+05  0.000E+00  0.000E+00  0.000E+00  4.41383E+01  1.724E-01  2.000E+01  2.000E+04 -1.571E-01
   1   16   11     1    11    1.3551E+05 -2.9629E+03   1.3848E+05  0.000E+00  0.000E+00  0.000E+00  4.36634E+01  1.747E-01  2.000E+01  2.000E+04 -1.481E-01
   1   16   12     1    12    1.3848E+05 -3.1948E+03   1.4167E+05  0.000E+00  0.000E+00  0.000E+00  4.31884E+01  1.771E-01  2.000E+01  2.000E+04 -1.597E-01
   1   15   13     1    13    1.4167E+05 -2.5402E+03   1.4421E+05  0.000E+00  0.000E+00  0.000E+00  4.27133E+01  1.792E-01  2.000E+01  2.000E+04 -1.270E-01
   1   14   14     1    14    1.4421E+05 -2.3014E+03   1.4651E+05  0.000E+00  0.000E+00  0.000E+00  4.22379E+01  1.810E-01  2.000E+01  2.000E+04 -1.151E-01
   1   13   15     1    15    1.4651E+05 -2.7043E+03   1.4922E+05  0.000E+00  0.000E+00  0.000E+00  4.17625E+01  1.829E-01  2.000E+01  2.000E+04 -1.352E-01
   1   12   16     1    16    1.4922E+05 -4.7414E+03   1.5396E+05  0.000E+00  0.000E+00  0.000E+00  4.12879E+01  1.857E-01  2.000E+01  2.000E+04 -2.371E-01
   1   12   17     1    17    1.5396E+05 -2.5570E+03   1.5651E+05  0.000E+00  0.000E+00  0.000E+00  4.08133E+01  1.883E-01  2.000E+01  2.000E+04 -1.279E-01
   1   12   18     1    18    1.5651E+05 -2.3855E+03   1.5890E+05  0.000E+00  0.000E+00  0.000E+00  4.03379E+01  1.901E-01  2.000E+01  2.000E+04 -1.193E-01
   1   12   19     1    19    1.5890E+05 -3.6765E+03   1.6258E+05  0.000E+00  0.000E+00  0.000E+00  3.98628E+01  1.923E-01  2.000E+01  2.000E+04 -1.838E-01
   1   13   20     1    20    1.6258E+05 -6.5617E+02   1.6323E+05  0.000E+00  0.000E+00  0.000E+00  3.93870E+01  1.939E-01  2.000E+01  2.000E+04 -3.281E-02
   1   14   21     1    21    1.6323E+05  2.5964E+03   1.6064E+05  0.000E+00  0.000E+00  0.000E+00  3.89091E+01  1.932E-01  2.000E+01  2.000E+04  1.298E-01
   1   14   22     1    22    1.6064E+05  5.8117E+03   1.5482E+05  0.000E+00  0.000E+00  0.000E+00  3.84288E+01  1.901E-01  2.000E+01  2.000E+04  2.906E-01
   1    9   30     2     1    5.0000E+04 -2.7399E+03   5.2740E+04  0.000E+00  0.000E+00  0.000E+00  4.02428E+01  1.178E-01  2.000E+01  2.000E+04 -1.370E-01
   1    9   29     2     2    5.2740E+04 -3.0694E+03   5.5809E+04  0.000E+00  0.000E+00  0.000E+00  3.99967E+01  1.217E-01  2.000E+01  2.000E+04 -1.535E-01
   1    9   28     2     3    5.5809E+04 -3.4478E+03   5.9257E+04  0.000E+00  0.000E+00  0.000E+00  3.97510E+01  1.260E-01  2.000E+01  2.000E+04 -1.724E-01
   1    9   27     2     4    5.9257E+04 -6.1779E+03   6.5435E+04  0.000E+00  0.000E+00  0.000E+00  3.95073E+01  1.323E-01  2.000E+01  2.000E+04 -3.089E-01
   1   10   26     2     5    6.5435E+04 -3.7229E+03   6.9158E+04  0.000E+00  0.000E+00  0.000E+00  3.92635E+01  1.385E-01  2.000E+01  2.000E+04 -1.861E-01
   1   11   25     2     6    6.9158E+04 -2.4883E+03   7.1646E+04  0.000E+00  0.000E+00  0.000E+00  3.90173E+01  1.423E-01  2.000E+01  2.000E+04 -1.244E-01
   1   12   24     2     7    7.1646E+04 -1.4261E+03   7.3072E+04  0.000E+00  0.000E+00  0.000E+00  3.87696E+01  1.446E-01  2.000E+01  2.000E+04 -7.131E-02
   1   13   23     2     8    7.3072E+04 -6.4879E+02   7.3721E+04  0.000E+00  0.000E+00  0.000E+00  3.85209E+01  1.459E-01  2.000E+01  2.000E+04 -3.244E-02
   1   14   22     2     9    7.3721E+04  2.6300E+03   7.1091E+04  0.000E+00  0.000E+00  0.000E+00  3.82697E+01  1.447E-01  2.000E+01  2.000E+04  1.315E-01
   1   14   22     3     1    2.2592E+05 -7.6981E+03   2.3361E+05  0.000E+00  0.000E+00  0.000E+00  3.77533E+01  1.977E-01  2.000E+01  2.000E+04 -3.849E-01
   1   15   23     3     2    2.3361E+05  2.0411E+03   2.3157E+05  0.000E+00  0.000E+00  0.000E+00  3.68659E+01  1.992E-01  2.000E+01  2.000E+04  1.021E-01
   1   15   24     3     3    2.3157E+05  1.5945E+02   2.3141E+05  0.000E+00  0.000E+00  0.000E+00  3.59764E+01  1.986E-01  2.000E+01  2.000E+04  7.972E-03
   1   15   25     3     4    2.3141E+05  5.8848E+02   2.3082E+05  0.000E+00  0.000E+00  0.000E+00  3.50873E+01  1.984E-01  2.000E+01  2.000E+04  2.942E-02
   1   15   26     3     5    2.3082E+05 -1.1375E+03   2.3196E+05  0.000E+00  0.000E+00  0.000E+00  3.41986E+01  1.986E-01  2.000E+01  2.000E+04 -5.688E-02
   1   16   27     3     6    2.3196E+05 -2.2779E+03   2.3424E+05  0.000E+00  0.000E+00  0.000E+00  3.33106E+01  1.994E-01  2.000E+01  2.000E+04 -1.139E-01
   1   17   28     3     7    2.3424E+05 -3.3510E+03   2.3759E+05  0.000E+00  0.000E+00  0.000E+00  3.24231E+01  2.009E-01  2.000E+01  2.000E+04 -1.676E-01
   1   18   29     3     8    2.3759E+05 -5.2038E+03   2.4280E+05  0.000E+00  0.000E+00  0.000E+00  3.15364E+01  2.031E-01  2.000E+01  2.000E+04 -2.602E-01
   1   18   30     3     9    2.4280E+05 -4.5972E+03   2.4739E+05  0.000E+00  0.000E+00  0.000E+00  3.06500E+01  2.055E-01  2.000E+01  2.000E+04 -2.299E-01



1
              HEAD IN LAYER   1 AT END OF TIME STEP   1 IN STRESS PERIOD    8
  ---------------------------------------------------------------------------

          1      2      3      4      5      6      7      8      9     10
         11     12     13     14     15     16     17     18     19     20
         21     22     23     24     25     26     27     28     29     30
 .........................................................................
   1  ****** ****** ****** ****** ****** ****** ****** ****** ****** ******
      ****** ****** ****** ****** ****** ****** ****** ****** ****** ******
      ****** ****** ****** ****** ****** ****** ****** ****** ****** ******
   2  ****** ****** ****** ****** ****** ****** ****** ****** ****** ******
      ****** ****** ****** ****** ****** ****** ****** ****** ****** ******
      ****** ****** ****** ****** ****** ****** ****** ****** ****** ******
   3  ****** ****** ****** ****** ****** ****** ****** ****** ****** ******
      ****** ****** ****** ****** ****** ****** ****** ****** ****** ******
      ****** ****** ****** ****** ****** ****** ****** ****** ****** ******
   4  ****** ****** ****** ****** ****** ****** ****** ****** ****** ******
      ****** ****** ****** ****** ****** ****** ****** ****** ****** ******
      ****** ****** ****** ****** ****** ****** ****** ****** ****** ******
   5  ****** ****** ****** ****** ****** ****** ****** ****** ****** ******
      ****** ****** ****** ****** ****** ****** ****** ****** ****** ******
      ****** ****** ****** ****** ****** ****** ****** ****** ****** ******
   6  ****** ****** ****** ****** ****** ****** ****** ****** ****** ******
      ****** ****** ****** ****** ****** ****** ****** ****** ****** ******
      ****** ****** ****** ****** ****** ****** ****** ****** ****** ******
   7  ****** ****** ****** ****** ****** ****** ****** ****** ****** ******
      ****** ****** ****** ****** ****** ****** ****** ****** ****** ******
      ****** ****** ****** ****** ****** ****** ****** ****** ****** ******
   8  ****** ****** ****** ****** ****** ****** ****** ****** ****** ******
      ****** ****** ****** ****** ****** ****** ****** ****** ****** ******
      ****** ****** ****** ****** ****** ****** ****** ****** ****** ******
   9  ****** ****** ****** ****** ****** ****** ****** ****** ****** ******
      ****** ****** ****** ****** ****** ****** ****** ****** ****** ******
      ****** ****** ****** ****** ****** ****** ****** ****** ****** ******
  10  ****** ****** ****** ****** ****** ****** ****** ****** ****** ******
      ****** ****** ****** ****** ****** ****** ****** ****** ****** ******
      ****** ****** ****** ****** ****** ****** ****** ****** ****** ******
  11  ****** ****** ****** ****** ****** ****** ****** ****** ****** ******
      ****** ****** ****** ****** ****** ****** ****** ****** ****** ******
      ****** ****** ****** ****** ****** ****** ****** ****** ****** ******
  12  ****** ****** ****** ****** ****** ****** ****** ****** ****** ******
      ****** ****** ****** ****** ****** ****** ****** ****** ****** ******
      ****** ****** ****** ****** ****** ****** ****** ****** ****** ******
  13  ****** ****** ****** ****** ****** ****** ****** ****** ****** ******
      ****** ****** ****** ****** ****** ****** ****** ****** ****** ******
      ****** ****** ****** ****** ****** ****** ****** ****** ****** ******
  14  ****** ****** ****** ****** ****** ****** ****** ****** ****** ******
      ****** ****** ****** ****** ****** ****** ****** ****** ****** ******
      ****** ****** ****** ****** ****** ****** ****** ****** ****** ******
  15  ****** ****** ****** ****** ****** ****** ****** ****** ****** ******
      ****** ****** ****** ****** ****** ****** ****** ****** ****** ******
      ****** ****** ****** ****** ****** ****** ****** ****** ****** ******
  16  ****** ****** ****** ****** ****** ****** ****** ****** ****** ******
      ****** ****** ****** ****** ****** ****** ****** ****** ****** ******
      ****** ****** ****** ****** ****** ****** ****** ****** ****** ******
  17  ****** ****** ****** ****** ****** ****** ****** ****** ****** ******
      ****** ****** ****** ****** ****** ****** ****** ****** ****** ******
      ****** ****** ****** ****** ****** ****** ****** ****** ****** ******
  18  ****** ****** ****** ****** ****** ****** ****** ****** ****** ******
      ****** ****** ****** ****** ****** ****** ****** ****** ****** ******
      ****** ****** ****** ****** ****** ****** ****** ****** ****** ******
  19  ****** ****** ****** ****** ****** ****** ****** ****** ****** ******
      ****** ****** ****** ****** ****** ****** ****** ****** ****** ******
      ****** ****** ****** ****** ****** ****** ****** ****** ****** ******
  20  ****** ****** ****** ****** ****** ****** ****** ****** ****** ******
      ****** ****** ****** ****** ****** ****** ****** ****** ****** ******
      ****** ****** ****** ****** ****** ****** ****** ****** ****** ******
  21  ****** ****** ****** ****** ****** ****** ****** ****** ****** ******
      ****** ****** ****** ****** ****** ****** ****** ****** ****** ******
      ****** ****** ****** ****** ****** ****** ****** ****** ****** ******
  22  ****** ****** ****** ****** ****** ****** ****** ****** ****** ******
      ****** ****** ****** ****** ****** ****** ****** ****** ****** ******
      ****** ****** ****** ****** ****** ****** ****** ****** ****** ******
  23  ****** ****** ****** ****** ****** ****** ****** ****** ****** ******
      ****** ****** ****** ****** ****** ****** ****** ****** ****** ******
      ****** ****** ****** ****** ****** ****** ****** ****** ****** ******
  24  ****** ****** ****** ****** ****** ****** ****** ****** ****** ******
      ****** ****** ****** ****** ****** ****** ****** ****** ****** ******
      ****** ****** ****** ****** ****** ****** ****** ****** ****** ******
  25  ****** ****** ****** ****** ****** ****** ****** ****** ****** ******
      ****** ****** ****** ****** ****** ****** ****** ****** ****** ******
      ****** ****** ****** ****** ****** ****** ****** ****** ****** ******

 HEAD WILL BE SAVED ON UNIT   51 AT END OF TIME STEP    1, STRESS PERIOD    8
1
  VOLUMETRIC BUDGET FOR ENTIRE MODEL AT END OF TIME STEP    1, STRESS PERIOD   8
  ------------------------------------------------------------------------------

     CUMULATIVE VOLUMES      L**3       RATES FOR THIS TIME STEP      L**3/T
     ------------------                 ------------------------

           IN:                                      IN:
           ---                                      ---
             STORAGE =    23299102.1329               STORAGE =           0.0000
       CONSTANT HEAD =    82002075.3064         CONSTANT HEAD =      120675.0727
               WELLS =           0.0000                 WELLS =           0.0000
            RECHARGE =    17608800.0000              RECHARGE =       27600.0000
      STREAM LEAKAGE =     9076323.9062        STREAM LEAKAGE =       13827.0551

            TOTAL IN =   131986301.3455              TOTAL IN =      162102.1278

          OUT:                                     OUT:
          ----                                     ----
             STORAGE =     1279008.1850               STORAGE =        3635.3274
       CONSTANT HEAD =           0.0000         CONSTANT HEAD =           0.0000
               WELLS =    34490625.0717                 WELLS =       47247.4316
            RECHARGE =           0.0000              RECHARGE =           0.0000
      STREAM LEAKAGE =    96216668.7667        STREAM LEAKAGE =      111219.3680

           TOTAL OUT =   131986302.0234             TOTAL OUT =      162102.1270

            IN - OUT =          -0.6779              IN - OUT =       8.3877E-04

 PERCENT DISCREPANCY =          -0.00     PERCENT DISCREPANCY =           0.00






         TIME SUMMARY AT END OF TIME STEP    1 IN STRESS PERIOD    8
                    SECONDS     MINUTES      HOURS       DAYS        YEARS
                    -----------------------------------------------------------
   TIME STEP LENGTH 7.86240E+06 1.31040E+05  2184.0      91.000     0.24914    
 STRESS PERIOD TIME 7.86240E+06 1.31040E+05  2184.0      91.000     0.24914    
         TOTAL TIME 6.30720E+07 1.05120E+06  17520.      730.00      1.9986    
1
1
                            STRESS PERIOD NO.    9, LENGTH =   92.00000    
                            -----------------------------------------------

                              NUMBER OF TIME STEPS =     1

                               MULTIPLIER FOR DELT =     1.500

                            INITIAL TIME STEP SIZE =   92.00000    

 WELL NO.  LAYER   ROW   COL   STRESS RATE         
 --------------------------------------------------
      1      1     17     21     -0.3064E+05
      2      1     16     17     -0.1161E+05
      3      1     13     18       0.000    
      4      1     14     25      -5001.    

      4 WELLS

                 RECHARGE =  5.000000E-04

 REUSING STREAM SEGMENT DATA FROM LAST STRESS PERIOD
 
 SOLVING FOR HEAD 


     6 CALLS TO PCG ROUTINE FOR TIME STEP   1 IN STRESS PERIOD    9
    22 TOTAL ITERATIONS

 OUTPUT CONTROL FOR STRESS PERIOD    9   TIME STEP    1
    SAVE BUDGET
    SAVE HEAD FOR ALL LAYERS
    PRINT HEAD FOR ALL LAYERS
 UBDSV2 SAVING "STREAMFLOW OUT  " ON UNIT  50 AT TIME STEP  1, STRESS PERIOD   9



 STREAM LISTING     PERIOD      9   STEP        1

 LAYER ROW COL. STREAM  RCH.  FLOW INTO     FLOW TO   FLOW OUT OF   OVRLND.     DIRECT     STREAM       STREAM     STREAM     STREAM   STREAMBED  STREAMBED
                SEG.NO.  NO.  STRM. RCH.    AQUIFER    STRM. RCH.    RUNOFF     PRECIP       ET          HEAD       DEPTH      WIDTH   CONDCTNC.   GRADIENT

   1   13    1     1     1    1.0000E+05 -2.7500E+03   1.0275E+05  0.000E+00  0.000E+00  0.000E+00  4.84072E+01  1.458E-01  2.000E+01  2.000E+04 -1.375E-01
   1   13    2     1     2    1.0275E+05 -4.6465E+03   1.0740E+05  0.000E+00  0.000E+00  0.000E+00  4.79331E+01  1.490E-01  2.000E+01  2.000E+04 -2.323E-01
   1   14    3     1     3    1.0740E+05 -3.7065E+03   1.1110E+05  0.000E+00  0.000E+00  0.000E+00  4.74594E+01  1.525E-01  2.000E+01  2.000E+04 -1.853E-01
   1   15    4     1     4    1.1110E+05 -3.6088E+03   1.1471E+05  0.000E+00  0.000E+00  0.000E+00  4.69851E+01  1.556E-01  2.000E+01  2.000E+04 -1.804E-01
   1   16    5     1     5    1.1471E+05 -3.9343E+03   1.1865E+05  0.000E+00  0.000E+00  0.000E+00  4.65110E+01  1.587E-01  2.000E+01  2.000E+04 -1.967E-01
   1   16    6     1     6    1.1865E+05 -3.1032E+03   1.2175E+05  0.000E+00  0.000E+00  0.000E+00  4.60365E+01  1.615E-01  2.000E+01  2.000E+04 -1.552E-01
   1   16    7     1     7    1.2175E+05 -3.1558E+03   1.2491E+05  0.000E+00  0.000E+00  0.000E+00  4.55618E+01  1.640E-01  2.000E+01  2.000E+04 -1.578E-01
   1   16    8     1     8    1.2491E+05 -3.1717E+03   1.2808E+05  0.000E+00  0.000E+00  0.000E+00  4.50870E+01  1.666E-01  2.000E+01  2.000E+04 -1.586E-01
   1   16    9     1     9    1.2808E+05 -3.1327E+03   1.3121E+05  0.000E+00  0.000E+00  0.000E+00  4.46122E+01  1.690E-01  2.000E+01  2.000E+04 -1.566E-01
   1   16   10     1    10    1.3121E+05 -3.0306E+03   1.3424E+05  0.000E+00  0.000E+00  0.000E+00  4.41373E+01  1.714E-01  2.000E+01  2.000E+04 -1.515E-01
   1   16   11     1    11    1.3424E+05 -2.8525E+03   1.3709E+05  0.000E+00  0.000E+00  0.000E+00  4.36623E+01  1.737E-01  2.000E+01  2.000E+04 -1.426E-01
   1   16   12     1    12    1.3709E+05 -3.0553E+03   1.4015E+05  0.000E+00  0.000E+00  0.000E+00  4.31873E+01  1.760E-01  2.000E+01  2.000E+04 -1.528E-01
   1   15   13     1    13    1.4015E+05 -2.3861E+03   1.4253E+05  0.000E+00  0.000E+00  0.000E+00  4.27121E+01  1.780E-01  2.000E+01  2.000E+04 -1.193E-01
   1   14   14     1    14    1.4253E+05 -2.1440E+03   1.4468E+05  0.000E+00  0.000E+00  0.000E+00  4.22366E+01  1.797E-01  2.000E+01  2.000E+04 -1.072E-01
   1   13   15     1    15    1.4468E+05 -2.5491E+03   1.4723E+05  0.000E+00  0.000E+00  0.000E+00  4.17610E+01  1.815E-01  2.000E+01  2.000E+04 -1.275E-01
   1   12   16     1    16    1.4723E+05 -4.5937E+03   1.5182E+05  0.000E+00  0.000E+00  0.000E+00  4.12864E+01  1.841E-01  2.000E+01  2.000E+04 -2.297E-01
   1   12   17     1    17    1.5182E+05 -2.4466E+03   1.5427E+05  0.000E+00  0.000E+00  0.000E+00  4.08117E+01  1.867E-01  2.000E+01  2.000E+04 -1.223E-01
   1   12   18     1    18    1.5427E+05 -2.2771E+03   1.5654E+05  0.000E+00  0.000E+00  0.000E+00  4.03362E+01  1.885E-01  2.000E+01  2.000E+04 -1.139E-01
   1   12   19     1    19    1.5654E+05 -3.5450E+03   1.6009E+05  0.000E+00  0.000E+00  0.000E+00  3.98610E+01  1.906E-01  2.000E+01  2.000E+04 -1.773E-01
   1   13   20     1    20    1.6009E+05 -5.2651E+02   1.6062E+05  0.000E+00  0.000E+00  0.000E+00  3.93852E+01  1.920E-01  2.000E+01  2.000E+04 -2.633E-02
   1   14   21     1    21    1.6062E+05  2.7141E+03   1.5790E+05  0.000E+00  0.000E+00  0.000E+00  3.89072E+01  1.912E-01  2.000E+01  2.000E+04  1.357E-01
   1   14   22     1    22    1.5790E+05  5.8347E+03   1.5207E+05  0.000E+00  0.000E+00  0.000E+00  3.84268E+01  1.881E-01  2.000E+01  2.000E+04  2.917E-01
   1    9   30     2     1    5.0000E+04 -2.6403E+03   5.2640E+04  0.000E+00  0.000E+00  0.000E+00  4.02427E+01  1.177E-01  2.000E+01  2.000E+04 -1.320E-01
   1    9   29     2     2    5.2640E+04 -2.9705E+03   5.5611E+04  0.000E+00  0.000E+00  0.000E+00  3.99965E+01  1.215E-01  2.000E+01  2.000E+04 -1.485E-01
   1    9   28     2     3    5.5611E+04 -3.3494E+03   5.8960E+04  0.000E+00  0.000E+00  0.000E+00  3.97507E+01  1.257E-01  2.000E+01  2.000E+04 -1.675E-01
   1    9   27     2     4    5.8960E+04 -6.0486E+03   6.5009E+04  0.000E+00  0.000E+00  0.000E+00  3.95068E+01  1.318E-01  2.000E+01  2.000E+04 -3.024E-01
   1   10   26     2     5    6.5009E+04 -3.5870E+03   6.8596E+04  0.000E+00  0.000E+00  0.000E+00  3.92629E+01  1.379E-01  2.000E+01  2.000E+04 -1.794E-01
   1   11   25     2     6    6.8596E+04 -2.3570E+03   7.0953E+04  0.000E+00  0.000E+00  0.000E+00  3.90165E+01  1.415E-01  2.000E+01  2.000E+04 -1.178E-01
   1   12   24     2     7    7.0953E+04 -1.3081E+03   7.2261E+04  0.000E+00  0.000E+00  0.000E+00  3.87687E+01  1.437E-01  2.000E+01  2.000E+04 -6.541E-02
   1   13   23     2     8    7.2261E+04 -5.5447E+02   7.2815E+04  0.000E+00  0.000E+00  0.000E+00  3.85198E+01  1.448E-01  2.000E+01  2.000E+04 -2.772E-02
   1   14   22     2     9    7.2815E+04  2.6705E+03   7.0145E+04  0.000E+00  0.000E+00  0.000E+00  3.82686E+01  1.436E-01  2.000E+01  2.000E+04  1.335E-01
   1   14   22     3     1    2.2221E+05 -7.6738E+03   2.2989E+05  0.000E+00  0.000E+00  0.000E+00  3.77514E+01  1.958E-01  2.000E+01  2.000E+04 -3.837E-01
   1   15   23     3     2    2.2989E+05  2.1508E+03   2.2774E+05  0.000E+00  0.000E+00  0.000E+00  3.68639E+01  1.972E-01  2.000E+01  2.000E+04  1.075E-01
   1   15   24     3     3    2.2774E+05  2.4118E+02   2.2749E+05  0.000E+00  0.000E+00  0.000E+00  3.59744E+01  1.966E-01  2.000E+01  2.000E+04  1.206E-02
   1   15   25     3     4    2.2749E+05  6.7097E+02   2.2682E+05  0.000E+00  0.000E+00  0.000E+00  3.50853E+01  1.964E-01  2.000E+01  2.000E+04  3.355E-02
   1   15   26     3     5    2.2682E+05 -1.0320E+03   2.2786E+05  0.000E+00  0.000E+00  0.000E+00  3.41965E+01  1.965E-01  2.000E+01  2.000E+04 -5.160E-02
   1   16   27     3     6    2.2786E+05 -2.1478E+03   2.3000E+05  0.000E+00  0.000E+00  0.000E+00  3.33084E+01  1.973E-01  2.000E+01  2.000E+04 -1.074E-01
   1   17   28     3     7    2.3000E+05 -3.2187E+03   2.3322E+05  0.000E+00  0.000E+00  0.000E+00  3.24209E+01  1.987E-01  2.000E+01  2.000E+04 -1.609E-01
   1   18   29     3     8    2.3322E+05 -5.0809E+03   2.3830E+05  0.000E+00  0.000E+00  0.000E+00  3.15341E+01  2.008E-01  2.000E+01  2.000E+04 -2.540E-01
   1   18   30     3     9    2.3830E+05 -4.5030E+03   2.4281E+05  0.000E+00  0.000E+00  0.000E+00  3.06477E+01  2.032E-01  2.000E+01  2.000E+04 -2.251E-01



1
              HEAD IN LAYER   1 AT END OF TIME STEP   1 IN STRESS PERIOD    9
  ---------------------------------------------------------------------------

          1      2      3      4      5      6      7      8      9     10
         11     12     13     14     15     16     17     18     19     20
         21     22     23     24     25     26     27     28     29     30
 .........................................................................
   1  ****** ****** ****** ****** ****** ****** ****** ****** ****** ******
      ****** ****** ****** ****** ****** ****** ****** ****** ****** ******
      ****** ****** ****** ****** ****** ****** ****** ****** ****** ******
   2  ****** ****** ****** ****** ****** ****** ****** ****** ****** ******
      ****** ****** ****** ****** ****** ****** ****** ****** ****** ******
      ****** ****** ****** ****** ****** ****** ****** ****** ****** ******
   3  ****** ****** ****** ****** ****** ****** ****** ****** ****** ******
      ****** ****** ****** ****** ****** ****** ****** ****** ****** ******
      ****** ****** ****** ****** ****** ****** ****** ****** ****** ******
   4  ****** ****** ****** ****** ****** ****** ****** ****** ****** ******
      ****** ****** ****** ****** ****** ****** ****** ****** ****** ******
      ****** ****** ****** ****** ****** ****** ****** ****** ****** ******
   5  ****** ****** ****** ****** ****** ****** ****** ****** ****** ******
      ****** ****** ****** ****** ****** ****** ****** ****** ****** ******
      ****** ****** ****** ****** ****** ****** ****** ****** ****** ******
   6  ****** ****** ****** ****** ****** ****** ****** ****** ****** ******
      ****** ****** ****** ****** ****** ****** ****** ****** ****** ******
      ****** ****** ****** ****** ****** ****** ****** ****** ****** ******
   7  ****** ****** ****** ****** ****** ****** ****** ****** ****** ******
      ****** ****** ****** ****** ****** ****** ****** ****** ****** ******
      ****** ****** ****** ****** ****** ****** ****** ****** ****** ******
   8  ****** ****** ****** ****** ****** ****** ****** ****** ****** ******
      ****** ****** ****** ****** ****** ****** ****** ****** ****** ******
      ****** ****** ****** ****** ****** ****** ****** ****** ****** ******
   9  ****** ****** ****** ****** ****** ****** ****** ****** ****** ******
      ****** ****** ****** ****** ****** ****** ****** ****** ****** ******
      ****** ****** ****** ****** ****** ****** ****** ****** ****** ******
  10  ****** ****** ****** ****** ****** ****** ****** ****** ****** ******
      ****** ****** ****** ****** ****** ****** ****** ****** ****** ******
      ****** ****** ****** ****** ****** ****** ****** ****** ****** ******
  11  ****** ****** ****** ****** ****** ****** ****** ****** ****** ******
      ****** ****** ****** ****** ****** ****** ****** ****** ****** ******
      ****** ****** ****** ****** ****** ****** ****** ****** ****** ******
  12  ****** ****** ****** ****** ****** ****** ****** ****** ****** ******
      ****** ****** ****** ****** ****** ****** ****** ****** ****** ******
      ****** ****** ****** ****** ****** ****** ****** ****** ****** ******
  13  ****** ****** ****** ****** ****** ****** ****** ****** ****** ******
      ****** ****** ****** ****** ****** ****** ****** ****** ****** ******
      ****** ****** ****** ****** ****** ****** ****** ****** ****** ******
  14  ****** ****** ****** ****** ****** ****** ****** ****** ****** ******
      ****** ****** ****** ****** ****** ****** ****** ****** ****** ******
      ****** ****** ****** ****** ****** ****** ****** ****** ****** ******
  15  ****** ****** ****** ****** ****** ****** ****** ****** ****** ******
      ****** ****** ****** ****** ****** ****** ****** ****** ****** ******
      ****** ****** ****** ****** ****** ****** ****** ****** ****** ******
  16  ****** ****** ****** ****** ****** ****** ****** ****** ****** ******
      ****** ****** ****** ****** ****** ****** ****** ****** ****** ******
      ****** ****** ****** ****** ****** ****** ****** ****** ****** ******
  17  ****** ****** ****** ****** ****** ****** ****** ****** ****** ******
      ****** ****** ****** ****** ****** ****** ****** ****** ****** ******
      ****** ****** ****** ****** ****** ****** ****** ****** ****** ******
  18  ****** ****** ****** ****** ****** ****** ****** ****** ****** ******
      ****** ****** ****** ****** ****** ****** ****** ****** ****** ******
      ****** ****** ****** ****** ****** ****** ****** ****** ****** ******
  19  ****** ****** ****** ****** ****** ****** ****** ****** ****** ******
      ****** ****** ****** ****** ****** ****** ****** ****** ****** ******
      ****** ****** ****** ****** ****** ****** ****** ****** ****** ******
  20  ****** ****** ****** ****** ****** ****** ****** ****** ****** ******
      ****** ****** ****** ****** ****** ****** ****** ****** ****** ******
      ****** ****** ****** ****** ****** ****** ****** ****** ****** ******
  21  ****** ****** ****** ****** ****** ****** ****** ****** ****** ******
      ****** ****** ****** ****** ****** ****** ****** ****** ****** ******
      ****** ****** ****** ****** ****** ****** ****** ****** ****** ******
  22  ****** ****** ****** ****** ****** ****** ****** ****** ****** ******
      ****** ****** ****** ****** ****** ****** ****** ****** ****** ******
      ****** ****** ****** ****** ****** ****** ****** ****** ****** ******
  23  ****** ****** ****** ****** ****** ****** ****** ****** ****** ******
      ****** ****** ****** ****** ****** ****** ****** ****** ****** ******
      ****** ****** ****** ****** ****** ****** ****** ****** ****** ******
  24  ****** ****** ****** ****** ****** ****** ****** ****** ****** ******
      ****** ****** ****** ****** ****** ****** ****** ****** ****** ******
      ****** ****** ****** ****** ****** ****** ****** ****** ****** ******
  25  ****** ****** ****** ****** ****** ****** ****** ****** ****** ******
      ****** ****** ****** ****** ****** ****** ****** ****** ****** ******
      ****** ****** ****** ****** ****** ****** ****** ****** ****** ******

 HEAD WILL BE SAVED ON UNIT   51 AT END OF TIME STEP    1, STRESS PERIOD    9
1
  VOLUMETRIC BUDGET FOR ENTIRE MODEL AT END OF TIME STEP    1, STRESS PERIOD   9
  ------------------------------------------------------------------------------

     CUMULATIVE VOLUMES      L**3       RATES FOR THIS TIME STEP      L**3/T
     ------------------                 ------------------------

           IN:                                      IN:
           ---                                      ---
             STORAGE =    23545670.0839               STORAGE =        2680.0864
       CONSTANT HEAD =    93370777.0853         CONSTANT HEAD =      123572.8454
               WELLS =           0.0000                 WELLS =           0.0000
            RECHARGE =    18878400.0000              RECHARGE =       13800.0000
      STREAM LEAKAGE =    10390298.9722        STREAM LEAKAGE =       14282.3377

            TOTAL IN =   146185146.1414              TOTAL IN =      154335.2695

          OUT:                                     OUT:
          ----                                     ----
             STORAGE =     1279008.1850               STORAGE =           0.0000
       CONSTANT HEAD =           0.0000         CONSTANT HEAD =           0.0000
               WELLS =    38837388.7794                 WELLS =       47247.4316
            RECHARGE =           0.0000              RECHARGE =           0.0000
      STREAM LEAKAGE =   106068750.1414        STREAM LEAKAGE =      107087.8410

           TOTAL OUT =   146185147.1058             TOTAL OUT =      154335.2726

            IN - OUT =          -0.9645              IN - OUT =      -3.1148E-03

 PERCENT DISCREPANCY =          -0.00     PERCENT DISCREPANCY =          -0.00






         TIME SUMMARY AT END OF TIME STEP    1 IN STRESS PERIOD    9
                    SECONDS     MINUTES      HOURS       DAYS        YEARS
                    -----------------------------------------------------------
   TIME STEP LENGTH 7.94880E+06 1.32480E+05  2208.0      92.000     0.25188    
 STRESS PERIOD TIME 7.94880E+06 1.32480E+05  2208.0      92.000     0.25188    
         TOTAL TIME 7.10208E+07 1.18368E+06  19728.      822.00      2.2505    
1
1
                            STRESS PERIOD NO.   10, LENGTH =   91.00000    
                            -----------------------------------------------

                              NUMBER OF TIME STEPS =     1

                               MULTIPLIER FOR DELT =     1.500

                            INITIAL TIME STEP SIZE =   91.00000    

 WELL NO.  LAYER   ROW   COL   STRESS RATE         
 --------------------------------------------------
      1      1     17     21     -0.3064E+05
      2      1     16     17     -0.1161E+05
      3      1     13     18       0.000    
      4      1     14     25      -5001.    

      4 WELLS

                 RECHARGE =  2.000000E-03

 REUSING STREAM SEGMENT DATA FROM LAST STRESS PERIOD
 
 SOLVING FOR HEAD 


     7 CALLS TO PCG ROUTINE FOR TIME STEP   1 IN STRESS PERIOD   10
    26 TOTAL ITERATIONS

 OUTPUT CONTROL FOR STRESS PERIOD   10   TIME STEP    1
    SAVE BUDGET
    SAVE HEAD FOR ALL LAYERS
    PRINT HEAD FOR ALL LAYERS
 UBDSV2 SAVING "STREAMFLOW OUT  " ON UNIT  50 AT TIME STEP  1, STRESS PERIOD  10



 STREAM LISTING     PERIOD     10   STEP        1

 LAYER ROW COL. STREAM  RCH.  FLOW INTO     FLOW TO   FLOW OUT OF   OVRLND.     DIRECT     STREAM       STREAM     STREAM     STREAM   STREAMBED  STREAMBED
                SEG.NO.  NO.  STRM. RCH.    AQUIFER    STRM. RCH.    RUNOFF     PRECIP       ET          HEAD       DEPTH      WIDTH   CONDCTNC.   GRADIENT

   1   13    1     1     1    1.0000E+05 -3.1732E+03   1.0317E+05  0.000E+00  0.000E+00  0.000E+00  4.84074E+01  1.460E-01  2.000E+01  2.000E+04 -1.587E-01
   1   13    2     1     2    1.0317E+05 -5.2087E+03   1.0838E+05  0.000E+00  0.000E+00  0.000E+00  4.79337E+01  1.496E-01  2.000E+01  2.000E+04 -2.604E-01
   1   14    3     1     3    1.0838E+05 -4.2733E+03   1.1266E+05  0.000E+00  0.000E+00  0.000E+00  4.74604E+01  1.536E-01  2.000E+01  2.000E+04 -2.137E-01
   1   15    4     1     4    1.1266E+05 -4.1686E+03   1.1682E+05  0.000E+00  0.000E+00  0.000E+00  4.69866E+01  1.571E-01  2.000E+01  2.000E+04 -2.084E-01
   1   16    5     1     5    1.1682E+05 -4.4494E+03   1.2127E+05  0.000E+00  0.000E+00  0.000E+00  4.65129E+01  1.606E-01  2.000E+01  2.000E+04 -2.225E-01
   1   16    6     1     6    1.2127E+05 -3.5106E+03   1.2478E+05  0.000E+00  0.000E+00  0.000E+00  4.60388E+01  1.638E-01  2.000E+01  2.000E+04 -1.755E-01
   1   16    7     1     7    1.2478E+05 -3.5700E+03   1.2835E+05  0.000E+00  0.000E+00  0.000E+00  4.55643E+01  1.666E-01  2.000E+01  2.000E+04 -1.785E-01
   1   16    8     1     8    1.2835E+05 -3.5898E+03   1.3194E+05  0.000E+00  0.000E+00  0.000E+00  4.50899E+01  1.694E-01  2.000E+01  2.000E+04 -1.795E-01
   1   16    9     1     9    1.3194E+05 -3.5507E+03   1.3549E+05  0.000E+00  0.000E+00  0.000E+00  4.46154E+01  1.722E-01  2.000E+01  2.000E+04 -1.775E-01
   1   16   10     1    10    1.3549E+05 -3.4446E+03   1.3894E+05  0.000E+00  0.000E+00  0.000E+00  4.41408E+01  1.749E-01  2.000E+01  2.000E+04 -1.722E-01
   1   16   11     1    11    1.3894E+05 -3.2607E+03   1.4220E+05  0.000E+00  0.000E+00  0.000E+00  4.36661E+01  1.774E-01  2.000E+01  2.000E+04 -1.630E-01
   1   16   12     1    12    1.4220E+05 -3.5801E+03   1.4578E+05  0.000E+00  0.000E+00  0.000E+00  4.31914E+01  1.800E-01  2.000E+01  2.000E+04 -1.790E-01
   1   15   13     1    13    1.4578E+05 -2.9582E+03   1.4874E+05  0.000E+00  0.000E+00  0.000E+00  4.27166E+01  1.825E-01  2.000E+01  2.000E+04 -1.479E-01
   1   14   14     1    14    1.4874E+05 -2.7275E+03   1.5147E+05  0.000E+00  0.000E+00  0.000E+00  4.22414E+01  1.846E-01  2.000E+01  2.000E+04 -1.364E-01
   1   13   15     1    15    1.5147E+05 -3.1238E+03   1.5459E+05  0.000E+00  0.000E+00  0.000E+00  4.17663E+01  1.867E-01  2.000E+01  2.000E+04 -1.562E-01
   1   12   16     1    16    1.5459E+05 -5.1460E+03   1.5974E+05  0.000E+00  0.000E+00  0.000E+00  4.12920E+01  1.897E-01  2.000E+01  2.000E+04 -2.573E-01
   1   12   17     1    17    1.5974E+05 -2.8550E+03   1.6259E+05  0.000E+00  0.000E+00  0.000E+00  4.08176E+01  1.926E-01  2.000E+01  2.000E+04 -1.427E-01
   1   12   18     1    18    1.6259E+05 -2.6776E+03   1.6527E+05  0.000E+00  0.000E+00  0.000E+00  4.03423E+01  1.946E-01  2.000E+01  2.000E+04 -1.339E-01
   1   12   19     1    19    1.6527E+05 -4.0327E+03   1.6930E+05  0.000E+00  0.000E+00  0.000E+00  3.98674E+01  1.970E-01  2.000E+01  2.000E+04 -2.016E-01
   1   13   20     1    20    1.6930E+05 -9.9932E+02   1.7030E+05  0.000E+00  0.000E+00  0.000E+00  3.93919E+01  1.987E-01  2.000E+01  2.000E+04 -4.997E-02
   1   14   21     1    21    1.7030E+05  2.2788E+03   1.6802E+05  0.000E+00  0.000E+00  0.000E+00  3.89142E+01  1.983E-01  2.000E+01  2.000E+04  1.139E-01
   1   14   22     1    22    1.6802E+05  5.7551E+03   1.6227E+05  0.000E+00  0.000E+00  0.000E+00  3.84341E+01  1.955E-01  2.000E+01  2.000E+04  2.878E-01
   1    9   30     2     1    5.0000E+04 -3.0016E+03   5.3002E+04  0.000E+00  0.000E+00  0.000E+00  4.02429E+01  1.179E-01  2.000E+01  2.000E+04 -1.501E-01
   1    9   29     2     2    5.3002E+04 -3.3292E+03   5.6331E+04  0.000E+00  0.000E+00  0.000E+00  3.99972E+01  1.222E-01  2.000E+01  2.000E+04 -1.665E-01
   1    9   28     2     3    5.6331E+04 -3.7065E+03   6.0037E+04  0.000E+00  0.000E+00  0.000E+00  3.97519E+01  1.269E-01  2.000E+01  2.000E+04 -1.853E-01
   1    9   27     2     4    6.0037E+04 -6.5282E+03   6.6566E+04  0.000E+00  0.000E+00  0.000E+00  3.95085E+01  1.335E-01  2.000E+01  2.000E+04 -3.264E-01
   1   10   26     2     5    6.6566E+04 -4.0824E+03   7.0648E+04  0.000E+00  0.000E+00  0.000E+00  3.92651E+01  1.401E-01  2.000E+01  2.000E+04 -2.041E-01
   1   11   25     2     6    7.0648E+04 -2.8309E+03   7.3479E+04  0.000E+00  0.000E+00  0.000E+00  3.90193E+01  1.443E-01  2.000E+01  2.000E+04 -1.415E-01
   1   12   24     2     7    7.3479E+04 -1.7269E+03   7.5206E+04  0.000E+00  0.000E+00  0.000E+00  3.87720E+01  1.470E-01  2.000E+01  2.000E+04 -8.635E-02
   1   13   23     2     8    7.5206E+04 -8.8082E+02   7.6087E+04  0.000E+00  0.000E+00  0.000E+00  3.85235E+01  1.485E-01  2.000E+01  2.000E+04 -4.404E-02
   1   14   22     2     9    7.6087E+04  2.5248E+03   7.3562E+04  0.000E+00  0.000E+00  0.000E+00  3.82726E+01  1.476E-01  2.000E+01  2.000E+04  1.262E-01
   1   14   22     3     1    2.3583E+05 -7.7591E+03   2.4359E+05  0.000E+00  0.000E+00  0.000E+00  3.77584E+01  2.028E-01  2.000E+01  2.000E+04 -3.880E-01
   1   15   23     3     2    2.4359E+05  1.7446E+03   2.4184E+05  0.000E+00  0.000E+00  0.000E+00  3.68710E+01  2.043E-01  2.000E+01  2.000E+04  8.723E-02
   1   15   24     3     3    2.4184E+05 -5.0905E+01   2.4189E+05  0.000E+00  0.000E+00  0.000E+00  3.59817E+01  2.039E-01  2.000E+01  2.000E+04 -2.545E-03
   1   15   25     3     4    2.4189E+05  3.7914E+02   2.4151E+05  0.000E+00  0.000E+00  0.000E+00  3.50927E+01  2.038E-01  2.000E+01  2.000E+04  1.896E-02
   1   15   26     3     5    2.4151E+05 -1.4066E+03   2.4292E+05  0.000E+00  0.000E+00  0.000E+00  3.42041E+01  2.041E-01  2.000E+01  2.000E+04 -7.033E-02
   1   16   27     3     6    2.4292E+05 -2.6193E+03   2.4554E+05  0.000E+00  0.000E+00  0.000E+00  3.33162E+01  2.051E-01  2.000E+01  2.000E+04 -1.310E-01
   1   17   28     3     7    2.4554E+05 -3.7005E+03   2.4924E+05  0.000E+00  0.000E+00  0.000E+00  3.24289E+01  2.067E-01  2.000E+01  2.000E+04 -1.850E-01
   1   18   29     3     8    2.4924E+05 -5.5337E+03   2.5477E+05  0.000E+00  0.000E+00  0.000E+00  3.15423E+01  2.090E-01  2.000E+01  2.000E+04 -2.767E-01
   1   18   30     3     9    2.5477E+05 -4.8433E+03   2.5962E+05  0.000E+00  0.000E+00  0.000E+00  3.06560E+01  2.116E-01  2.000E+01  2.000E+04 -2.422E-01



1
              HEAD IN LAYER   1 AT END OF TIME STEP   1 IN STRESS PERIOD   10
  ---------------------------------------------------------------------------

          1      2      3      4      5      6      7      8      9     10
         11     12     13     14     15     16     17     18     19     20
         21     22     23     24     25     26     27     28     29     30
 .........................................................................
   1  ****** ****** ****** ****** ****** ****** ****** ****** ****** ******
      ****** ****** ****** ****** ****** ****** ****** ****** ****** ******
      ****** ****** ****** ****** ****** ****** ****** ****** ****** ******
   2  ****** ****** ****** ****** ****** ****** ****** ****** ****** ******
      ****** ****** ****** ****** ****** ****** ****** ****** ****** ******
      ****** ****** ****** ****** ****** ****** ****** ****** ****** ******
   3  ****** ****** ****** ****** ****** ****** ****** ****** ****** ******
      ****** ****** ****** ****** ****** ****** ****** ****** ****** ******
      ****** ****** ****** ****** ****** ****** ****** ****** ****** ******
   4  ****** ****** ****** ****** ****** ****** ****** ****** ****** ******
      ****** ****** ****** ****** ****** ****** ****** ****** ****** ******
      ****** ****** ****** ****** ****** ****** ****** ****** ****** ******
   5  ****** ****** ****** ****** ****** ****** ****** ****** ****** ******
      ****** ****** ****** ****** ****** ****** ****** ****** ****** ******
      ****** ****** ****** ****** ****** ****** ****** ****** ****** ******
   6  ****** ****** ****** ****** ****** ****** ****** ****** ****** ******
      ****** ****** ****** ****** ****** ****** ****** ****** ****** ******
      ****** ****** ****** ****** ****** ****** ****** ****** ****** ******
   7  ****** ****** ****** ****** ****** ****** ****** ****** ****** ******
      ****** ****** ****** ****** ****** ****** ****** ****** ****** ******
      ****** ****** ****** ****** ****** ****** ****** ****** ****** ******
   8  ****** ****** ****** ****** ****** ****** ****** ****** ****** ******
      ****** ****** ****** ****** ****** ****** ****** ****** ****** ******
      ****** ****** ****** ****** ****** ****** ****** ****** ****** ******
   9  ****** ****** ****** ****** ****** ****** ****** ****** ****** ******
      ****** ****** ****** ****** ****** ****** ****** ****** ****** ******
      ****** ****** ****** ****** ****** ****** ****** ****** ****** ******
  10  ****** ****** ****** ****** ****** ****** ****** ****** ****** ******
      ****** ****** ****** ****** ****** ****** ****** ****** ****** ******
      ****** ****** ****** ****** ****** ****** ****** ****** ****** ******
  11  ****** ****** ****** ****** ****** ****** ****** ****** ****** ******
      ****** ****** ****** ****** ****** ****** ****** ****** ****** ******
      ****** ****** ****** ****** ****** ****** ****** ****** ****** ******
  12  ****** ****** ****** ****** ****** ****** ****** ****** ****** ******
      ****** ****** ****** ****** ****** ****** ****** ****** ****** ******
      ****** ****** ****** ****** ****** ****** ****** ****** ****** ******
  13  ****** ****** ****** ****** ****** ****** ****** ****** ****** ******
      ****** ****** ****** ****** ****** ****** ****** ****** ****** ******
      ****** ****** ****** ****** ****** ****** ****** ****** ****** ******
  14  ****** ****** ****** ****** ****** ****** ****** ****** ****** ******
      ****** ****** ****** ****** ****** ****** ****** ****** ****** ******
      ****** ****** ****** ****** ****** ****** ****** ****** ****** ******
  15  ****** ****** ****** ****** ****** ****** ****** ****** ****** ******
      ****** ****** ****** ****** ****** ****** ****** ****** ****** ******
      ****** ****** ****** ****** ****** ****** ****** ****** ****** ******
  16  ****** ****** ****** ****** ****** ****** ****** ****** ****** ******
      ****** ****** ****** ****** ****** ****** ****** ****** ****** ******
      ****** ****** ****** ****** ****** ****** ****** ****** ****** ******
  17  ****** ****** ****** ****** ****** ****** ****** ****** ****** ******
      ****** ****** ****** ****** ****** ****** ****** ****** ****** ******
      ****** ****** ****** ****** ****** ****** ****** ****** ****** ******
  18  ****** ****** ****** ****** ****** ****** ****** ****** ****** ******
      ****** ****** ****** ****** ****** ****** ****** ****** ****** ******
      ****** ****** ****** ****** ****** ****** ****** ****** ****** ******
  19  ****** ****** ****** ****** ****** ****** ****** ****** ****** ******
      ****** ****** ****** ****** ****** ****** ****** ****** ****** ******
      ****** ****** ****** ****** ****** ****** ****** ****** ****** ******
  20  ****** ****** ****** ****** ****** ****** ****** ****** ****** ******
      ****** ****** ****** ****** ****** ****** ****** ****** ****** ******
      ****** ****** ****** ****** ****** ****** ****** ****** ****** ******
  21  ****** ****** ****** ****** ****** ****** ****** ****** ****** ******
      ****** ****** ****** ****** ****** ****** ****** ****** ****** ******
      ****** ****** ****** ****** ****** ****** ****** ****** ****** ******
  22  ****** ****** ****** ****** ****** ****** ****** ****** ****** ******
      ****** ****** ****** ****** ****** ****** ****** ****** ****** ******
      ****** ****** ****** ****** ****** ****** ****** ****** ****** ******
  23  ****** ****** ****** ****** ****** ****** ****** ****** ****** ******
      ****** ****** ****** ****** ****** ****** ****** ****** ****** ******
      ****** ****** ****** ****** ****** ****** ****** ****** ****** ******
  24  ****** ****** ****** ****** ****** ****** ****** ****** ****** ******
      ****** ****** ****** ****** ****** ****** ****** ****** ****** ******
      ****** ****** ****** ****** ****** ****** ****** ****** ****** ******
  25  ****** ****** ****** ****** ****** ****** ****** ****** ****** ******
      ****** ****** ****** ****** ****** ****** ****** ****** ****** ******
      ****** ****** ****** ****** ****** ****** ****** ****** ****** ******

 HEAD WILL BE SAVED ON UNIT   51 AT END OF TIME STEP    1, STRESS PERIOD   10
1
  VOLUMETRIC BUDGET FOR ENTIRE MODEL AT END OF TIME STEP    1, STRESS PERIOD  10
  ------------------------------------------------------------------------------

     CUMULATIVE VOLUMES      L**3       RATES FOR THIS TIME STEP      L**3/T
     ------------------                 ------------------------

           IN:                                      IN:
           ---                                      ---
             STORAGE =    23545670.0839               STORAGE =           0.0000
       CONSTANT HEAD =   103601336.9358         CONSTANT HEAD =      112423.7346
               WELLS =           0.0000                 WELLS =           0.0000
            RECHARGE =    23901600.0000              RECHARGE =       55200.0000
      STREAM LEAKAGE =    11544402.1606        STREAM LEAKAGE =       12682.4526

            TOTAL IN =   162593009.1802              TOTAL IN =      180306.1872

          OUT:                                     OUT:
          ----                                     ----
             STORAGE =     2258069.8250               STORAGE =       10758.9191
       CONSTANT HEAD =           0.0000         CONSTANT HEAD =           0.0000
               WELLS =    43136905.0555                 WELLS =       47247.4316
            RECHARGE =           0.0000              RECHARGE =           0.0000
      STREAM LEAKAGE =   117198035.1046        STREAM LEAKAGE =      122299.8348

           TOTAL OUT =   162593009.9851             TOTAL OUT =      180306.1855

            IN - OUT =          -0.8049              IN - OUT =       1.7538E-03

 PERCENT DISCREPANCY =          -0.00     PERCENT DISCREPANCY =           0.00






         TIME SUMMARY AT END OF TIME STEP    1 IN STRESS PERIOD   10
                    SECONDS     MINUTES      HOURS       DAYS        YEARS
                    -----------------------------------------------------------
   TIME STEP LENGTH 7.86240E+06 1.31040E+05  2184.0      91.000     0.24914    
 STRESS PERIOD TIME 7.86240E+06 1.31040E+05  2184.0      91.000     0.24914    
         TOTAL TIME 7.88832E+07 1.31472E+06  21912.      913.00      2.4997    
1
1
                            STRESS PERIOD NO.   11, LENGTH =   91.00000    
                            -----------------------------------------------

                              NUMBER OF TIME STEPS =     1

                               MULTIPLIER FOR DELT =     1.500

                            INITIAL TIME STEP SIZE =   91.00000    

 WELL NO.  LAYER   ROW   COL   STRESS RATE         
 --------------------------------------------------
      1      1     17     21     -0.3064E+05
      2      1     16     17     -0.1161E+05
      3      1     13     18       0.000    
      4      1     14     25      -5001.    

      4 WELLS

                 RECHARGE =   0.00000    

 REUSING STREAM SEGMENT DATA FROM LAST STRESS PERIOD
 
 SOLVING FOR HEAD 


     7 CALLS TO PCG ROUTINE FOR TIME STEP   1 IN STRESS PERIOD   11
    26 TOTAL ITERATIONS

 OUTPUT CONTROL FOR STRESS PERIOD   11   TIME STEP    1
    SAVE BUDGET
    SAVE HEAD FOR ALL LAYERS
    PRINT HEAD FOR ALL LAYERS
 UBDSV2 SAVING "STREAMFLOW OUT  " ON UNIT  50 AT TIME STEP  1, STRESS PERIOD  11



 STREAM LISTING     PERIOD     11   STEP        1

 LAYER ROW COL. STREAM  RCH.  FLOW INTO     FLOW TO   FLOW OUT OF   OVRLND.     DIRECT     STREAM       STREAM     STREAM     STREAM   STREAMBED  STREAMBED
                SEG.NO.  NO.  STRM. RCH.    AQUIFER    STRM. RCH.    RUNOFF     PRECIP       ET          HEAD       DEPTH      WIDTH   CONDCTNC.   GRADIENT

   1   13    1     1     1    1.0000E+05 -2.6890E+03   1.0269E+05  0.000E+00  0.000E+00  0.000E+00  4.84072E+01  1.458E-01  2.000E+01  2.000E+04 -1.345E-01
   1   13    2     1     2    1.0269E+05 -4.5757E+03   1.0726E+05  0.000E+00  0.000E+00  0.000E+00  4.79330E+01  1.489E-01  2.000E+01  2.000E+04 -2.288E-01
   1   14    3     1     3    1.0726E+05 -3.6184E+03   1.1088E+05  0.000E+00  0.000E+00  0.000E+00  4.74592E+01  1.524E-01  2.000E+01  2.000E+04 -1.809E-01
   1   15    4     1     4    1.1088E+05 -3.5170E+03   1.1440E+05  0.000E+00  0.000E+00  0.000E+00  4.69849E+01  1.554E-01  2.000E+01  2.000E+04 -1.758E-01
   1   16    5     1     5    1.1440E+05 -3.8478E+03   1.1825E+05  0.000E+00  0.000E+00  0.000E+00  4.65107E+01  1.584E-01  2.000E+01  2.000E+04 -1.924E-01
   1   16    6     1     6    1.1825E+05 -3.0348E+03   1.2128E+05  0.000E+00  0.000E+00  0.000E+00  4.60362E+01  1.612E-01  2.000E+01  2.000E+04 -1.517E-01
   1   16    7     1     7    1.2128E+05 -3.0873E+03   1.2437E+05  0.000E+00  0.000E+00  0.000E+00  4.55614E+01  1.636E-01  2.000E+01  2.000E+04 -1.544E-01
   1   16    8     1     8    1.2437E+05 -3.1030E+03   1.2747E+05  0.000E+00  0.000E+00  0.000E+00  4.50866E+01  1.661E-01  2.000E+01  2.000E+04 -1.552E-01
   1   16    9     1     9    1.2747E+05 -3.0641E+03   1.3054E+05  0.000E+00  0.000E+00  0.000E+00  4.46117E+01  1.685E-01  2.000E+01  2.000E+04 -1.532E-01
   1   16   10     1    10    1.3054E+05 -2.9622E+03   1.3350E+05  0.000E+00  0.000E+00  0.000E+00  4.41368E+01  1.709E-01  2.000E+01  2.000E+04 -1.481E-01
   1   16   11     1    11    1.3350E+05 -2.7845E+03   1.3628E+05  0.000E+00  0.000E+00  0.000E+00  4.36617E+01  1.731E-01  2.000E+01  2.000E+04 -1.392E-01
   1   16   12     1    12    1.3628E+05 -2.9704E+03   1.3925E+05  0.000E+00  0.000E+00  0.000E+00  4.31867E+01  1.753E-01  2.000E+01  2.000E+04 -1.485E-01
   1   15   13     1    13    1.3925E+05 -2.2945E+03   1.4155E+05  0.000E+00  0.000E+00  0.000E+00  4.27114E+01  1.773E-01  2.000E+01  2.000E+04 -1.147E-01
   1   14   14     1    14    1.4155E+05 -2.0527E+03   1.4360E+05  0.000E+00  0.000E+00  0.000E+00  4.22358E+01  1.790E-01  2.000E+01  2.000E+04 -1.026E-01
   1   13   15     1    15    1.4360E+05 -2.4609E+03   1.4606E+05  0.000E+00  0.000E+00  0.000E+00  4.17602E+01  1.807E-01  2.000E+01  2.000E+04 -1.230E-01
   1   12   16     1    16    1.4606E+05 -4.5185E+03   1.5058E+05  0.000E+00  0.000E+00  0.000E+00  4.12855E+01  1.833E-01  2.000E+01  2.000E+04 -2.259E-01
   1   12   17     1    17    1.5058E+05 -2.3816E+03   1.5296E+05  0.000E+00  0.000E+00  0.000E+00  4.08108E+01  1.858E-01  2.000E+01  2.000E+04 -1.191E-01
   1   12   18     1    18    1.5296E+05 -2.2107E+03   1.5517E+05  0.000E+00  0.000E+00  0.000E+00  4.03352E+01  1.875E-01  2.000E+01  2.000E+04 -1.105E-01
   1   12   19     1    19    1.5517E+05 -3.4635E+03   1.5864E+05  0.000E+00  0.000E+00  0.000E+00  3.98600E+01  1.895E-01  2.000E+01  2.000E+04 -1.732E-01
   1   13   20     1    20    1.5864E+05 -4.3631E+02   1.5907E+05  0.000E+00  0.000E+00  0.000E+00  3.93841E+01  1.910E-01  2.000E+01  2.000E+04 -2.182E-02
   1   14   21     1    21    1.5907E+05  2.7940E+03   1.5628E+05  0.000E+00  0.000E+00  0.000E+00  3.89060E+01  1.901E-01  2.000E+01  2.000E+04  1.397E-01
   1   14   22     1    22    1.5628E+05  5.8551E+03   1.5042E+05  0.000E+00  0.000E+00  0.000E+00  3.84256E+01  1.870E-01  2.000E+01  2.000E+04  2.928E-01
   1    9   30     2     1    5.0000E+04 -2.5602E+03   5.2560E+04  0.000E+00  0.000E+00  0.000E+00  4.02426E+01  1.176E-01  2.000E+01  2.000E+04 -1.280E-01
   1    9   29     2     2    5.2560E+04 -2.8915E+03   5.5452E+04  0.000E+00  0.000E+00  0.000E+00  3.99963E+01  1.213E-01  2.000E+01  2.000E+04 -1.446E-01
   1    9   28     2     3    5.5452E+04 -3.2723E+03   5.8724E+04  0.000E+00  0.000E+00  0.000E+00  3.97505E+01  1.255E-01  2.000E+01  2.000E+04 -1.636E-01
   1    9   27     2     4    5.8724E+04 -5.9565E+03   6.4681E+04  0.000E+00  0.000E+00  0.000E+00  3.95064E+01  1.314E-01  2.000E+01  2.000E+04 -2.978E-01
   1   10   26     2     5    6.4681E+04 -3.4847E+03   6.8165E+04  0.000E+00  0.000E+00  0.000E+00  3.92624E+01  1.374E-01  2.000E+01  2.000E+04 -1.742E-01
   1   11   25     2     6    6.8165E+04 -2.2565E+03   7.0422E+04  0.000E+00  0.000E+00  0.000E+00  3.90159E+01  1.409E-01  2.000E+01  2.000E+04 -1.128E-01
   1   12   24     2     7    7.0422E+04 -1.2157E+03   7.1637E+04  0.000E+00  0.000E+00  0.000E+00  3.87680E+01  1.430E-01  2.000E+01  2.000E+04 -6.078E-02
   1   13   23     2     8    7.1637E+04 -4.7785E+02   7.2115E+04  0.000E+00  0.000E+00  0.000E+00  3.85191E+01  1.441E-01  2.000E+01  2.000E+04 -2.389E-02
   1   14   22     2     9    7.2115E+04  2.6975E+03   6.9418E+04  0.000E+00  0.000E+00  0.000E+00  3.82677E+01  1.427E-01  2.000E+01  2.000E+04  1.349E-01
   1   14   22     3     1    2.1984E+05 -7.6544E+03   2.2750E+05  0.000E+00  0.000E+00  0.000E+00  3.77501E+01  1.946E-01  2.000E+01  2.000E+04 -3.827E-01
   1   15   23     3     2    2.2750E+05  2.2263E+03   2.2527E+05  0.000E+00  0.000E+00  0.000E+00  3.68626E+01  1.960E-01  2.000E+01  2.000E+04  1.113E-01
   1   15   24     3     3    2.2527E+05  3.0415E+02   2.2497E+05  0.000E+00  0.000E+00  0.000E+00  3.59731E+01  1.953E-01  2.000E+01  2.000E+04  1.521E-02
   1   15   25     3     4    2.2497E+05  7.3785E+02   2.2423E+05  0.000E+00  0.000E+00  0.000E+00  3.50839E+01  1.950E-01  2.000E+01  2.000E+04  3.689E-02
   1   15   26     3     5    2.2423E+05 -9.4242E+02   2.2517E+05  0.000E+00  0.000E+00  0.000E+00  3.41951E+01  1.951E-01  2.000E+01  2.000E+04 -4.712E-02
   1   16   27     3     6    2.2517E+05 -2.0432E+03   2.2721E+05  0.000E+00  0.000E+00  0.000E+00  3.33070E+01  1.959E-01  2.000E+01  2.000E+04 -1.022E-01
   1   17   28     3     7    2.2721E+05 -3.1138E+03   2.3033E+05  0.000E+00  0.000E+00  0.000E+00  3.24194E+01  1.972E-01  2.000E+01  2.000E+04 -1.557E-01
   1   18   29     3     8    2.3033E+05 -4.9868E+03   2.3531E+05  0.000E+00  0.000E+00  0.000E+00  3.15326E+01  1.993E-01  2.000E+01  2.000E+04 -2.493E-01
   1   18   30     3     9    2.3531E+05 -4.4263E+03   2.3974E+05  0.000E+00  0.000E+00  0.000E+00  3.06462E+01  2.017E-01  2.000E+01  2.000E+04 -2.213E-01



1
              HEAD IN LAYER   1 AT END OF TIME STEP   1 IN STRESS PERIOD   11
  ---------------------------------------------------------------------------

          1      2      3      4      5      6      7      8      9     10
         11     12     13     14     15     16     17     18     19     20
         21     22     23     24     25     26     27     28     29     30
 .........................................................................
   1  ****** ****** ****** ****** ****** ****** ****** ****** ****** ******
      ****** ****** ****** ****** ****** ****** ****** ****** ****** ******
      ****** ****** ****** ****** ****** ****** ****** ****** ****** ******
   2  ****** ****** ****** ****** ****** ****** ****** ****** ****** ******
      ****** ****** ****** ****** ****** ****** ****** ****** ****** ******
      ****** ****** ****** ****** ****** ****** ****** ****** ****** ******
   3  ****** ****** ****** ****** ****** ****** ****** ****** ****** ******
      ****** ****** ****** ****** ****** ****** ****** ****** ****** ******
      ****** ****** ****** ****** ****** ****** ****** ****** ****** ******
   4  ****** ****** ****** ****** ****** ****** ****** ****** ****** ******
      ****** ****** ****** ****** ****** ****** ****** ****** ****** ******
      ****** ****** ****** ****** ****** ****** ****** ****** ****** ******
   5  ****** ****** ****** ****** ****** ****** ****** ****** ****** ******
      ****** ****** ****** ****** ****** ****** ****** ****** ****** ******
      ****** ****** ****** ****** ****** ****** ****** ****** ****** ******
   6  ****** ****** ****** ****** ****** ****** ****** ****** ****** ******
      ****** ****** ****** ****** ****** ****** ****** ****** ****** ******
      ****** ****** ****** ****** ****** ****** ****** ****** ****** ******
   7  ****** ****** ****** ****** ****** ****** ****** ****** ****** ******
      ****** ****** ****** ****** ****** ****** ****** ****** ****** ******
      ****** ****** ****** ****** ****** ****** ****** ****** ****** ******
   8  ****** ****** ****** ****** ****** ****** ****** ****** ****** ******
      ****** ****** ****** ****** ****** ****** ****** ****** ****** ******
      ****** ****** ****** ****** ****** ****** ****** ****** ****** ******
   9  ****** ****** ****** ****** ****** ****** ****** ****** ****** ******
      ****** ****** ****** ****** ****** ****** ****** ****** ****** ******
      ****** ****** ****** ****** ****** ****** ****** ****** ****** ******
  10  ****** ****** ****** ****** ****** ****** ****** ****** ****** ******
      ****** ****** ****** ****** ****** ****** ****** ****** ****** ******
      ****** ****** ****** ****** ****** ****** ****** ****** ****** ******
  11  ****** ****** ****** ****** ****** ****** ****** ****** ****** ******
      ****** ****** ****** ****** ****** ****** ****** ****** ****** ******
      ****** ****** ****** ****** ****** ****** ****** ****** ****** ******
  12  ****** ****** ****** ****** ****** ****** ****** ****** ****** ******
      ****** ****** ****** ****** ****** ****** ****** ****** ****** ******
      ****** ****** ****** ****** ****** ****** ****** ****** ****** ******
  13  ****** ****** ****** ****** ****** ****** ****** ****** ****** ******
      ****** ****** ****** ****** ****** ****** ****** ****** ****** ******
      ****** ****** ****** ****** ****** ****** ****** ****** ****** ******
  14  ****** ****** ****** ****** ****** ****** ****** ****** ****** ******
      ****** ****** ****** ****** ****** ****** ****** ****** ****** ******
      ****** ****** ****** ****** ****** ****** ****** ****** ****** ******
  15  ****** ****** ****** ****** ****** ****** ****** ****** ****** ******
      ****** ****** ****** ****** ****** ****** ****** ****** ****** ******
      ****** ****** ****** ****** ****** ****** ****** ****** ****** ******
  16  ****** ****** ****** ****** ****** ****** ****** ****** ****** ******
      ****** ****** ****** ****** ****** ****** ****** ****** ****** ******
      ****** ****** ****** ****** ****** ****** ****** ****** ****** ******
  17  ****** ****** ****** ****** ****** ****** ****** ****** ****** ******
      ****** ****** ****** ****** ****** ****** ****** ****** ****** ******
      ****** ****** ****** ****** ****** ****** ****** ****** ****** ******
  18  ****** ****** ****** ****** ****** ****** ****** ****** ****** ******
      ****** ****** ****** ****** ****** ****** ****** ****** ****** ******
      ****** ****** ****** ****** ****** ****** ****** ****** ****** ******
  19  ****** ****** ****** ****** ****** ****** ****** ****** ****** ******
      ****** ****** ****** ****** ****** ****** ****** ****** ****** ******
      ****** ****** ****** ****** ****** ****** ****** ****** ****** ******
  20  ****** ****** ****** ****** ****** ****** ****** ****** ****** ******
      ****** ****** ****** ****** ****** ****** ****** ****** ****** ******
      ****** ****** ****** ****** ****** ****** ****** ****** ****** ******
  21  ****** ****** ****** ****** ****** ****** ****** ****** ****** ******
      ****** ****** ****** ****** ****** ****** ****** ****** ****** ******
      ****** ****** ****** ****** ****** ****** ****** ****** ****** ******
  22  ****** ****** ****** ****** ****** ****** ****** ****** ****** ******
      ****** ****** ****** ****** ****** ****** ****** ****** ****** ******
      ****** ****** ****** ****** ****** ****** ****** ****** ****** ******
  23  ****** ****** ****** ****** ****** ****** ****** ****** ****** ******
      ****** ****** ****** ****** ****** ****** ****** ****** ****** ******
      ****** ****** ****** ****** ****** ****** ****** ****** ****** ******
  24  ****** ****** ****** ****** ****** ****** ****** ****** ****** ******
      ****** ****** ****** ****** ****** ****** ****** ****** ****** ******
      ****** ****** ****** ****** ****** ****** ****** ****** ****** ******
  25  ****** ****** ****** ****** ****** ****** ****** ****** ****** ******
      ****** ****** ****** ****** ****** ****** ****** ****** ****** ******
      ****** ****** ****** ****** ****** ****** ****** ****** ****** ******

 HEAD WILL BE SAVED ON UNIT   51 AT END OF TIME STEP    1, STRESS PERIOD   11
1
  VOLUMETRIC BUDGET FOR ENTIRE MODEL AT END OF TIME STEP    1, STRESS PERIOD  11
  ------------------------------------------------------------------------------

     CUMULATIVE VOLUMES      L**3       RATES FOR THIS TIME STEP      L**3/T
     ------------------                 ------------------------

           IN:                                      IN:
           ---                                      ---
             STORAGE =    24623986.0866               STORAGE =       11849.6264
       CONSTANT HEAD =   114988892.6289         CONSTANT HEAD =      125137.9746
               WELLS =           0.0000                 WELLS =           0.0000
            RECHARGE =    23901600.0000              RECHARGE =           0.0000
      STREAM LEAKAGE =    12874351.3851        STREAM LEAKAGE =       14614.8266

            TOTAL IN =   176388830.1006              TOTAL IN =      151602.4277

          OUT:                                     OUT:
          ----                                     ----
             STORAGE =     2258069.8250               STORAGE =           0.0000
       CONSTANT HEAD =           0.0000         CONSTANT HEAD =           0.0000
               WELLS =    47436421.3315                 WELLS =       47247.4316
            RECHARGE =           0.0000              RECHARGE =           0.0000
      STREAM LEAKAGE =   126694339.9458        STREAM LEAKAGE =      104354.9983

           TOTAL OUT =   176388831.1023             TOTAL OUT =      151602.4299

            IN - OUT =          -1.0018              IN - OUT =      -2.1636E-03

 PERCENT DISCREPANCY =          -0.00     PERCENT DISCREPANCY =          -0.00






         TIME SUMMARY AT END OF TIME STEP    1 IN STRESS PERIOD   11
                    SECONDS     MINUTES      HOURS       DAYS        YEARS
                    -----------------------------------------------------------
   TIME STEP LENGTH 7.86240E+06 1.31040E+05  2184.0      91.000     0.24914    
 STRESS PERIOD TIME 7.86240E+06 1.31040E+05  2184.0      91.000     0.24914    
         TOTAL TIME 8.67456E+07 1.44576E+06  24096.      1004.0      2.7488    
1
1
                            STRESS PERIOD NO.   12, LENGTH =   91.00000    
                            -----------------------------------------------

                              NUMBER OF TIME STEPS =     1

                               MULTIPLIER FOR DELT =     1.500

                            INITIAL TIME STEP SIZE =   91.00000    

 WELL NO.  LAYER   ROW   COL   STRESS RATE         
 --------------------------------------------------
      1      1     17     21     -0.3064E+05
      2      1     16     17     -0.1161E+05
      3      1     13     18       0.000    
      4      1     14     25      -5001.    

      4 WELLS

                 RECHARGE =  1.000000E-03

 REUSING STREAM SEGMENT DATA FROM LAST STRESS PERIOD
 
 SOLVING FOR HEAD 


     6 CALLS TO PCG ROUTINE FOR TIME STEP   1 IN STRESS PERIOD   12
    23 TOTAL ITERATIONS

 OUTPUT CONTROL FOR STRESS PERIOD   12   TIME STEP    1
    SAVE BUDGET
    SAVE HEAD FOR ALL LAYERS
    PRINT HEAD FOR ALL LAYERS
 UBDSV2 SAVING "STREAMFLOW OUT  " ON UNIT  50 AT TIME STEP  1, STRESS PERIOD  12



 STREAM LISTING     PERIOD     12   STEP        1

 LAYER ROW COL. STREAM  RCH.  FLOW INTO     FLOW TO   FLOW OUT OF   OVRLND.     DIRECT     STREAM       STREAM     STREAM     STREAM   STREAMBED  STREAMBED
                SEG.NO.  NO.  STRM. RCH.    AQUIFER    STRM. RCH.    RUNOFF     PRECIP       ET          HEAD       DEPTH      WIDTH   CONDCTNC.   GRADIENT

   1   13    1     1     1    1.0000E+05 -2.8625E+03   1.0286E+05  0.000E+00  0.000E+00  0.000E+00  4.84073E+01  1.459E-01  2.000E+01  2.000E+04 -1.431E-01
   1   13    2     1     2    1.0286E+05 -4.7938E+03   1.0766E+05  0.000E+00  0.000E+00  0.000E+00  4.79333E+01  1.492E-01  2.000E+01  2.000E+04 -2.397E-01
   1   14    3     1     3    1.0766E+05 -3.8575E+03   1.1151E+05  0.000E+00  0.000E+00  0.000E+00  4.74596E+01  1.528E-01  2.000E+01  2.000E+04 -1.929E-01
   1   15    4     1     4    1.1151E+05 -3.7581E+03   1.1527E+05  0.000E+00  0.000E+00  0.000E+00  4.69855E+01  1.560E-01  2.000E+01  2.000E+04 -1.879E-01
   1   16    5     1     5    1.1527E+05 -4.0703E+03   1.1934E+05  0.000E+00  0.000E+00  0.000E+00  4.65115E+01  1.592E-01  2.000E+01  2.000E+04 -2.035E-01
   1   16    6     1     6    1.1934E+05 -3.2120E+03   1.2255E+05  0.000E+00  0.000E+00  0.000E+00  4.60371E+01  1.621E-01  2.000E+01  2.000E+04 -1.606E-01
   1   16    7     1     7    1.2255E+05 -3.2663E+03   1.2582E+05  0.000E+00  0.000E+00  0.000E+00  4.55625E+01  1.647E-01  2.000E+01  2.000E+04 -1.633E-01
   1   16    8     1     8    1.2582E+05 -3.2832E+03   1.2910E+05  0.000E+00  0.000E+00  0.000E+00  4.50878E+01  1.673E-01  2.000E+01  2.000E+04 -1.642E-01
   1   16    9     1     9    1.2910E+05 -3.2441E+03   1.3235E+05  0.000E+00  0.000E+00  0.000E+00  4.46131E+01  1.699E-01  2.000E+01  2.000E+04 -1.622E-01
   1   16   10     1    10    1.3235E+05 -3.1410E+03   1.3549E+05  0.000E+00  0.000E+00  0.000E+00  4.41383E+01  1.724E-01  2.000E+01  2.000E+04 -1.571E-01
   1   16   11     1    11    1.3549E+05 -2.9614E+03   1.3845E+05  0.000E+00  0.000E+00  0.000E+00  4.36633E+01  1.747E-01  2.000E+01  2.000E+04 -1.481E-01
   1   16   12     1    12    1.3845E+05 -3.1933E+03   1.4164E+05  0.000E+00  0.000E+00  0.000E+00  4.31884E+01  1.770E-01  2.000E+01  2.000E+04 -1.597E-01
   1   15   13     1    13    1.4164E+05 -2.5378E+03   1.4418E+05  0.000E+00  0.000E+00  0.000E+00  4.27133E+01  1.792E-01  2.000E+01  2.000E+04 -1.269E-01
   1   14   14     1    14    1.4418E+05 -2.2987E+03   1.4648E+05  0.000E+00  0.000E+00  0.000E+00  4.22378E+01  1.810E-01  2.000E+01  2.000E+04 -1.149E-01
   1   13   15     1    15    1.4648E+05 -2.7014E+03   1.4918E+05  0.000E+00  0.000E+00  0.000E+00  4.17624E+01  1.829E-01  2.000E+01  2.000E+04 -1.351E-01
   1   12   16     1    16    1.4918E+05 -4.7381E+03   1.5392E+05  0.000E+00  0.000E+00  0.000E+00  4.12879E+01  1.856E-01  2.000E+01  2.000E+04 -2.369E-01
   1   12   17     1    17    1.5392E+05 -2.5553E+03   1.5647E+05  0.000E+00  0.000E+00  0.000E+00  4.08133E+01  1.883E-01  2.000E+01  2.000E+04 -1.278E-01
   1   12   18     1    18    1.5647E+05 -2.3840E+03   1.5886E+05  0.000E+00  0.000E+00  0.000E+00  4.03378E+01  1.901E-01  2.000E+01  2.000E+04 -1.192E-01
   1   12   19     1    19    1.5886E+05 -3.6749E+03   1.6253E+05  0.000E+00  0.000E+00  0.000E+00  3.98627E+01  1.923E-01  2.000E+01  2.000E+04 -1.837E-01
   1   13   20     1    20    1.6253E+05 -6.5518E+02   1.6319E+05  0.000E+00  0.000E+00  0.000E+00  3.93870E+01  1.938E-01  2.000E+01  2.000E+04 -3.276E-02
   1   14   21     1    21    1.6319E+05  2.5971E+03   1.6059E+05  0.000E+00  0.000E+00  0.000E+00  3.89090E+01  1.931E-01  2.000E+01  2.000E+04  1.299E-01
   1   14   22     1    22    1.6059E+05  5.8116E+03   1.5478E+05  0.000E+00  0.000E+00  0.000E+00  3.84287E+01  1.901E-01  2.000E+01  2.000E+04  2.906E-01
   1    9   30     2     1    5.0000E+04 -2.7396E+03   5.2740E+04  0.000E+00  0.000E+00  0.000E+00  4.02428E+01  1.178E-01  2.000E+01  2.000E+04 -1.370E-01
   1    9   29     2     2    5.2740E+04 -3.0692E+03   5.5809E+04  0.000E+00  0.000E+00  0.000E+00  3.99967E+01  1.217E-01  2.000E+01  2.000E+04 -1.535E-01
   1    9   28     2     3    5.5809E+04 -3.4474E+03   5.9256E+04  0.000E+00  0.000E+00  0.000E+00  3.97510E+01  1.260E-01  2.000E+01  2.000E+04 -1.724E-01
   1    9   27     2     4    5.9256E+04 -6.1771E+03   6.5433E+04  0.000E+00  0.000E+00  0.000E+00  3.95073E+01  1.323E-01  2.000E+01  2.000E+04 -3.089E-01
   1   10   26     2     5    6.5433E+04 -3.7222E+03   6.9156E+04  0.000E+00  0.000E+00  0.000E+00  3.92635E+01  1.385E-01  2.000E+01  2.000E+04 -1.861E-01
   1   11   25     2     6    6.9156E+04 -2.4876E+03   7.1643E+04  0.000E+00  0.000E+00  0.000E+00  3.90173E+01  1.423E-01  2.000E+01  2.000E+04 -1.244E-01
   1   12   24     2     7    7.1643E+04 -1.4255E+03   7.3069E+04  0.000E+00  0.000E+00  0.000E+00  3.87696E+01  1.446E-01  2.000E+01  2.000E+04 -7.127E-02
   1   13   23     2     8    7.3069E+04 -6.4830E+02   7.3717E+04  0.000E+00  0.000E+00  0.000E+00  3.85209E+01  1.459E-01  2.000E+01  2.000E+04 -3.241E-02
   1   14   22     2     9    7.3717E+04  2.6304E+03   7.1087E+04  0.000E+00  0.000E+00  0.000E+00  3.82697E+01  1.447E-01  2.000E+01  2.000E+04  1.315E-01
   1   14   22     3     1    2.2587E+05 -7.6981E+03   2.3356E+05  0.000E+00  0.000E+00  0.000E+00  3.77533E+01  1.977E-01  2.000E+01  2.000E+04 -3.849E-01
   1   15   23     3     2    2.3356E+05  2.0416E+03   2.3152E+05  0.000E+00  0.000E+00  0.000E+00  3.68658E+01  1.992E-01  2.000E+01  2.000E+04  1.021E-01
   1   15   24     3     3    2.3152E+05  1.5975E+02   2.3136E+05  0.000E+00  0.000E+00  0.000E+00  3.59764E+01  1.986E-01  2.000E+01  2.000E+04  7.987E-03
   1   15   25     3     4    2.3136E+05  5.8870E+02   2.3077E+05  0.000E+00  0.000E+00  0.000E+00  3.50873E+01  1.984E-01  2.000E+01  2.000E+04  2.943E-02
   1   15   26     3     5    2.3077E+05 -1.1374E+03   2.3191E+05  0.000E+00  0.000E+00  0.000E+00  3.41985E+01  1.985E-01  2.000E+01  2.000E+04 -5.687E-02
   1   16   27     3     6    2.3191E+05 -2.2776E+03   2.3419E+05  0.000E+00  0.000E+00  0.000E+00  3.33105E+01  1.994E-01  2.000E+01  2.000E+04 -1.139E-01
   1   17   28     3     7    2.3419E+05 -3.3507E+03   2.3754E+05  0.000E+00  0.000E+00  0.000E+00  3.24231E+01  2.009E-01  2.000E+01  2.000E+04 -1.675E-01
   1   18   29     3     8    2.3754E+05 -5.2034E+03   2.4274E+05  0.000E+00  0.000E+00  0.000E+00  3.15364E+01  2.030E-01  2.000E+01  2.000E+04 -2.602E-01
   1   18   30     3     9    2.4274E+05 -4.5970E+03   2.4734E+05  0.000E+00  0.000E+00  0.000E+00  3.06500E+01  2.055E-01  2.000E+01  2.000E+04 -2.299E-01



1
              HEAD IN LAYER   1 AT END OF TIME STEP   1 IN STRESS PERIOD   12
  ---------------------------------------------------------------------------

          1      2      3      4      5      6      7      8      9     10
         11     12     13     14     15     16     17     18     19     20
         21     22     23     24     25     26     27     28     29     30
 .........................................................................
   1  ****** ****** ****** ****** ****** ****** ****** ****** ****** ******
      ****** ****** ****** ****** ****** ****** ****** ****** ****** ******
      ****** ****** ****** ****** ****** ****** ****** ****** ****** ******
   2  ****** ****** ****** ****** ****** ****** ****** ****** ****** ******
      ****** ****** ****** ****** ****** ****** ****** ****** ****** ******
      ****** ****** ****** ****** ****** ****** ****** ****** ****** ******
   3  ****** ****** ****** ****** ****** ****** ****** ****** ****** ******
      ****** ****** ****** ****** ****** ****** ****** ****** ****** ******
      ****** ****** ****** ****** ****** ****** ****** ****** ****** ******
   4  ****** ****** ****** ****** ****** ****** ****** ****** ****** ******
      ****** ****** ****** ****** ****** ****** ****** ****** ****** ******
      ****** ****** ****** ****** ****** ****** ****** ****** ****** ******
   5  ****** ****** ****** ****** ****** ****** ****** ****** ****** ******
      ****** ****** ****** ****** ****** ****** ****** ****** ****** ******
      ****** ****** ****** ****** ****** ****** ****** ****** ****** ******
   6  ****** ****** ****** ****** ****** ****** ****** ****** ****** ******
      ****** ****** ****** ****** ****** ****** ****** ****** ****** ******
      ****** ****** ****** ****** ****** ****** ****** ****** ****** ******
   7  ****** ****** ****** ****** ****** ****** ****** ****** ****** ******
      ****** ****** ****** ****** ****** ****** ****** ****** ****** ******
      ****** ****** ****** ****** ****** ****** ****** ****** ****** ******
   8  ****** ****** ****** ****** ****** ****** ****** ****** ****** ******
      ****** ****** ****** ****** ****** ****** ****** ****** ****** ******
      ****** ****** ****** ****** ****** ****** ****** ****** ****** ******
   9  ****** ****** ****** ****** ****** ****** ****** ****** ****** ******
      ****** ****** ****** ****** ****** ****** ****** ****** ****** ******
      ****** ****** ****** ****** ****** ****** ****** ****** ****** ******
  10  ****** ****** ****** ****** ****** ****** ****** ****** ****** ******
      ****** ****** ****** ****** ****** ****** ****** ****** ****** ******
      ****** ****** ****** ****** ****** ****** ****** ****** ****** ******
  11  ****** ****** ****** ****** ****** ****** ****** ****** ****** ******
      ****** ****** ****** ****** ****** ****** ****** ****** ****** ******
      ****** ****** ****** ****** ****** ****** ****** ****** ****** ******
  12  ****** ****** ****** ****** ****** ****** ****** ****** ****** ******
      ****** ****** ****** ****** ****** ****** ****** ****** ****** ******
      ****** ****** ****** ****** ****** ****** ****** ****** ****** ******
  13  ****** ****** ****** ****** ****** ****** ****** ****** ****** ******
      ****** ****** ****** ****** ****** ****** ****** ****** ****** ******
      ****** ****** ****** ****** ****** ****** ****** ****** ****** ******
  14  ****** ****** ****** ****** ****** ****** ****** ****** ****** ******
      ****** ****** ****** ****** ****** ****** ****** ****** ****** ******
      ****** ****** ****** ****** ****** ****** ****** ****** ****** ******
  15  ****** ****** ****** ****** ****** ****** ****** ****** ****** ******
      ****** ****** ****** ****** ****** ****** ****** ****** ****** ******
      ****** ****** ****** ****** ****** ****** ****** ****** ****** ******
  16  ****** ****** ****** ****** ****** ****** ****** ****** ****** ******
      ****** ****** ****** ****** ****** ****** ****** ****** ****** ******
      ****** ****** ****** ****** ****** ****** ****** ****** ****** ******
  17  ****** ****** ****** ****** ****** ****** ****** ****** ****** ******
      ****** ****** ****** ****** ****** ****** ****** ****** ****** ******
      ****** ****** ****** ****** ****** ****** ****** ****** ****** ******
  18  ****** ****** ****** ****** ****** ****** ****** ****** ****** ******
      ****** ****** ****** ****** ****** ****** ****** ****** ****** ******
      ****** ****** ****** ****** ****** ****** ****** ****** ****** ******
  19  ****** ****** ****** ****** ****** ****** ****** ****** ****** ******
      ****** ****** ****** ****** ****** ****** ****** ****** ****** ******
      ****** ****** ****** ****** ****** ****** ****** ****** ****** ******
  20  ****** ****** ****** ****** ****** ****** ****** ****** ****** ******
      ****** ****** ****** ****** ****** ****** ****** ****** ****** ******
      ****** ****** ****** ****** ****** ****** ****** ****** ****** ******
  21  ****** ****** ****** ****** ****** ****** ****** ****** ****** ******
      ****** ****** ****** ****** ****** ****** ****** ****** ****** ******
      ****** ****** ****** ****** ****** ****** ****** ****** ****** ******
  22  ****** ****** ****** ****** ****** ****** ****** ****** ****** ******
      ****** ****** ****** ****** ****** ****** ****** ****** ****** ******
      ****** ****** ****** ****** ****** ****** ****** ****** ****** ******
  23  ****** ****** ****** ****** ****** ****** ****** ****** ****** ******
      ****** ****** ****** ****** ****** ****** ****** ****** ****** ******
      ****** ****** ****** ****** ****** ****** ****** ****** ****** ******
  24  ****** ****** ****** ****** ****** ****** ****** ****** ****** ******
      ****** ****** ****** ****** ****** ****** ****** ****** ****** ******
      ****** ****** ****** ****** ****** ****** ****** ****** ****** ******
  25  ****** ****** ****** ****** ****** ****** ****** ****** ****** ******
      ****** ****** ****** ****** ****** ****** ****** ****** ****** ******
      ****** ****** ****** ****** ****** ****** ****** ****** ****** ******

 HEAD WILL BE SAVED ON UNIT   51 AT END OF TIME STEP    1, STRESS PERIOD   12
1
  VOLUMETRIC BUDGET FOR ENTIRE MODEL AT END OF TIME STEP    1, STRESS PERIOD  12
  ------------------------------------------------------------------------------

     CUMULATIVE VOLUMES      L**3       RATES FOR THIS TIME STEP      L**3/T
     ------------------                 ------------------------

           IN:                                      IN:
           ---                                      ---
             STORAGE =    24623986.0866               STORAGE =           0.0000
       CONSTANT HEAD =   125974581.6536         CONSTANT HEAD =      120721.8574
               WELLS =           0.0000                 WELLS =           0.0000
            RECHARGE =    26413200.0000              RECHARGE =       27600.0000
      STREAM LEAKAGE =    14132818.1696        STREAM LEAKAGE =       13829.3053

            TOTAL IN =   191144585.9098              TOTAL IN =      162151.1627

          OUT:                                     OUT:
          ----                                     ----
             STORAGE =     2597837.6485               STORAGE =        3733.7123
       CONSTANT HEAD =           0.0000         CONSTANT HEAD =           0.0000
               WELLS =    51735937.6076                 WELLS =       47247.4316
            RECHARGE =           0.0000              RECHARGE =           0.0000
      STREAM LEAKAGE =   136810811.5779        STREAM LEAKAGE =      111170.0179

           TOTAL OUT =   191144586.8340             TOTAL OUT =      162151.1619

            IN - OUT =          -0.9242              IN - OUT =       8.5186E-04

 PERCENT DISCREPANCY =          -0.00     PERCENT DISCREPANCY =           0.00






         TIME SUMMARY AT END OF TIME STEP    1 IN STRESS PERIOD   12
                    SECONDS     MINUTES      HOURS       DAYS        YEARS
                    -----------------------------------------------------------
   TIME STEP LENGTH 7.86240E+06 1.31040E+05  2184.0      91.000     0.24914    
 STRESS PERIOD TIME 7.86240E+06 1.31040E+05  2184.0      91.000     0.24914    
         TOTAL TIME 9.46080E+07 1.57680E+06  26280.      1095.0      2.9979    
1

 Run end date and time (yyyy/mm/dd hh:mm:ss): 2018/10/10 14:41:44
 Elapsed run time:  0.053 Seconds

